MODEL 1
REMARK VINA RESULT:     -13.3      0.000      0.000
REMARK  Name = 11974440
REMARK  4 active torsions:
REMARK  status: ('A' for Active; 'I' for Inactive)
REMARK    1  A    between atoms: C_1  and  C_25
REMARK    2  A    between atoms: C_2  and  N_31
REMARK    3  A    between atoms: C_5  and  C_12
REMARK    4  A    between atoms: C_17  and  C_21
REMARK                            x       y       z     vdW  Elec       q    Type
REMARK                         _______ _______ _______ _____ _____    ______ ____
ROOT
ATOM      1  C   UNL     1      34.816 -19.212 -19.810  0.00  0.00    +0.009 C 
ATOM      2  C   UNL     1      35.850 -20.365 -19.713  0.00  0.00    -0.057 C 
ATOM      3  C   UNL     1      35.681 -21.132 -18.386  0.00  0.00    +0.009 C 
ATOM      4  C   UNL     1      33.376 -19.767 -19.709  0.00  0.00    +0.028 C 
ATOM      5  C   UNL     1      34.247 -21.426 -18.064  0.00  0.00    +0.025 C 
ATOM      6  C   UNL     1      33.208 -20.827 -18.660  0.00  0.00    -0.026 C 
ENDROOT
BRANCH   5  12
ATOM      7  O   UNL     1      32.963 -23.164 -17.211  0.00  0.00    -0.270 OA
ATOM      8  N   UNL     1      34.819 -22.545 -15.955  0.00  0.00    -0.267 N 
ATOM      9  N   UNL     1      37.057 -23.655 -14.793  0.00  0.00    -0.292 N 
ATOM     10  N   UNL     1      36.017 -25.260 -13.743  0.00  0.00    -0.132 NA
ATOM     11  N   UNL     1      37.381 -25.429 -13.578  0.00  0.00    -0.125 NA
ATOM     12  C   UNL     1      33.952 -22.449 -17.040  0.00  0.00    +0.245 C 
ATOM     13  C   UNL     1      35.967 -21.658 -15.679  0.00  0.00    +0.119 C 
ATOM     14  C   UNL     1      34.559 -23.562 -14.924  0.00  0.00    +0.160 C 
ATOM     15  C   UNL     1      37.252 -22.480 -15.615  0.00  0.00    +0.130 C 
ATOM     16  C   UNL     1      35.835 -24.185 -14.482  0.00  0.00    +0.164 A 
ATOM     17  C   UNL     1      37.987 -24.454 -14.218  0.00  0.00    +0.238 A 
BRANCH  17  21
ATOM     18  F   UNL     1      40.128 -25.267 -14.911  0.00  0.00    -0.163 F 
ATOM     19  F   UNL     1      39.788 -23.131 -15.072  0.00  0.00    -0.163 F 
ATOM     20  F   UNL     1      40.054 -24.042 -13.116  0.00  0.00    -0.163 F 
ATOM     21  C   UNL     1      39.440 -24.232 -14.328  0.00  0.00    +0.452 C 
ENDBRANCH  17  21
ENDBRANCH   5  12
BRANCH   1  25
ATOM     22  F   UNL     1      35.750 -16.533 -19.752  0.00  0.00    -0.204 F 
ATOM     23  F   UNL     1      34.434 -18.597 -24.643  0.00  0.00    -0.202 F 
ATOM     24  F   UNL     1      35.348 -16.029 -24.439  0.00  0.00    -0.202 F 
ATOM     25  C   UNL     1      34.962 -18.352 -21.056  0.00  0.00    +0.006 C 
ATOM     26  C   UNL     1      35.427 -17.046 -20.947  0.00  0.00    +0.138 C 
ATOM     27  C   UNL     1      34.625 -18.881 -22.299  0.00  0.00    +0.030 C 
ATOM     28  C   UNL     1      34.757 -18.095 -23.443  0.00  0.00    +0.167 C 
ATOM     29  C   UNL     1      35.559 -16.260 -22.091  0.00  0.00    +0.061 C 
ATOM     30  C   UNL     1      35.224 -16.785 -23.340  0.00  0.00    +0.170 C 
ENDBRANCH   1  25
BRANCH   2  31
ATOM     31  N   UNL     1      37.224 -19.862 -19.810  0.00  0.00    +0.382 N 
ATOM     32  H   UNL     1      37.362 -19.119 -19.125  0.00  0.00    -0.089 HD
ATOM     33  H   UNL     1      37.386 -19.495 -20.747  0.00  0.00    -0.089 HD
ATOM     34  H   UNL     1      37.878 -20.622 -19.623  0.00  0.00    -0.089 HD
ENDBRANCH   2  31
TORSDOF 4
ENDMDL
MODEL 2
REMARK VINA RESULT:     -12.7      1.491      1.880
REMARK  Name = 11974440
REMARK  4 active torsions:
REMARK  status: ('A' for Active; 'I' for Inactive)
REMARK    1  A    between atoms: C_1  and  C_25
REMARK    2  A    between atoms: C_2  and  N_31
REMARK    3  A    between atoms: C_5  and  C_12
REMARK    4  A    between atoms: C_17  and  C_21
REMARK                            x       y       z     vdW  Elec       q    Type
REMARK                         _______ _______ _______ _____ _____    ______ ____
ROOT
ATOM      1  C   UNL     1      35.127 -20.608 -19.489  0.00  0.00    +0.009 C 
ATOM      2  C   UNL     1      33.735 -20.520 -18.811  0.00  0.00    -0.057 C 
ATOM      3  C   UNL     1      33.520 -21.716 -17.861  0.00  0.00    +0.009 C 
ATOM      4  C   UNL     1      36.249 -20.635 -18.424  0.00  0.00    +0.028 C 
ATOM      5  C   UNL     1      34.718 -22.002 -17.007  0.00  0.00    +0.025 C 
ATOM      6  C   UNL     1      35.942 -21.512 -17.246  0.00  0.00    -0.026 C 
ENDROOT
BRANCH   5  12
ATOM      7  O   UNL     1      33.486 -23.483 -15.709  0.00  0.00    -0.270 OA
ATOM      8  N   UNL     1      35.592 -22.918 -14.904  0.00  0.00    -0.267 N 
ATOM      9  N   UNL     1      37.915 -24.113 -14.025  0.00  0.00    -0.292 N 
ATOM     10  N   UNL     1      36.970 -25.464 -12.597  0.00  0.00    -0.132 NA
ATOM     11  N   UNL     1      38.322 -25.756 -12.660  0.00  0.00    -0.125 NA
ATOM     12  C   UNL     1      34.544 -22.861 -15.817  0.00  0.00    +0.245 C 
ATOM     13  C   UNL     1      36.840 -22.131 -14.962  0.00  0.00    +0.119 C 
ATOM     14  C   UNL     1      35.455 -23.774 -13.715  0.00  0.00    +0.160 C 
ATOM     15  C   UNL     1      38.043 -23.070 -15.020  0.00  0.00    +0.130 C 
ATOM     16  C   UNL     1      36.736 -24.471 -13.429  0.00  0.00    +0.164 A 
ATOM     17  C   UNL     1      38.871 -24.932 -13.525  0.00  0.00    +0.238 A 
BRANCH  17  21
ATOM     18  F   UNL     1      40.945 -26.081 -13.843  0.00  0.00    -0.163 F 
ATOM     19  F   UNL     1      40.495 -24.466 -15.218  0.00  0.00    -0.163 F 
ATOM     20  F   UNL     1      41.036 -24.019 -13.160  0.00  0.00    -0.163 F 
ATOM     21  C   UNL     1      40.288 -24.878 -13.924  0.00  0.00    +0.452 C 
ENDBRANCH  17  21
ENDBRANCH   5  12
BRANCH   1  25
ATOM     22  F   UNL     1      37.340 -18.841 -19.321  0.00  0.00    -0.204 F 
ATOM     23  F   UNL     1      33.929 -18.151 -23.539  0.00  0.00    -0.202 F 
ATOM     24  F   UNL     1      36.104 -16.519 -23.254  0.00  0.00    -0.202 F 
ATOM     25  C   UNL     1      35.393 -19.506 -20.503  0.00  0.00    +0.006 C 
ATOM     26  C   UNL     1      36.501 -18.679 -20.353  0.00  0.00    +0.138 C 
ATOM     27  C   UNL     1      34.523 -19.333 -21.575  0.00  0.00    +0.030 C 
ATOM     28  C   UNL     1      34.764 -18.323 -22.506  0.00  0.00    +0.167 C 
ATOM     29  C   UNL     1      36.743 -17.669 -21.284  0.00  0.00    +0.061 C 
ATOM     30  C   UNL     1      35.873 -17.491 -22.361  0.00  0.00    +0.170 C 
ENDBRANCH   1  25
BRANCH   2  31
ATOM     31  N   UNL     1      32.656 -20.489 -19.803  0.00  0.00    +0.382 N 
ATOM     32  H   UNL     1      32.619 -19.566 -20.235  0.00  0.00    -0.089 HD
ATOM     33  H   UNL     1      31.768 -20.686 -19.344  0.00  0.00    -0.089 HD
ATOM     34  H   UNL     1      32.834 -21.193 -20.520  0.00  0.00    -0.089 HD
ENDBRANCH   2  31
TORSDOF 4
ENDMDL
MODEL 3
REMARK VINA RESULT:     -12.3      3.633      4.460
REMARK  Name = 11974440
REMARK  4 active torsions:
REMARK  status: ('A' for Active; 'I' for Inactive)
REMARK    1  A    between atoms: C_1  and  C_25
REMARK    2  A    between atoms: C_2  and  N_31
REMARK    3  A    between atoms: C_5  and  C_12
REMARK    4  A    between atoms: C_17  and  C_21
REMARK                            x       y       z     vdW  Elec       q    Type
REMARK                         _______ _______ _______ _____ _____    ______ ____
ROOT
ATOM      1  C   UNL     1      35.311 -19.647 -20.548  0.00  0.00    +0.009 C 
ATOM      2  C   UNL     1      34.130 -19.707 -19.546  0.00  0.00    -0.057 C 
ATOM      3  C   UNL     1      34.327 -20.865 -18.546  0.00  0.00    +0.009 C 
ATOM      4  C   UNL     1      36.651 -19.463 -19.796  0.00  0.00    +0.028 C 
ATOM      5  C   UNL     1      35.726 -20.938 -18.011  0.00  0.00    +0.025 C 
ATOM      6  C   UNL     1      36.771 -20.304 -18.559  0.00  0.00    -0.026 C 
ENDROOT
BRANCH   5  12
ATOM      7  O   UNL     1      37.037 -21.570 -16.201  0.00  0.00    -0.270 OA
ATOM      8  N   UNL     1      34.981 -22.636 -16.403  0.00  0.00    -0.267 N 
ATOM      9  N   UNL     1      32.718 -23.171 -14.924  0.00  0.00    -0.292 N 
ATOM     10  N   UNL     1      33.749 -23.986 -13.184  0.00  0.00    -0.132 NA
ATOM     11  N   UNL     1      32.397 -23.900 -12.901  0.00  0.00    -0.125 NA
ATOM     12  C   UNL     1      35.973 -21.743 -16.798  0.00  0.00    +0.245 C 
ATOM     13  C   UNL     1      33.730 -22.925 -17.133  0.00  0.00    +0.119 C 
ATOM     14  C   UNL     1      35.191 -23.444 -15.191  0.00  0.00    +0.160 C 
ATOM     15  C   UNL     1      32.529 -22.610 -16.244  0.00  0.00    +0.130 C 
ATOM     16  C   UNL     1      33.931 -23.539 -14.409  0.00  0.00    +0.164 A 
ATOM     17  C   UNL     1      31.795 -23.407 -13.961  0.00  0.00    +0.238 A 
BRANCH  17  21
ATOM     18  F   UNL     1      30.033 -21.797 -14.108  0.00  0.00    -0.163 F 
ATOM     19  F   UNL     1      29.815 -23.603 -15.288  0.00  0.00    -0.163 F 
ATOM     20  F   UNL     1      29.585 -23.685 -13.128  0.00  0.00    -0.163 F 
ATOM     21  C   UNL     1      30.357 -23.131 -14.118  0.00  0.00    +0.452 C 
ENDBRANCH  17  21
ENDBRANCH   5  12
BRANCH   1  25
ATOM     22  F   UNL     1      35.860 -16.900 -20.096  0.00  0.00    -0.204 F 
ATOM     23  F   UNL     1      34.179 -18.303 -25.108  0.00  0.00    -0.202 F 
ATOM     24  F   UNL     1      34.745 -15.691 -24.533  0.00  0.00    -0.202 F 
ATOM     25  C   UNL     1      35.161 -18.579 -21.621  0.00  0.00    +0.006 C 
ATOM     26  C   UNL     1      35.450 -17.251 -21.323  0.00  0.00    +0.138 C 
ATOM     27  C   UNL     1      34.732 -18.940 -22.894  0.00  0.00    +0.030 C 
ATOM     28  C   UNL     1      34.592 -17.963 -23.880  0.00  0.00    +0.167 C 
ATOM     29  C   UNL     1      35.310 -16.274 -22.308  0.00  0.00    +0.061 C 
ATOM     30  C   UNL     1      34.881 -16.630 -23.587  0.00  0.00    +0.170 C 
ENDBRANCH   1  25
BRANCH   2  31
ATOM     31  N   UNL     1      32.848 -19.877 -20.237  0.00  0.00    +0.382 N 
ATOM     32  H   UNL     1      32.095 -19.525 -19.646  0.00  0.00    -0.089 HD
ATOM     33  H   UNL     1      32.695 -20.866 -20.429  0.00  0.00    -0.089 HD
ATOM     34  H   UNL     1      32.863 -19.357 -21.114  0.00  0.00    -0.089 HD
ENDBRANCH   2  31
TORSDOF 4
ENDMDL
MODEL 4
REMARK VINA RESULT:     -11.8      1.230      2.125
REMARK  Name = 11974440
REMARK  4 active torsions:
REMARK  status: ('A' for Active; 'I' for Inactive)
REMARK    1  A    between atoms: C_1  and  C_25
REMARK    2  A    between atoms: C_2  and  N_31
REMARK    3  A    between atoms: C_5  and  C_12
REMARK    4  A    between atoms: C_17  and  C_21
REMARK                            x       y       z     vdW  Elec       q    Type
REMARK                         _______ _______ _______ _____ _____    ______ ____
ROOT
ATOM      1  C   UNL     1      34.854 -19.929 -19.928  0.00  0.00    +0.009 C 
ATOM      2  C   UNL     1      33.470 -19.951 -19.229  0.00  0.00    -0.057 C 
ATOM      3  C   UNL     1      33.255 -21.292 -18.499  0.00  0.00    +0.009 C 
ATOM      4  C   UNL     1      35.986 -20.147 -18.896  0.00  0.00    +0.028 C 
ATOM      5  C   UNL     1      34.458 -21.729 -17.720  0.00  0.00    +0.025 C 
ATOM      6  C   UNL     1      35.684 -21.213 -17.884  0.00  0.00    -0.026 C 
ENDROOT
BRANCH   5  12
ATOM      7  O   UNL     1      33.327 -23.542 -16.809  0.00  0.00    -0.270 OA
ATOM      8  N   UNL     1      35.234 -22.845 -15.676  0.00  0.00    -0.267 N 
ATOM      9  N   UNL     1      37.602 -23.856 -14.694  0.00  0.00    -0.292 N 
ATOM     10  N   UNL     1      36.721 -25.525 -13.600  0.00  0.00    -0.132 NA
ATOM     11  N   UNL     1      38.100 -25.627 -13.535  0.00  0.00    -0.125 NA
ATOM     12  C   UNL     1      34.289 -22.780 -16.696  0.00  0.00    +0.245 C 
ATOM     13  C   UNL     1      36.353 -21.905 -15.466  0.00  0.00    +0.119 C 
ATOM     14  C   UNL     1      35.100 -23.888 -14.647  0.00  0.00    +0.160 C 
ATOM     15  C   UNL     1      37.679 -22.662 -15.507  0.00  0.00    +0.130 C 
ATOM     16  C   UNL     1      36.433 -24.451 -14.306  0.00  0.00    +0.164 A 
ATOM     17  C   UNL     1      38.610 -24.614 -14.200  0.00  0.00    +0.238 A 
BRANCH  17  21
ATOM     18  F   UNL     1      40.708 -25.253 -15.155  0.00  0.00    -0.163 F 
ATOM     19  F   UNL     1      40.279 -23.129 -15.055  0.00  0.00    -0.163 F 
ATOM     20  F   UNL     1      40.751 -24.227 -13.239  0.00  0.00    -0.163 F 
ATOM     21  C   UNL     1      40.037 -24.316 -14.408  0.00  0.00    +0.452 C 
ENDBRANCH  17  21
ENDBRANCH   5  12
BRANCH   1  25
ATOM     22  F   UNL     1      35.241 -19.940 -22.739  0.00  0.00    -0.204 F 
ATOM     23  F   UNL     1      35.490 -15.092 -20.220  0.00  0.00    -0.202 F 
ATOM     24  F   UNL     1      35.843 -15.251 -22.926  0.00  0.00    -0.202 F 
ATOM     25  C   UNL     1      35.120 -18.669 -20.739  0.00  0.00    +0.006 C 
ATOM     26  C   UNL     1      35.298 -18.756 -22.115  0.00  0.00    +0.138 C 
ATOM     27  C   UNL     1      35.183 -17.438 -20.094  0.00  0.00    +0.030 C 
ATOM     28  C   UNL     1      35.427 -16.281 -20.834  0.00  0.00    +0.167 C 
ATOM     29  C   UNL     1      35.542 -17.599 -22.856  0.00  0.00    +0.061 C 
ATOM     30  C   UNL     1      35.606 -16.362 -22.215  0.00  0.00    +0.170 C 
ENDBRANCH   1  25
BRANCH   2  31
ATOM     31  N   UNL     1      32.382 -19.741 -20.188  0.00  0.00    +0.382 N 
ATOM     32  H   UNL     1      32.446 -18.799 -20.575  0.00  0.00    -0.089 HD
ATOM     33  H   UNL     1      31.486 -19.854 -19.715  0.00  0.00    -0.089 HD
ATOM     34  H   UNL     1      32.458 -20.423 -20.943  0.00  0.00    -0.089 HD
ENDBRANCH   2  31
TORSDOF 4
ENDMDL
MODEL 5
REMARK VINA RESULT:     -11.8      3.902      4.573
REMARK  Name = 11974440
REMARK  4 active torsions:
REMARK  status: ('A' for Active; 'I' for Inactive)
REMARK    1  A    between atoms: C_1  and  C_25
REMARK    2  A    between atoms: C_2  and  N_31
REMARK    3  A    between atoms: C_5  and  C_12
REMARK    4  A    between atoms: C_17  and  C_21
REMARK                            x       y       z     vdW  Elec       q    Type
REMARK                         _______ _______ _______ _____ _____    ______ ____
ROOT
ATOM      1  C   UNL     1      35.305 -18.527 -20.523  0.00  0.00    +0.009 C 
ATOM      2  C   UNL     1      36.667 -19.264 -20.441  0.00  0.00    -0.057 C 
ATOM      3  C   UNL     1      36.879 -19.853 -19.031  0.00  0.00    +0.009 C 
ATOM      4  C   UNL     1      34.145 -19.493 -20.182  0.00  0.00    +0.028 C 
ATOM      5  C   UNL     1      35.658 -20.541 -18.500  0.00  0.00    +0.025 C 
ATOM      6  C   UNL     1      34.431 -20.394 -19.017  0.00  0.00    -0.026 C 
ENDROOT
BRANCH   5  12
ATOM      7  O   UNL     1      36.876 -21.419 -16.727  0.00  0.00    -0.270 OA
ATOM      8  N   UNL     1      34.737 -22.279 -17.031  0.00  0.00    -0.267 N 
ATOM      9  N   UNL     1      32.410 -22.715 -15.621  0.00  0.00    -0.292 N 
ATOM     10  N   UNL     1      33.334 -23.745 -13.935  0.00  0.00    -0.132 NA
ATOM     11  N   UNL     1      31.990 -23.559 -13.662  0.00  0.00    -0.125 NA
ATOM     12  C   UNL     1      35.811 -21.452 -17.347  0.00  0.00    +0.245 C 
ATOM     13  C   UNL     1      33.479 -22.399 -17.794  0.00  0.00    +0.119 C 
ATOM     14  C   UNL     1      34.854 -23.188 -15.880  0.00  0.00    +0.160 C 
ATOM     15  C   UNL     1      32.294 -22.044 -16.898  0.00  0.00    +0.130 C 
ATOM     16  C   UNL     1      33.576 -23.228 -15.122  0.00  0.00    +0.164 A 
ATOM     17  C   UNL     1      31.453 -22.938 -14.689  0.00  0.00    +0.238 A 
BRANCH  17  21
ATOM     18  F   UNL     1      29.660 -21.517 -13.990  0.00  0.00    -0.163 F 
ATOM     19  F   UNL     1      29.730 -22.052 -16.090  0.00  0.00    -0.163 F 
ATOM     20  F   UNL     1      29.153 -23.537 -14.612  0.00  0.00    -0.163 F 
ATOM     21  C   UNL     1      30.048 -22.522 -14.840  0.00  0.00    +0.452 C 
ENDBRANCH  17  21
ENDBRANCH   5  12
BRANCH   1  25
ATOM     22  F   UNL     1      35.772 -15.767 -20.982  0.00  0.00    -0.204 F 
ATOM     23  F   UNL     1      33.842 -18.688 -25.183  0.00  0.00    -0.202 F 
ATOM     24  F   UNL     1      34.339 -16.017 -25.484  0.00  0.00    -0.202 F 
ATOM     25  C   UNL     1      35.046 -17.849 -21.860  0.00  0.00    +0.006 C 
ATOM     26  C   UNL     1      35.301 -16.489 -22.008  0.00  0.00    +0.138 C 
ATOM     27  C   UNL     1      34.554 -18.595 -22.926  0.00  0.00    +0.030 C 
ATOM     28  C   UNL     1      34.316 -17.975 -24.152  0.00  0.00    +0.167 C 
ATOM     29  C   UNL     1      35.063 -15.869 -23.234  0.00  0.00    +0.061 C 
ATOM     30  C   UNL     1      34.570 -16.613 -24.307  0.00  0.00    +0.170 C 
ENDBRANCH   1  25
BRANCH   2  31
ATOM     31  N   UNL     1      37.781 -18.368 -20.764  0.00  0.00    +0.382 N 
ATOM     32  H   UNL     1      38.649 -18.904 -20.799  0.00  0.00    -0.089 HD
ATOM     33  H   UNL     1      37.856 -17.647 -20.049  0.00  0.00    -0.089 HD
ATOM     34  H   UNL     1      37.615 -17.933 -21.672  0.00  0.00    -0.089 HD
ENDBRANCH   2  31
TORSDOF 4
ENDMDL
MODEL 6
REMARK VINA RESULT:     -11.2      3.943     10.018
REMARK  Name = 11974440
REMARK  4 active torsions:
REMARK  status: ('A' for Active; 'I' for Inactive)
REMARK    1  A    between atoms: C_1  and  C_25
REMARK    2  A    between atoms: C_2  and  N_31
REMARK    3  A    between atoms: C_5  and  C_12
REMARK    4  A    between atoms: C_17  and  C_21
REMARK                            x       y       z     vdW  Elec       q    Type
REMARK                         _______ _______ _______ _____ _____    ______ ____
ROOT
ATOM      1  C   UNL     1      34.964 -21.094 -18.743  0.00  0.00    +0.009 C 
ATOM      2  C   UNL     1      36.235 -20.219 -18.889  0.00  0.00    -0.057 C 
ATOM      3  C   UNL     1      36.381 -19.715 -20.339  0.00  0.00    +0.009 C 
ATOM      4  C   UNL     1      33.704 -20.292 -19.144  0.00  0.00    +0.028 C 
ATOM      5  C   UNL     1      35.091 -19.208 -20.911  0.00  0.00    +0.025 C 
ATOM      6  C   UNL     1      33.888 -19.452 -20.375  0.00  0.00    -0.026 C 
ENDROOT
BRANCH   5  12
ATOM      7  O   UNL     1      35.031 -18.939 -23.217  0.00  0.00    -0.270 OA
ATOM      8  N   UNL     1      35.302 -17.000 -21.963  0.00  0.00    -0.267 N 
ATOM      9  N   UNL     1      34.187 -14.498 -21.662  0.00  0.00    -0.292 N 
ATOM     10  N   UNL     1      34.216 -13.961 -23.776  0.00  0.00    -0.132 NA
ATOM     11  N   UNL     1      33.559 -12.967 -23.073  0.00  0.00    -0.125 NA
ATOM     12  C   UNL     1      35.142 -18.373 -22.128  0.00  0.00    +0.245 C 
ATOM     13  C   UNL     1      35.515 -16.298 -20.681  0.00  0.00    +0.119 C 
ATOM     14  C   UNL     1      35.345 -16.139 -23.155  0.00  0.00    +0.160 C 
ATOM     15  C   UNL     1      34.402 -15.275 -20.461  0.00  0.00    +0.130 C 
ATOM     16  C   UNL     1      34.589 -14.883 -22.912  0.00  0.00    +0.164 A 
ATOM     17  C   UNL     1      33.553 -13.310 -21.804  0.00  0.00    +0.238 A 
BRANCH  17  21
ATOM     18  F   UNL     1      32.532 -11.297 -21.011  0.00  0.00    -0.163 F 
ATOM     19  F   UNL     1      31.850 -13.158 -20.131  0.00  0.00    -0.163 F 
ATOM     20  F   UNL     1      33.817 -12.379 -19.631  0.00  0.00    -0.163 F 
ATOM     21  C   UNL     1      32.956 -12.561 -20.684  0.00  0.00    +0.452 C 
ENDBRANCH  17  21
ENDBRANCH   5  12
BRANCH   1  25
ATOM     22  F   UNL     1      32.523 -22.232 -17.850  0.00  0.00    -0.204 F 
ATOM     23  F   UNL     1      36.709 -22.263 -14.331  0.00  0.00    -0.202 F 
ATOM     24  F   UNL     1      34.299 -23.327 -13.603  0.00  0.00    -0.202 F 
ATOM     25  C   UNL     1      34.782 -21.698 -17.358  0.00  0.00    +0.006 C 
ATOM     26  C   UNL     1      33.554 -22.238 -16.993  0.00  0.00    +0.138 C 
ATOM     27  C   UNL     1      35.850 -21.703 -16.466  0.00  0.00    +0.030 C 
ATOM     28  C   UNL     1      35.686 -22.255 -15.196  0.00  0.00    +0.167 C 
ATOM     29  C   UNL     1      33.390 -22.790 -15.723  0.00  0.00    +0.061 C 
ATOM     30  C   UNL     1      34.457 -22.799 -14.824  0.00  0.00    +0.170 C 
ENDBRANCH   1  25
BRANCH   2  31
ATOM     31  N   UNL     1      37.443 -20.959 -18.510  0.00  0.00    +0.382 N 
ATOM     32  H   UNL     1      37.761 -21.517 -19.302  0.00  0.00    -0.089 HD
ATOM     33  H   UNL     1      37.232 -21.573 -17.724  0.00  0.00    -0.089 HD
ATOM     34  H   UNL     1      38.175 -20.301 -18.242  0.00  0.00    -0.089 HD
ENDBRANCH   2  31
TORSDOF 4
ENDMDL
MODEL 7
REMARK VINA RESULT:     -11.2      1.564      2.058
REMARK  Name = 11974440
REMARK  4 active torsions:
REMARK  status: ('A' for Active; 'I' for Inactive)
REMARK    1  A    between atoms: C_1  and  C_25
REMARK    2  A    between atoms: C_2  and  N_31
REMARK    3  A    between atoms: C_5  and  C_12
REMARK    4  A    between atoms: C_17  and  C_21
REMARK                            x       y       z     vdW  Elec       q    Type
REMARK                         _______ _______ _______ _____ _____    ______ ____
ROOT
ATOM      1  C   UNL     1      34.836 -20.126 -18.778  0.00  0.00    +0.009 C 
ATOM      2  C   UNL     1      36.153 -20.778 -18.285  0.00  0.00    -0.057 C 
ATOM      3  C   UNL     1      35.963 -21.385 -16.880  0.00  0.00    +0.009 C 
ATOM      4  C   UNL     1      33.694 -21.170 -18.812  0.00  0.00    +0.028 C 
ATOM      5  C   UNL     1      34.687 -22.160 -16.750  0.00  0.00    +0.025 C 
ATOM      6  C   UNL     1      33.670 -22.078 -17.617  0.00  0.00    -0.026 C 
ENDROOT
BRANCH   5  12
ATOM      7  O   UNL     1      33.498 -23.737 -15.528  0.00  0.00    -0.270 OA
ATOM      8  N   UNL     1      35.595 -23.167 -14.704  0.00  0.00    -0.267 N 
ATOM      9  N   UNL     1      37.951 -24.353 -13.903  0.00  0.00    -0.292 N 
ATOM     10  N   UNL     1      37.047 -25.801 -12.546  0.00  0.00    -0.132 NA
ATOM     11  N   UNL     1      38.404 -26.057 -12.631  0.00  0.00    -0.125 NA
ATOM     12  C   UNL     1      34.540 -23.086 -15.608  0.00  0.00    +0.245 C 
ATOM     13  C   UNL     1      36.824 -22.349 -14.726  0.00  0.00    +0.119 C 
ATOM     14  C   UNL     1      35.485 -24.089 -13.562  0.00  0.00    +0.160 C 
ATOM     15  C   UNL     1      38.048 -23.255 -14.841  0.00  0.00    +0.130 C 
ATOM     16  C   UNL     1      36.785 -24.770 -13.322  0.00  0.00    +0.164 A 
ATOM     17  C   UNL     1      38.928 -25.175 -13.453  0.00  0.00    +0.238 A 
BRANCH  17  21
ATOM     18  F   UNL     1      40.530 -24.744 -15.177  0.00  0.00    -0.163 F 
ATOM     19  F   UNL     1      41.053 -24.114 -13.169  0.00  0.00    -0.163 F 
ATOM     20  F   UNL     1      41.049 -26.228 -13.676  0.00  0.00    -0.163 F 
ATOM     21  C   UNL     1      40.341 -25.066 -13.856  0.00  0.00    +0.452 C 
ENDBRANCH  17  21
ENDBRANCH   5  12
BRANCH   1  25
ATOM     22  F   UNL     1      32.666 -19.868 -20.589  0.00  0.00    -0.204 F 
ATOM     23  F   UNL     1      37.460 -17.739 -22.139  0.00  0.00    -0.202 F 
ATOM     24  F   UNL     1      35.285 -17.561 -23.785  0.00  0.00    -0.202 F 
ATOM     25  C   UNL     1      34.954 -19.434 -20.128  0.00  0.00    +0.006 C 
ATOM     26  C   UNL     1      33.844 -19.346 -20.961  0.00  0.00    +0.138 C 
ATOM     27  C   UNL     1      36.175 -18.895 -20.519  0.00  0.00    +0.030 C 
ATOM     28  C   UNL     1      36.287 -18.260 -21.756  0.00  0.00    +0.167 C 
ATOM     29  C   UNL     1      33.955 -18.712 -22.198  0.00  0.00    +0.061 C 
ATOM     30  C   UNL     1      35.177 -18.168 -22.595  0.00  0.00    +0.170 C 
ENDBRANCH   1  25
BRANCH   2  31
ATOM     31  N   UNL     1      37.251 -19.807 -18.249  0.00  0.00    +0.382 N 
ATOM     32  H   UNL     1      38.138 -20.302 -18.152  0.00  0.00    -0.089 HD
ATOM     33  H   UNL     1      37.124 -19.180 -17.456  0.00  0.00    -0.089 HD
ATOM     34  H   UNL     1      37.256 -19.268 -19.114  0.00  0.00    -0.089 HD
ENDBRANCH   2  31
TORSDOF 4
ENDMDL
MODEL 8
REMARK VINA RESULT:     -11.1      3.858     10.035
REMARK  Name = 11974440
REMARK  4 active torsions:
REMARK  status: ('A' for Active; 'I' for Inactive)
REMARK    1  A    between atoms: C_1  and  C_25
REMARK    2  A    between atoms: C_2  and  N_31
REMARK    3  A    between atoms: C_5  and  C_12
REMARK    4  A    between atoms: C_17  and  C_21
REMARK                            x       y       z     vdW  Elec       q    Type
REMARK                         _______ _______ _______ _____ _____    ______ ____
ROOT
ATOM      1  C   UNL     1      35.158 -20.506 -18.192  0.00  0.00    +0.009 C 
ATOM      2  C   UNL     1      33.960 -20.766 -19.141  0.00  0.00    -0.057 C 
ATOM      3  C   UNL     1      33.870 -19.661 -20.213  0.00  0.00    +0.009 C 
ATOM      4  C   UNL     1      36.481 -20.449 -18.992  0.00  0.00    +0.028 C 
ATOM      5  C   UNL     1      35.201 -19.325 -20.814  0.00  0.00    +0.025 C 
ATOM      6  C   UNL     1      36.376 -19.684 -20.279  0.00  0.00    -0.026 C 
ENDROOT
BRANCH   5  12
ATOM      7  O   UNL     1      35.105 -19.201 -23.131  0.00  0.00    -0.270 OA
ATOM      8  N   UNL     1      35.383 -17.186 -22.005  0.00  0.00    -0.267 N 
ATOM      9  N   UNL     1      34.257 -14.676 -21.844  0.00  0.00    -0.292 N 
ATOM     10  N   UNL     1      34.251 -14.273 -23.988  0.00  0.00    -0.132 NA
ATOM     11  N   UNL     1      33.599 -13.239 -23.337  0.00  0.00    -0.125 NA
ATOM     12  C   UNL     1      35.229 -18.568 -22.082  0.00  0.00    +0.245 C 
ATOM     13  C   UNL     1      35.610 -16.404 -20.773  0.00  0.00    +0.119 C 
ATOM     14  C   UNL     1      35.402 -16.402 -23.249  0.00  0.00    +0.160 C 
ATOM     15  C   UNL     1      34.494 -15.376 -20.600  0.00  0.00    +0.130 C 
ATOM     16  C   UNL     1      34.643 -15.136 -23.074  0.00  0.00    +0.164 A 
ATOM     17  C   UNL     1      33.614 -13.503 -22.049  0.00  0.00    +0.238 A 
BRANCH  17  21
ATOM     18  F   UNL     1      31.922 -13.244 -20.377  0.00  0.00    -0.163 F 
ATOM     19  F   UNL     1      33.884 -12.438 -19.925  0.00  0.00    -0.163 F 
ATOM     20  F   UNL     1      32.615 -11.448 -21.387  0.00  0.00    -0.163 F 
ATOM     21  C   UNL     1      33.029 -12.688 -20.970  0.00  0.00    +0.452 C 
ENDBRANCH  17  21
ENDBRANCH   5  12
BRANCH   1  25
ATOM     22  F   UNL     1      37.548 -20.910 -16.715  0.00  0.00    -0.204 F 
ATOM     23  F   UNL     1      33.223 -23.949 -15.314  0.00  0.00    -0.202 F 
ATOM     24  F   UNL     1      35.589 -24.233 -13.976  0.00  0.00    -0.202 F 
ATOM     25  C   UNL     1      35.277 -21.509 -17.054  0.00  0.00    +0.006 C 
ATOM     26  C   UNL     1      36.483 -21.650 -16.376  0.00  0.00    +0.138 C 
ATOM     27  C   UNL     1      34.174 -22.281 -16.701  0.00  0.00    +0.030 C 
ATOM     28  C   UNL     1      34.280 -23.202 -15.659  0.00  0.00    +0.167 C 
ATOM     29  C   UNL     1      36.589 -22.570 -15.334  0.00  0.00    +0.061 C 
ATOM     30  C   UNL     1      35.487 -23.347 -14.975  0.00  0.00    +0.170 C 
ENDBRANCH   1  25
BRANCH   2  31
ATOM     31  N   UNL     1      32.695 -20.829 -18.403  0.00  0.00    +0.382 N 
ATOM     32  H   UNL     1      32.152 -19.985 -18.588  0.00  0.00    -0.089 HD
ATOM     33  H   UNL     1      32.887 -20.896 -17.404  0.00  0.00    -0.089 HD
ATOM     34  H   UNL     1      32.165 -21.646 -18.705  0.00  0.00    -0.089 HD
ENDBRANCH   2  31
TORSDOF 4
ENDMDL
MODEL 9
REMARK VINA RESULT:     -10.8     10.018     15.784
REMARK  Name = 11974440
REMARK  4 active torsions:
REMARK  status: ('A' for Active; 'I' for Inactive)
REMARK    1  A    between atoms: C_1  and  C_25
REMARK    2  A    between atoms: C_2  and  N_31
REMARK    3  A    between atoms: C_5  and  C_12
REMARK    4  A    between atoms: C_17  and  C_21
REMARK                            x       y       z     vdW  Elec       q    Type
REMARK                         _______ _______ _______ _____ _____    ______ ____
ROOT
ATOM      1  C   UNL     1      33.201 -11.962 -22.777  0.00  0.00    +0.009 C 
ATOM      2  C   UNL     1      34.225 -10.804 -22.907  0.00  0.00    -0.057 C 
ATOM      3  C   UNL     1      33.530  -9.442 -22.706  0.00  0.00    +0.009 C 
ATOM      4  C   UNL     1      32.517 -11.927 -21.390  0.00  0.00    +0.028 C 
ATOM      5  C   UNL     1      32.587  -9.438 -21.541  0.00  0.00    +0.025 C 
ATOM      6  C   UNL     1      32.137 -10.547 -20.938  0.00  0.00    -0.026 C 
ENDROOT
BRANCH   5  12
ATOM      7  O   UNL     1      32.184  -7.969 -19.788  0.00  0.00    -0.270 OA
ATOM      8  N   UNL     1      31.693  -7.184 -21.920  0.00  0.00    -0.267 N 
ATOM      9  N   UNL     1      32.233  -5.041 -23.566  0.00  0.00    -0.292 N 
ATOM     10  N   UNL     1      31.716  -3.488 -22.123  0.00  0.00    -0.132 NA
ATOM     11  N   UNL     1      32.237  -2.888 -23.257  0.00  0.00    -0.125 NA
ATOM     12  C   UNL     1      32.135  -8.137 -21.007  0.00  0.00    +0.245 C 
ATOM     13  C   UNL     1      31.548  -7.377 -23.377  0.00  0.00    +0.119 C 
ATOM     14  C   UNL     1      31.247  -5.873 -21.422  0.00  0.00    +0.160 C 
ATOM     15  C   UNL     1      32.415  -6.364 -24.121  0.00  0.00    +0.130 C 
ATOM     16  C   UNL     1      31.722  -4.790 -22.322  0.00  0.00    +0.164 A 
ATOM     17  C   UNL     1      32.542  -3.840 -24.111  0.00  0.00    +0.238 A 
BRANCH  17  21
ATOM     18  F   UNL     1      34.218  -4.482 -25.693  0.00  0.00    -0.163 F 
ATOM     19  F   UNL     1      32.272  -3.946 -26.485  0.00  0.00    -0.163 F 
ATOM     20  F   UNL     1      33.583  -2.402 -25.694  0.00  0.00    -0.163 F 
ATOM     21  C   UNL     1      33.133  -3.676 -25.450  0.00  0.00    +0.452 C 
ENDBRANCH  17  21
ENDBRANCH   5  12
BRANCH   1  25
ATOM     22  F   UNL     1      32.939 -13.321 -25.254  0.00  0.00    -0.204 F 
ATOM     23  F   UNL     1      35.707 -15.887 -21.296  0.00  0.00    -0.202 F 
ATOM     24  F   UNL     1      35.378 -17.080 -23.733  0.00  0.00    -0.202 F 
ATOM     25  C   UNL     1      33.788 -13.341 -23.038  0.00  0.00    +0.006 C 
ATOM     26  C   UNL     1      33.618 -13.943 -24.280  0.00  0.00    +0.138 C 
ATOM     27  C   UNL     1      34.491 -13.991 -22.028  0.00  0.00    +0.030 C 
ATOM     28  C   UNL     1      35.030 -15.255 -22.264  0.00  0.00    +0.167 C 
ATOM     29  C   UNL     1      34.156 -15.208 -24.516  0.00  0.00    +0.061 C 
ATOM     30  C   UNL     1      34.863 -15.864 -23.508  0.00  0.00    +0.170 C 
ENDBRANCH   1  25
BRANCH   2  31
ATOM     31  N   UNL     1      34.890 -10.820 -24.214  0.00  0.00    +0.382 N 
ATOM     32  H   UNL     1      34.406 -10.184 -24.848  0.00  0.00    -0.089 HD
ATOM     33  H   UNL     1      34.866 -11.765 -24.595  0.00  0.00    -0.089 HD
ATOM     34  H   UNL     1      35.859 -10.520 -24.106  0.00  0.00    -0.089 HD
ENDBRANCH   2  31
TORSDOF 4
ENDMDL
