MODEL 1
REMARK VINA RESULT:     -12.4      0.000      0.000
REMARK  Name = 72734520
REMARK  6 active torsions:
REMARK  status: ('A' for Active; 'I' for Inactive)
REMARK    1  A    between atoms: N_1  and  C_19
REMARK    2  A    between atoms: C_8  and  O_28
REMARK    3  A    between atoms: C_14  and  N_20
REMARK    4  A    between atoms: O_28  and  C_29
REMARK    5  A    between atoms: C_32  and  N_36
REMARK    6  A    between atoms: C_37  and  C_39
REMARK                            x       y       z     vdW  Elec       q    Type
REMARK                         _______ _______ _______ _____ _____    ______ ____
ROOT
ATOM      1  N   UNL     1      37.123 -20.517 -17.603  0.00  0.00    -0.238 N 
ATOM      2  N   UNL     1      37.369 -21.888 -15.731  0.00  0.00    -0.316 NA
ATOM      3  N   UNL     1      35.350 -21.950 -17.089  0.00  0.00    -0.294 NA
ATOM      4  N   UNL     1      37.301 -23.424 -13.873  0.00  0.00    -0.289 N 
ATOM      5  C   UNL     1      36.584 -21.508 -16.760  0.00  0.00    +0.207 C 
ATOM      6  C   UNL     1      35.509 -23.381 -15.202  0.00  0.00    +0.181 C 
ATOM      7  C   UNL     1      36.767 -22.832 -14.987  0.00  0.00    +0.188 C 
ATOM      8  C   UNL     1      34.798 -22.902 -16.302  0.00  0.00    +0.281 C 
ATOM      9  C   UNL     1      35.292 -24.333 -14.174  0.00  0.00    +0.008 C 
ATOM     10  C   UNL     1      36.412 -24.339 -13.370  0.00  0.00    +0.060 C 
ATOM     11  H   UNL     1      38.021 -20.216 -17.337  0.00  0.00    +0.166 HD
ATOM     12  H   UNL     1      38.186 -23.224 -13.492  0.00  0.00    +0.154 HD
ENDROOT
BRANCH   1  19
ATOM     13  F   UNL     1      33.546 -19.645 -20.672  0.00  0.00    -0.203 F 
ATOM     14  C   UNL     1      35.646 -18.597 -21.036  0.00  0.00    +0.076 C 
ATOM     15  C   UNL     1      34.816 -19.439 -20.296  0.00  0.00    +0.155 C 
ATOM     16  C   UNL     1      36.967 -18.394 -20.635  0.00  0.00    +0.018 C 
ATOM     17  C   UNL     1      35.306 -20.077 -19.156  0.00  0.00    +0.046 C 
ATOM     18  C   UNL     1      37.457 -19.030 -19.495  0.00  0.00    +0.017 C 
ATOM     19  C   UNL     1      36.627 -19.872 -18.756  0.00  0.00    +0.061 C 
BRANCH  14  20
ATOM     20  N   UNL     1      35.158 -17.958 -22.180  0.00  0.00    -0.310 N 
ATOM     21  N   UNL     1      34.407 -16.644 -24.603  0.00  0.00    +0.388 N 
ATOM     22  C   UNL     1      35.573 -16.571 -22.425  0.00  0.00    +0.068 C 
ATOM     23  C   UNL     1      34.843 -18.746 -23.376  0.00  0.00    +0.068 C 
ATOM     24  C   UNL     1      34.588 -15.874 -23.366  0.00  0.00    -0.056 C 
ATOM     25  C   UNL     1      33.883 -17.978 -24.288  0.00  0.00    -0.056 C 
ATOM     26  C   UNL     1      33.507 -15.942 -25.517  0.00  0.00    -0.101 C 
ATOM     27  H   UNL     1      35.311 -16.746 -25.062  0.00  0.00    -0.080 HD
ENDBRANCH  14  20
ENDBRANCH   1  19
BRANCH   8  28
ATOM     28  O   UNL     1      33.546 -23.362 -16.624  0.00  0.00    -0.429 OA
BRANCH  28  29
ATOM     29  C   UNL     1      32.491 -22.918 -15.852  0.00  0.00    +0.149 C 
ATOM     30  C   UNL     1      31.292 -22.545 -16.459  0.00  0.00    +0.052 C 
ATOM     31  C   UNL     1      32.624 -22.844 -14.465  0.00  0.00    +0.038 C 
ATOM     32  C   UNL     1      30.225 -22.098 -15.680  0.00  0.00    +0.054 C 
ATOM     33  C   UNL     1      30.357 -22.024 -14.293  0.00  0.00    +0.015 C 
ATOM     34  C   UNL     1      31.556 -22.397 -13.686  0.00  0.00    +0.004 C 
BRANCH  32  36
ATOM     35  O   UNL     1      27.999 -23.784 -16.782  0.00  0.00    -0.270 OA
ATOM     36  N   UNL     1      29.025 -21.726 -16.287  0.00  0.00    -0.280 N 
ATOM     37  C   UNL     1      28.015 -22.559 -16.786  0.00  0.00    +0.250 C 
ATOM     38  H   UNL     1      28.869 -20.758 -16.376  0.00  0.00    +0.155 HD
BRANCH  37  39
ATOM     39  C   UNL     1      26.887 -21.772 -17.362  0.00  0.00    +0.058 C 
ATOM     40  C   UNL     1      26.249 -20.859 -16.624  0.00  0.00    +0.005 C 
ENDBRANCH  37  39
ENDBRANCH  32  36
ENDBRANCH  28  29
ENDBRANCH   8  28
TORSDOF 6
ENDMDL
MODEL 2
REMARK VINA RESULT:     -12.4      3.993     10.325
REMARK  Name = 72734520
REMARK  6 active torsions:
REMARK  status: ('A' for Active; 'I' for Inactive)
REMARK    1  A    between atoms: N_1  and  C_19
REMARK    2  A    between atoms: C_8  and  O_28
REMARK    3  A    between atoms: C_14  and  N_20
REMARK    4  A    between atoms: O_28  and  C_29
REMARK    5  A    between atoms: C_32  and  N_36
REMARK    6  A    between atoms: C_37  and  C_39
REMARK                            x       y       z     vdW  Elec       q    Type
REMARK                         _______ _______ _______ _____ _____    ______ ____
ROOT
ATOM      1  N   UNL     1      35.248 -20.096 -20.973  0.00  0.00    -0.238 N 
ATOM      2  N   UNL     1      35.010 -18.728 -22.848  0.00  0.00    -0.316 NA
ATOM      3  N   UNL     1      35.279 -17.787 -20.619  0.00  0.00    -0.294 NA
ATOM      4  N   UNL     1      34.788 -17.044 -24.559  0.00  0.00    -0.289 N 
ATOM      5  C   UNL     1      35.176 -18.797 -21.511  0.00  0.00    +0.207 C 
ATOM      6  C   UNL     1      35.042 -16.315 -22.466  0.00  0.00    +0.181 C 
ATOM      7  C   UNL     1      34.951 -17.450 -23.262  0.00  0.00    +0.188 C 
ATOM      8  C   UNL     1      35.213 -16.523 -21.098  0.00  0.00    +0.281 C 
ATOM      9  C   UNL     1      34.929 -15.195 -23.328  0.00  0.00    +0.008 C 
ATOM     10  C   UNL     1      34.773 -15.674 -24.611  0.00  0.00    +0.060 C 
ATOM     11  H   UNL     1      35.169 -20.810 -21.647  0.00  0.00    +0.166 HD
ATOM     12  H   UNL     1      34.696 -17.643 -25.335  0.00  0.00    +0.154 HD
ENDROOT
BRANCH   1  19
ATOM     13  F   UNL     1      33.495 -22.296 -17.092  0.00  0.00    -0.203 F 
ATOM     14  C   UNL     1      35.741 -21.525 -17.053  0.00  0.00    +0.076 C 
ATOM     15  C   UNL     1      34.519 -21.687 -17.706  0.00  0.00    +0.155 C 
ATOM     16  C   UNL     1      36.798 -20.887 -17.702  0.00  0.00    +0.018 C 
ATOM     17  C   UNL     1      34.356 -21.213 -19.008  0.00  0.00    +0.046 C 
ATOM     18  C   UNL     1      36.635 -20.413 -19.003  0.00  0.00    +0.017 C 
ATOM     19  C   UNL     1      35.414 -20.576 -19.656  0.00  0.00    +0.061 C 
BRANCH  14  20
ATOM     20  N   UNL     1      35.908 -21.998 -15.747  0.00  0.00    -0.310 N 
ATOM     21  N   UNL     1      36.266 -22.715 -13.005  0.00  0.00    +0.388 N 
ATOM     22  C   UNL     1      37.195 -21.754 -15.084  0.00  0.00    +0.068 C 
ATOM     23  C   UNL     1      34.747 -22.103 -14.857  0.00  0.00    +0.068 C 
ATOM     24  C   UNL     1      37.403 -22.742 -13.934  0.00  0.00    -0.056 C 
ATOM     25  C   UNL     1      35.034 -23.079 -13.713  0.00  0.00    -0.056 C 
ATOM     26  C   UNL     1      36.501 -23.622 -11.882  0.00  0.00    -0.101 C 
ATOM     27  H   UNL     1      36.166 -21.770 -12.636  0.00  0.00    -0.080 HD
ENDBRANCH  14  20
ENDBRANCH   1  19
BRANCH   8  28
ATOM     28  O   UNL     1      35.318 -15.487 -20.205  0.00  0.00    -0.429 OA
BRANCH  28  29
ATOM     29  C   UNL     1      34.381 -14.477 -20.295  0.00  0.00    +0.149 C 
ATOM     30  C   UNL     1      34.607 -13.391 -21.141  0.00  0.00    +0.052 C 
ATOM     31  C   UNL     1      33.209 -14.542 -19.542  0.00  0.00    +0.038 C 
ATOM     32  C   UNL     1      33.660 -12.371 -21.234  0.00  0.00    +0.054 C 
ATOM     33  C   UNL     1      32.488 -12.436 -20.481  0.00  0.00    +0.015 C 
ATOM     34  C   UNL     1      32.262 -13.522 -19.636  0.00  0.00    +0.004 C 
BRANCH  32  36
ATOM     35  O   UNL     1      33.796 -12.238 -24.231  0.00  0.00    -0.270 OA
ATOM     36  N   UNL     1      33.886 -11.285 -22.081  0.00  0.00    -0.280 N 
ATOM     37  C   UNL     1      33.939 -11.279 -23.482  0.00  0.00    +0.250 C 
ATOM     38  H   UNL     1      34.024 -10.416 -21.640  0.00  0.00    +0.155 HD
BRANCH  37  39
ATOM     39  C   UNL     1      34.203  -9.912 -24.017  0.00  0.00    +0.058 C 
ATOM     40  C   UNL     1      35.281  -9.673 -24.768  0.00  0.00    +0.005 C 
ENDBRANCH  37  39
ENDBRANCH  32  36
ENDBRANCH  28  29
ENDBRANCH   8  28
TORSDOF 6
ENDMDL
MODEL 3
REMARK VINA RESULT:     -12.2      4.245     10.235
REMARK  Name = 72734520
REMARK  6 active torsions:
REMARK  status: ('A' for Active; 'I' for Inactive)
REMARK    1  A    between atoms: N_1  and  C_19
REMARK    2  A    between atoms: C_8  and  O_28
REMARK    3  A    between atoms: C_14  and  N_20
REMARK    4  A    between atoms: O_28  and  C_29
REMARK    5  A    between atoms: C_32  and  N_36
REMARK    6  A    between atoms: C_37  and  C_39
REMARK                            x       y       z     vdW  Elec       q    Type
REMARK                         _______ _______ _______ _____ _____    ______ ____
ROOT
ATOM      1  N   UNL     1      35.139 -19.721 -21.412  0.00  0.00    -0.238 N 
ATOM      2  N   UNL     1      34.874 -18.302 -23.245  0.00  0.00    -0.316 NA
ATOM      3  N   UNL     1      35.199 -17.422 -20.999  0.00  0.00    -0.294 NA
ATOM      4  N   UNL     1      34.631 -16.571 -24.907  0.00  0.00    -0.289 N 
ATOM      5  C   UNL     1      35.067 -18.408 -21.914  0.00  0.00    +0.207 C 
ATOM      6  C   UNL     1      34.936 -15.900 -22.801  0.00  0.00    +0.181 C 
ATOM      7  C   UNL     1      34.817 -17.013 -23.624  0.00  0.00    +0.188 C 
ATOM      8  C   UNL     1      35.134 -16.146 -21.443  0.00  0.00    +0.281 C 
ATOM      9  C   UNL     1      34.815 -14.757 -23.631  0.00  0.00    +0.008 C 
ATOM     10  C   UNL     1      34.627 -15.200 -24.923  0.00  0.00    +0.060 C 
ATOM     11  H   UNL     1      35.039 -20.416 -22.102  0.00  0.00    +0.166 HD
ATOM     12  H   UNL     1      34.517 -17.149 -25.696  0.00  0.00    +0.154 HD
ENDROOT
BRANCH   1  19
ATOM     13  F   UNL     1      33.360 -21.627 -17.389  0.00  0.00    -0.203 F 
ATOM     14  C   UNL     1      35.701 -21.256 -17.542  0.00  0.00    +0.076 C 
ATOM     15  C   UNL     1      34.420 -21.198 -18.089  0.00  0.00    +0.155 C 
ATOM     16  C   UNL     1      36.795 -20.804 -18.279  0.00  0.00    +0.018 C 
ATOM     17  C   UNL     1      34.233 -20.688 -19.375  0.00  0.00    +0.046 C 
ATOM     18  C   UNL     1      36.609 -20.295 -19.564  0.00  0.00    +0.017 C 
ATOM     19  C   UNL     1      35.328 -20.237 -20.112  0.00  0.00    +0.061 C 
BRANCH  14  20
ATOM     20  N   UNL     1      35.892 -21.765 -16.252  0.00  0.00    -0.310 N 
ATOM     21  N   UNL     1      36.308 -23.039 -13.730  0.00  0.00    +0.388 N 
ATOM     22  C   UNL     1      34.891 -22.703 -15.727  0.00  0.00    +0.068 C 
ATOM     23  C   UNL     1      37.251 -21.928 -15.728  0.00  0.00    +0.068 C 
ATOM     24  C   UNL     1      34.948 -22.747 -14.198  0.00  0.00    -0.056 C 
ATOM     25  C   UNL     1      37.231 -21.999 -14.198  0.00  0.00    -0.056 C 
ATOM     26  C   UNL     1      36.339 -23.133 -12.270  0.00  0.00    -0.101 C 
ATOM     27  H   UNL     1      36.603 -23.936 -14.113  0.00  0.00    -0.080 HD
ENDBRANCH  14  20
ENDBRANCH   1  19
BRANCH   8  28
ATOM     28  O   UNL     1      35.268 -15.134 -20.525  0.00  0.00    -0.429 OA
BRANCH  28  29
ATOM     29  C   UNL     1      34.187 -14.294 -20.348  0.00  0.00    +0.149 C 
ATOM     30  C   UNL     1      34.053 -13.155 -21.142  0.00  0.00    +0.052 C 
ATOM     31  C   UNL     1      33.228 -14.584 -19.378  0.00  0.00    +0.038 C 
ATOM     32  C   UNL     1      32.960 -12.306 -20.965  0.00  0.00    +0.054 C 
ATOM     33  C   UNL     1      32.002 -12.596 -19.994  0.00  0.00    +0.015 C 
ATOM     34  C   UNL     1      32.135 -13.736 -19.201  0.00  0.00    +0.004 C 
BRANCH  32  36
ATOM     35  O   UNL     1      31.978  -9.555 -20.269  0.00  0.00    -0.270 OA
ATOM     36  N   UNL     1      32.826 -11.166 -21.760  0.00  0.00    -0.280 N 
ATOM     37  C   UNL     1      32.360  -9.900 -21.381  0.00  0.00    +0.250 C 
ATOM     38  H   UNL     1      33.093 -11.264 -22.702  0.00  0.00    +0.155 HD
BRANCH  37  39
ATOM     39  C   UNL     1      32.369  -8.946 -22.527  0.00  0.00    +0.058 C 
ATOM     40  C   UNL     1      33.294  -9.044 -23.486  0.00  0.00    +0.005 C 
ENDBRANCH  37  39
ENDBRANCH  32  36
ENDBRANCH  28  29
ENDBRANCH   8  28
TORSDOF 6
ENDMDL
MODEL 4
REMARK VINA RESULT:     -11.4      5.155     11.043
REMARK  Name = 72734520
REMARK  6 active torsions:
REMARK  status: ('A' for Active; 'I' for Inactive)
REMARK    1  A    between atoms: N_1  and  C_19
REMARK    2  A    between atoms: C_8  and  O_28
REMARK    3  A    between atoms: C_14  and  N_20
REMARK    4  A    between atoms: O_28  and  C_29
REMARK    5  A    between atoms: C_32  and  N_36
REMARK    6  A    between atoms: C_37  and  C_39
REMARK                            x       y       z     vdW  Elec       q    Type
REMARK                         _______ _______ _______ _____ _____    ______ ____
ROOT
ATOM      1  N   UNL     1      34.651 -17.638 -23.079  0.00  0.00    -0.238 N 
ATOM      2  N   UNL     1      34.291 -15.906 -24.602  0.00  0.00    -0.316 NA
ATOM      3  N   UNL     1      34.660 -15.458 -22.237  0.00  0.00    -0.294 NA
ATOM      4  N   UNL     1      33.951 -13.901 -25.897  0.00  0.00    -0.289 N 
ATOM      5  C   UNL     1      34.528 -16.256 -23.321  0.00  0.00    +0.207 C 
ATOM      6  C   UNL     1      34.302 -13.632 -23.710  0.00  0.00    +0.181 C 
ATOM      7  C   UNL     1      34.188 -14.572 -24.727  0.00  0.00    +0.188 C 
ATOM      8  C   UNL     1      34.547 -14.124 -22.429  0.00  0.00    +0.281 C 
ATOM      9  C   UNL     1      34.124 -12.357 -24.304  0.00  0.00    +0.008 C 
ATOM     10  C   UNL     1      33.909 -12.553 -25.652  0.00  0.00    +0.060 C 
ATOM     11  H   UNL     1      34.549 -18.192 -23.887  0.00  0.00    +0.166 HD
ATOM     12  H   UNL     1      33.829 -14.322 -26.779  0.00  0.00    +0.154 HD
ENDROOT
BRANCH   1  19
ATOM     13  F   UNL     1      37.658 -19.223 -19.700  0.00  0.00    -0.203 F 
ATOM     14  C   UNL     1      35.373 -19.861 -19.588  0.00  0.00    +0.076 C 
ATOM     15  C   UNL     1      36.418 -19.178 -20.208  0.00  0.00    +0.155 C 
ATOM     16  C   UNL     1      34.088 -19.807 -20.129  0.00  0.00    +0.018 C 
ATOM     17  C   UNL     1      36.178 -18.438 -21.367  0.00  0.00    +0.046 C 
ATOM     18  C   UNL     1      33.848 -19.069 -21.287  0.00  0.00    +0.017 C 
ATOM     19  C   UNL     1      34.893 -18.385 -21.907  0.00  0.00    +0.061 C 
BRANCH  14  20
ATOM     20  N   UNL     1      35.610 -20.604 -18.427  0.00  0.00    -0.310 N 
ATOM     21  N   UNL     1      36.136 -22.326 -16.209  0.00  0.00    +0.388 N 
ATOM     22  C   UNL     1      34.675 -21.687 -18.098  0.00  0.00    +0.068 C 
ATOM     23  C   UNL     1      36.984 -20.784 -17.947  0.00  0.00    +0.068 C 
ATOM     24  C   UNL     1      34.754 -22.031 -16.609  0.00  0.00    -0.056 C 
ATOM     25  C   UNL     1      36.989 -21.159 -16.462  0.00  0.00    -0.056 C 
ATOM     26  C   UNL     1      36.192 -22.706 -14.798  0.00  0.00    -0.101 C 
ATOM     27  H   UNL     1      36.478 -23.110 -16.764  0.00  0.00    -0.080 HD
ENDBRANCH  14  20
ENDBRANCH   1  19
BRANCH   8  28
ATOM     28  O   UNL     1      34.680 -13.300 -21.339  0.00  0.00    -0.429 OA
BRANCH  28  29
ATOM     29  C   UNL     1      33.555 -12.624 -20.916  0.00  0.00    +0.149 C 
ATOM     30  C   UNL     1      33.203 -11.414 -21.515  0.00  0.00    +0.052 C 
ATOM     31  C   UNL     1      32.768 -13.149 -19.891  0.00  0.00    +0.038 C 
ATOM     32  C   UNL     1      32.064 -10.730 -21.089  0.00  0.00    +0.054 C 
ATOM     33  C   UNL     1      31.277 -11.255 -20.064  0.00  0.00    +0.015 C 
ATOM     34  C   UNL     1      31.629 -12.465 -19.466  0.00  0.00    +0.004 C 
BRANCH  32  36
ATOM     35  O   UNL     1      32.784  -7.910 -20.351  0.00  0.00    -0.270 OA
ATOM     36  N   UNL     1      31.711  -9.521 -21.690  0.00  0.00    -0.280 N 
ATOM     37  C   UNL     1      32.078  -8.225 -21.302  0.00  0.00    +0.250 C 
ATOM     38  H   UNL     1      31.134  -9.586 -22.485  0.00  0.00    +0.155 HD
BRANCH  37  39
ATOM     39  C   UNL     1      31.494  -7.193 -22.207  0.00  0.00    +0.058 C 
ATOM     40  C   UNL     1      31.820  -7.163 -23.502  0.00  0.00    +0.005 C 
ENDBRANCH  37  39
ENDBRANCH  32  36
ENDBRANCH  28  29
ENDBRANCH   8  28
TORSDOF 6
ENDMDL
MODEL 5
REMARK VINA RESULT:     -11.2      6.749     11.837
REMARK  Name = 72734520
REMARK  6 active torsions:
REMARK  status: ('A' for Active; 'I' for Inactive)
REMARK    1  A    between atoms: N_1  and  C_19
REMARK    2  A    between atoms: C_8  and  O_28
REMARK    3  A    between atoms: C_14  and  N_20
REMARK    4  A    between atoms: O_28  and  C_29
REMARK    5  A    between atoms: C_32  and  N_36
REMARK    6  A    between atoms: C_37  and  C_39
REMARK                            x       y       z     vdW  Elec       q    Type
REMARK                         _______ _______ _______ _____ _____    ______ ____
ROOT
ATOM      1  N   UNL     1      35.284 -14.110 -22.922  0.00  0.00    -0.238 N 
ATOM      2  N   UNL     1      34.949 -11.944 -23.724  0.00  0.00    -0.316 NA
ATOM      3  N   UNL     1      33.465 -12.922 -22.061  0.00  0.00    -0.294 NA
ATOM      4  N   UNL     1      34.323  -9.698 -24.339  0.00  0.00    -0.289 N 
ATOM      5  C   UNL     1      34.524 -12.924 -22.901  0.00  0.00    +0.207 C 
ATOM      6  C   UNL     1      33.043 -10.713 -22.819  0.00  0.00    +0.181 C 
ATOM      7  C   UNL     1      34.159 -10.860 -23.633  0.00  0.00    +0.188 C 
ATOM      8  C   UNL     1      32.709 -11.802 -22.015  0.00  0.00    +0.281 C 
ATOM      9  C   UNL     1      32.529  -9.413 -23.054  0.00  0.00    +0.008 C 
ATOM     10  C   UNL     1      33.337  -8.810 -23.994  0.00  0.00    +0.060 C 
ATOM     11  H   UNL     1      36.047 -14.081 -23.543  0.00  0.00    +0.166 HD
ATOM     12  H   UNL     1      35.039  -9.526 -24.992  0.00  0.00    +0.154 HD
ENDROOT
BRANCH   1  19
ATOM     13  F   UNL     1      34.889 -18.887 -22.930  0.00  0.00    -0.203 F 
ATOM     14  C   UNL     1      34.935 -17.746 -20.847  0.00  0.00    +0.076 C 
ATOM     15  C   UNL     1      34.968 -17.739 -22.241  0.00  0.00    +0.155 C 
ATOM     16  C   UNL     1      35.016 -16.545 -20.142  0.00  0.00    +0.018 C 
ATOM     17  C   UNL     1      35.085 -16.532 -22.930  0.00  0.00    +0.046 C 
ATOM     18  C   UNL     1      35.133 -15.338 -20.831  0.00  0.00    +0.017 C 
ATOM     19  C   UNL     1      35.167 -15.331 -22.225  0.00  0.00    +0.061 C 
BRANCH  14  20
ATOM     20  N   UNL     1      34.817 -18.955 -20.153  0.00  0.00    -0.310 N 
ATOM     21  N   UNL     1      34.540 -21.539 -18.967  0.00  0.00    +0.388 N 
ATOM     22  C   UNL     1      33.522 -19.647 -20.190  0.00  0.00    +0.068 C 
ATOM     23  C   UNL     1      35.992 -19.816 -19.985  0.00  0.00    +0.068 C 
ATOM     24  C   UNL     1      33.398 -20.617 -19.012  0.00  0.00    -0.056 C 
ATOM     25  C   UNL     1      35.788 -20.781 -18.815  0.00  0.00    -0.056 C 
ATOM     26  C   UNL     1      34.384 -22.496 -17.871  0.00  0.00    -0.101 C 
ATOM     27  H   UNL     1      34.577 -22.060 -19.842  0.00  0.00    -0.080 HD
ENDBRANCH  14  20
ENDBRANCH   1  19
BRANCH   8  28
ATOM     28  O   UNL     1      31.630 -11.783 -21.166  0.00  0.00    -0.429 OA
BRANCH  28  29
ATOM     29  C   UNL     1      31.733 -11.005 -20.031  0.00  0.00    +0.149 C 
ATOM     30  C   UNL     1      31.750  -9.614 -20.140  0.00  0.00    +0.052 C 
ATOM     31  C   UNL     1      31.817 -11.607 -18.776  0.00  0.00    +0.038 C 
ATOM     32  C   UNL     1      31.852  -8.826 -18.993  0.00  0.00    +0.054 C 
ATOM     33  C   UNL     1      31.936  -9.428 -17.738  0.00  0.00    +0.015 C 
ATOM     34  C   UNL     1      31.918 -10.818 -17.629  0.00  0.00    +0.004 C 
BRANCH  32  36
ATOM     35  O   UNL     1      33.742  -7.013 -20.463  0.00  0.00    -0.270 OA
ATOM     36  N   UNL     1      31.869  -7.434 -19.103  0.00  0.00    -0.280 N 
ATOM     37  C   UNL     1      32.780  -6.635 -19.806  0.00  0.00    +0.250 C 
ATOM     38  H   UNL     1      31.152  -6.956 -18.627  0.00  0.00    +0.155 HD
BRANCH  37  39
ATOM     39  C   UNL     1      32.454  -5.185 -19.676  0.00  0.00    +0.058 C 
ATOM     40  C   UNL     1      31.352  -4.683 -20.241  0.00  0.00    +0.005 C 
ENDBRANCH  37  39
ENDBRANCH  32  36
ENDBRANCH  28  29
ENDBRANCH   8  28
TORSDOF 6
ENDMDL
MODEL 6
REMARK VINA RESULT:     -10.9      1.565      2.033
REMARK  Name = 72734520
REMARK  6 active torsions:
REMARK  status: ('A' for Active; 'I' for Inactive)
REMARK    1  A    between atoms: N_1  and  C_19
REMARK    2  A    between atoms: C_8  and  O_28
REMARK    3  A    between atoms: C_14  and  N_20
REMARK    4  A    between atoms: O_28  and  C_29
REMARK    5  A    between atoms: C_32  and  N_36
REMARK    6  A    between atoms: C_37  and  C_39
REMARK                            x       y       z     vdW  Elec       q    Type
REMARK                         _______ _______ _______ _____ _____    ______ ____
ROOT
ATOM      1  N   UNL     1      36.924 -21.900 -17.005  0.00  0.00    -0.238 N 
ATOM      2  N   UNL     1      36.973 -23.151 -15.035  0.00  0.00    -0.316 NA
ATOM      3  N   UNL     1      35.026 -21.822 -15.643  0.00  0.00    -0.294 NA
ATOM      4  N   UNL     1      36.699 -24.317 -12.942  0.00  0.00    -0.289 N 
ATOM      5  C   UNL     1      36.271 -22.315 -15.828  0.00  0.00    +0.207 C 
ATOM      6  C   UNL     1      34.984 -23.060 -13.619  0.00  0.00    +0.181 C 
ATOM      7  C   UNL     1      36.267 -23.485 -13.941  0.00  0.00    +0.188 C 
ATOM      8  C   UNL     1      34.367 -22.197 -14.523  0.00  0.00    +0.281 C 
ATOM      9  C   UNL     1      34.646 -23.664 -12.381  0.00  0.00    +0.008 C 
ATOM     10  C   UNL     1      35.721 -24.432 -11.988  0.00  0.00    +0.060 C 
ATOM     11  H   UNL     1      37.828 -22.275 -17.110  0.00  0.00    +0.166 HD
ATOM     12  H   UNL     1      37.576 -24.763 -12.914  0.00  0.00    +0.154 HD
ENDROOT
BRANCH   1  19
ATOM     13  F   UNL     1      38.019 -18.645 -20.348  0.00  0.00    -0.203 F 
ATOM     14  C   UNL     1      35.767 -19.375 -20.157  0.00  0.00    +0.076 C 
ATOM     15  C   UNL     1      37.099 -19.412 -19.746  0.00  0.00    +0.155 C 
ATOM     16  C   UNL     1      34.819 -20.176 -19.520  0.00  0.00    +0.018 C 
ATOM     17  C   UNL     1      37.484 -20.251 -18.699  0.00  0.00    +0.046 C 
ATOM     18  C   UNL     1      35.203 -21.015 -18.474  0.00  0.00    +0.017 C 
ATOM     19  C   UNL     1      36.535 -21.052 -18.063  0.00  0.00    +0.061 C 
BRANCH  14  20
ATOM     20  N   UNL     1      35.378 -18.534 -21.205  0.00  0.00    -0.310 N 
ATOM     21  N   UNL     1      34.346 -16.818 -23.242  0.00  0.00    +0.388 N 
ATOM     22  C   UNL     1      34.401 -19.046 -22.173  0.00  0.00    +0.068 C 
ATOM     23  C   UNL     1      35.376 -17.081 -21.010  0.00  0.00    +0.068 C 
ATOM     24  C   UNL     1      34.480 -18.260 -23.484  0.00  0.00    -0.056 C 
ATOM     25  C   UNL     1      35.424 -16.358 -22.358  0.00  0.00    -0.056 C 
ATOM     26  C   UNL     1      34.369 -16.081 -24.505  0.00  0.00    -0.101 C 
ATOM     27  H   UNL     1      33.451 -16.643 -22.787  0.00  0.00    -0.080 HD
ENDBRANCH  14  20
ENDBRANCH   1  19
BRANCH   8  28
ATOM     28  O   UNL     1      33.101 -21.705 -14.322  0.00  0.00    -0.429 OA
BRANCH  28  29
ATOM     29  C   UNL     1      32.044 -22.536 -14.634  0.00  0.00    +0.149 C 
ATOM     30  C   UNL     1      31.023 -22.081 -15.470  0.00  0.00    +0.052 C 
ATOM     31  C   UNL     1      31.995 -23.829 -14.114  0.00  0.00    +0.038 C 
ATOM     32  C   UNL     1      29.955 -22.920 -15.786  0.00  0.00    +0.054 C 
ATOM     33  C   UNL     1      29.907 -24.214 -15.267  0.00  0.00    +0.015 C 
ATOM     34  C   UNL     1      30.927 -24.669 -14.431  0.00  0.00    +0.004 C 
BRANCH  32  36
ATOM     35  O   UNL     1      27.130 -22.124 -15.153  0.00  0.00    -0.270 OA
ATOM     36  N   UNL     1      28.935 -22.466 -16.623  0.00  0.00    -0.280 N 
ATOM     37  C   UNL     1      27.627 -22.105 -16.273  0.00  0.00    +0.250 C 
ATOM     38  H   UNL     1      29.163 -22.388 -17.578  0.00  0.00    +0.155 HD
BRANCH  37  39
ATOM     39  C   UNL     1      26.839 -21.669 -17.462  0.00  0.00    +0.058 C 
ATOM     40  C   UNL     1      26.017 -20.618 -17.384  0.00  0.00    +0.005 C 
ENDBRANCH  37  39
ENDBRANCH  32  36
ENDBRANCH  28  29
ENDBRANCH   8  28
TORSDOF 6
ENDMDL
MODEL 7
REMARK VINA RESULT:     -10.0      8.530     13.057
REMARK  Name = 72734520
REMARK  6 active torsions:
REMARK  status: ('A' for Active; 'I' for Inactive)
REMARK    1  A    between atoms: N_1  and  C_19
REMARK    2  A    between atoms: C_8  and  O_28
REMARK    3  A    between atoms: C_14  and  N_20
REMARK    4  A    between atoms: O_28  and  C_29
REMARK    5  A    between atoms: C_32  and  N_36
REMARK    6  A    between atoms: C_37  and  C_39
REMARK                            x       y       z     vdW  Elec       q    Type
REMARK                         _______ _______ _______ _____ _____    ______ ____
ROOT
ATOM      1  N   UNL     1      31.901  -8.495 -21.733  0.00  0.00    -0.238 N 
ATOM      2  N   UNL     1      31.650 -10.453 -20.489  0.00  0.00    -0.316 NA
ATOM      3  N   UNL     1      33.261 -10.306 -22.308  0.00  0.00    -0.294 NA
ATOM      4  N   UNL     1      31.641 -12.611 -19.412  0.00  0.00    -0.289 N 
ATOM      5  C   UNL     1      32.292  -9.827 -21.495  0.00  0.00    +0.207 C 
ATOM      6  C   UNL     1      33.075 -12.340 -21.100  0.00  0.00    +0.181 C 
ATOM      7  C   UNL     1      32.092 -11.714 -20.345  0.00  0.00    +0.188 C 
ATOM      8  C   UNL     1      33.663 -11.582 -22.112  0.00  0.00    +0.281 C 
ATOM      9  C   UNL     1      33.210 -13.658 -20.594  0.00  0.00    +0.008 C 
ATOM     10  C   UNL     1      32.314 -13.797 -19.555  0.00  0.00    +0.060 C 
ATOM     11  H   UNL     1      31.195  -8.175 -21.126  0.00  0.00    +0.166 HD
ATOM     12  H   UNL     1      30.942 -12.431 -18.743  0.00  0.00    +0.154 HD
ENDROOT
BRANCH   1  19
ATOM     13  F   UNL     1      30.930  -4.803 -24.633  0.00  0.00    -0.203 F 
ATOM     14  C   UNL     1      33.159  -5.617 -24.523  0.00  0.00    +0.076 C 
ATOM     15  C   UNL     1      31.822  -5.667 -24.128  0.00  0.00    +0.155 C 
ATOM     16  C   UNL     1      34.077  -6.523 -23.992  0.00  0.00    +0.018 C 
ATOM     17  C   UNL     1      31.404  -6.623 -23.201  0.00  0.00    +0.046 C 
ATOM     18  C   UNL     1      33.659  -7.478 -23.066  0.00  0.00    +0.017 C 
ATOM     19  C   UNL     1      32.323  -7.528 -22.670  0.00  0.00    +0.061 C 
BRANCH  14  20
ATOM     20  N   UNL     1      33.580  -4.660 -25.453  0.00  0.00    -0.310 N 
ATOM     21  N   UNL     1      34.598  -2.614 -27.167  0.00  0.00    +0.388 N 
ATOM     22  C   UNL     1      33.268  -3.252 -25.183  0.00  0.00    +0.068 C 
ATOM     23  C   UNL     1      34.789  -4.901 -26.247  0.00  0.00    +0.068 C 
ATOM     24  C   UNL     1      33.315  -2.434 -26.476  0.00  0.00    -0.056 C 
ATOM     25  C   UNL     1      34.787  -4.029 -27.506  0.00  0.00    -0.056 C 
ATOM     26  C   UNL     1      34.652  -1.786 -28.372  0.00  0.00    -0.101 C 
ATOM     27  H   UNL     1      35.350  -2.321 -26.545  0.00  0.00    -0.080 HD
ENDBRANCH  14  20
ENDBRANCH   1  19
BRANCH   8  28
ATOM     28  O   UNL     1      34.646 -12.084 -22.928  0.00  0.00    -0.429 OA
BRANCH  28  29
ATOM     29  C   UNL     1      34.491 -13.377 -23.385  0.00  0.00    +0.149 C 
ATOM     30  C   UNL     1      35.172 -14.422 -22.760  0.00  0.00    +0.052 C 
ATOM     31  C   UNL     1      33.653 -13.639 -24.469  0.00  0.00    +0.038 C 
ATOM     32  C   UNL     1      35.014 -15.730 -23.220  0.00  0.00    +0.054 C 
ATOM     33  C   UNL     1      34.177 -15.992 -24.304  0.00  0.00    +0.015 C 
ATOM     34  C   UNL     1      33.495 -14.947 -24.928  0.00  0.00    +0.004 C 
BRANCH  32  36
ATOM     35  O   UNL     1      35.346 -16.365 -20.304  0.00  0.00    -0.270 OA
ATOM     36  N   UNL     1      35.694 -16.776 -22.595  0.00  0.00    -0.280 N 
ATOM     37  C   UNL     1      35.818 -17.026 -21.221  0.00  0.00    +0.250 C 
ATOM     38  H   UNL     1      36.142 -17.417 -23.192  0.00  0.00    +0.155 HD
BRANCH  37  39
ATOM     39  C   UNL     1      36.628 -18.250 -20.956  0.00  0.00    +0.058 C 
ATOM     40  C   UNL     1      36.145 -19.231 -20.188  0.00  0.00    +0.005 C 
ENDBRANCH  37  39
ENDBRANCH  32  36
ENDBRANCH  28  29
ENDBRANCH   8  28
TORSDOF 6
ENDMDL
MODEL 8
REMARK VINA RESULT:      -9.6      8.971     12.898
REMARK  Name = 72734520
REMARK  6 active torsions:
REMARK  status: ('A' for Active; 'I' for Inactive)
REMARK    1  A    between atoms: N_1  and  C_19
REMARK    2  A    between atoms: C_8  and  O_28
REMARK    3  A    between atoms: C_14  and  N_20
REMARK    4  A    between atoms: O_28  and  C_29
REMARK    5  A    between atoms: C_32  and  N_36
REMARK    6  A    between atoms: C_37  and  C_39
REMARK                            x       y       z     vdW  Elec       q    Type
REMARK                         _______ _______ _______ _____ _____    ______ ____
ROOT
ATOM      1  N   UNL     1      34.589 -11.225 -23.841  0.00  0.00    -0.238 N 
ATOM      2  N   UNL     1      35.127 -13.432 -23.309  0.00  0.00    -0.316 NA
ATOM      3  N   UNL     1      34.050 -11.966 -21.692  0.00  0.00    -0.294 NA
ATOM      4  N   UNL     1      35.547 -15.642 -22.441  0.00  0.00    -0.289 N 
ATOM      5  C   UNL     1      34.588 -12.267 -22.894  0.00  0.00    +0.207 C 
ATOM      6  C   UNL     1      34.561 -14.195 -21.058  0.00  0.00    +0.181 C 
ATOM      7  C   UNL     1      35.081 -14.359 -22.336  0.00  0.00    +0.188 C 
ATOM      8  C   UNL     1      34.033 -12.941 -20.755  0.00  0.00    +0.281 C 
ATOM      9  C   UNL     1      34.726 -15.431 -20.383  0.00  0.00    +0.008 C 
ATOM     10  C   UNL     1      35.337 -16.304 -21.258  0.00  0.00    +0.060 C 
ATOM     11  H   UNL     1      34.988 -11.475 -24.706  0.00  0.00    +0.166 HD
ATOM     12  H   UNL     1      35.968 -16.031 -23.242  0.00  0.00    +0.154 HD
ENDROOT
BRANCH   1  19
ATOM     13  F   UNL     1      35.275  -6.551 -24.653  0.00  0.00    -0.203 F 
ATOM     14  C   UNL     1      33.217  -7.256 -23.700  0.00  0.00    +0.076 C 
ATOM     15  C   UNL     1      34.485  -7.538 -24.208  0.00  0.00    +0.155 C 
ATOM     16  C   UNL     1      32.406  -8.293 -23.238  0.00  0.00    +0.018 C 
ATOM     17  C   UNL     1      34.941  -8.856 -24.255  0.00  0.00    +0.046 C 
ATOM     18  C   UNL     1      32.861  -9.610 -23.285  0.00  0.00    +0.017 C 
ATOM     19  C   UNL     1      34.128  -9.892 -23.794  0.00  0.00    +0.061 C 
BRANCH  14  20
ATOM     20  N   UNL     1      32.758  -5.936 -23.650  0.00  0.00    -0.310 N 
ATOM     21  N   UNL     1      31.601  -3.325 -23.655  0.00  0.00    +0.388 N 
ATOM     22  C   UNL     1      32.508  -5.244 -24.920  0.00  0.00    +0.068 C 
ATOM     23  C   UNL     1      31.944  -5.491 -22.514  0.00  0.00    +0.068 C 
ATOM     24  C   UNL     1      32.528  -3.727 -24.720  0.00  0.00    -0.056 C 
ATOM     25  C   UNL     1      31.982  -3.965 -22.392  0.00  0.00    -0.056 C 
ATOM     26  C   UNL     1      31.588  -1.869 -23.510  0.00  0.00    -0.101 C 
ATOM     27  H   UNL     1      30.660  -3.627 -23.907  0.00  0.00    -0.080 HD
ENDBRANCH  14  20
ENDBRANCH   1  19
BRANCH   8  28
ATOM     28  O   UNL     1      33.488 -12.651 -19.529  0.00  0.00    -0.429 OA
BRANCH  28  29
ATOM     29  C   UNL     1      32.510 -11.678 -19.486  0.00  0.00    +0.149 C 
ATOM     30  C   UNL     1      32.827 -10.391 -19.050  0.00  0.00    +0.052 C 
ATOM     31  C   UNL     1      31.206 -11.981 -19.878  0.00  0.00    +0.038 C 
ATOM     32  C   UNL     1      31.839  -9.407 -19.007  0.00  0.00    +0.054 C 
ATOM     33  C   UNL     1      30.535  -9.709 -19.400  0.00  0.00    +0.015 C 
ATOM     34  C   UNL     1      30.219 -10.996 -19.836  0.00  0.00    +0.004 C 
BRANCH  32  36
ATOM     35  O   UNL     1      33.492  -7.266 -20.312  0.00  0.00    -0.270 OA
ATOM     36  N   UNL     1      32.156  -8.119 -18.573  0.00  0.00    -0.280 N 
ATOM     37  C   UNL     1      32.936  -7.155 -19.225  0.00  0.00    +0.250 C 
ATOM     38  H   UNL     1      31.785  -7.856 -17.700  0.00  0.00    +0.155 HD
BRANCH  37  39
ATOM     39  C   UNL     1      33.039  -5.898 -18.429  0.00  0.00    +0.058 C 
ATOM     40  C   UNL     1      32.427  -4.783 -18.838  0.00  0.00    +0.005 C 
ENDBRANCH  37  39
ENDBRANCH  32  36
ENDBRANCH  28  29
ENDBRANCH   8  28
TORSDOF 6
ENDMDL
MODEL 9
REMARK VINA RESULT:      -9.6     10.971     17.528
REMARK  Name = 72734520
REMARK  6 active torsions:
REMARK  status: ('A' for Active; 'I' for Inactive)
REMARK    1  A    between atoms: N_1  and  C_19
REMARK    2  A    between atoms: C_8  and  O_28
REMARK    3  A    between atoms: C_14  and  N_20
REMARK    4  A    between atoms: O_28  and  C_29
REMARK    5  A    between atoms: C_32  and  N_36
REMARK    6  A    between atoms: C_37  and  C_39
REMARK                            x       y       z     vdW  Elec       q    Type
REMARK                         _______ _______ _______ _____ _____    ______ ____
ROOT
ATOM      1  N   UNL     1      32.803  -7.298 -21.408  0.00  0.00    -0.238 N 
ATOM      2  N   UNL     1      32.313  -5.021 -21.249  0.00  0.00    -0.316 NA
ATOM      3  N   UNL     1      32.446  -6.140 -23.407  0.00  0.00    -0.294 NA
ATOM      4  N   UNL     1      31.793  -2.674 -21.438  0.00  0.00    -0.289 N 
ATOM      5  C   UNL     1      32.503  -6.084 -22.058  0.00  0.00    +0.207 C 
ATOM      6  C   UNL     1      31.944  -3.822 -23.345  0.00  0.00    +0.181 C 
ATOM      7  C   UNL     1      32.037  -3.916 -21.962  0.00  0.00    +0.188 C 
ATOM      8  C   UNL     1      32.162  -4.994 -24.067  0.00  0.00    +0.281 C 
ATOM      9  C   UNL     1      31.635  -2.471 -23.648  0.00  0.00    +0.008 C 
ATOM     10  C   UNL     1      31.549  -1.787 -22.454  0.00  0.00    +0.060 C 
ATOM     11  H   UNL     1      32.837  -7.224 -20.427  0.00  0.00    +0.166 HD
ATOM     12  H   UNL     1      31.794  -2.452 -20.478  0.00  0.00    +0.154 HD
ENDROOT
BRANCH   1  19
ATOM     13  F   UNL     1      31.920 -12.008 -21.350  0.00  0.00    -0.203 F 
ATOM     14  C   UNL     1      33.572 -11.172 -22.838  0.00  0.00    +0.076 C 
ATOM     15  C   UNL     1      32.607 -10.972 -21.851  0.00  0.00    +0.155 C 
ATOM     16  C   UNL     1      34.282 -10.085 -23.349  0.00  0.00    +0.018 C 
ATOM     17  C   UNL     1      32.351  -9.685 -21.376  0.00  0.00    +0.046 C 
ATOM     18  C   UNL     1      34.026  -8.799 -22.875  0.00  0.00    +0.017 C 
ATOM     19  C   UNL     1      33.061  -8.599 -21.889  0.00  0.00    +0.061 C 
BRANCH  14  20
ATOM     20  N   UNL     1      33.832 -12.462 -23.315  0.00  0.00    -0.310 N 
ATOM     21  N   UNL     1      34.575 -14.996 -24.401  0.00  0.00    +0.388 N 
ATOM     22  C   UNL     1      33.789 -12.681 -24.766  0.00  0.00    +0.068 C 
ATOM     23  C   UNL     1      34.727 -13.348 -22.565  0.00  0.00    +0.068 C 
ATOM     24  C   UNL     1      33.573 -14.164 -25.078  0.00  0.00    -0.056 C 
ATOM     25  C   UNL     1      34.481 -14.809 -22.949  0.00  0.00    -0.056 C 
ATOM     26  C   UNL     1      34.392 -16.405 -24.751  0.00  0.00    -0.101 C 
ATOM     27  H   UNL     1      35.504 -14.710 -24.711  0.00  0.00    -0.080 HD
ENDBRANCH  14  20
ENDBRANCH   1  19
BRANCH   8  28
ATOM     28  O   UNL     1      32.099  -5.035 -25.437  0.00  0.00    -0.429 OA
BRANCH  28  29
ATOM     29  C   UNL     1      33.032  -4.296 -26.136  0.00  0.00    +0.149 C 
ATOM     30  C   UNL     1      34.327  -4.786 -26.301  0.00  0.00    +0.052 C 
ATOM     31  C   UNL     1      32.679  -3.060 -26.677  0.00  0.00    +0.038 C 
ATOM     32  C   UNL     1      35.270  -4.040 -27.008  0.00  0.00    +0.054 C 
ATOM     33  C   UNL     1      34.918  -2.804 -27.549  0.00  0.00    +0.015 C 
ATOM     34  C   UNL     1      33.622  -2.314 -27.385  0.00  0.00    +0.004 C 
BRANCH  32  36
ATOM     35  O   UNL     1      36.820  -4.631 -29.511  0.00  0.00    -0.270 OA
ATOM     36  N   UNL     1      36.566  -4.530 -27.174  0.00  0.00    -0.280 N 
ATOM     37  C   UNL     1      37.245  -4.789 -28.373  0.00  0.00    +0.250 C 
ATOM     38  H   UNL     1      37.066  -4.717 -26.346  0.00  0.00    +0.155 HD
BRANCH  37  39
ATOM     39  C   UNL     1      38.621  -5.309 -28.125  0.00  0.00    +0.058 C 
ATOM     40  C   UNL     1      39.171  -6.199 -28.956  0.00  0.00    +0.005 C 
ENDBRANCH  37  39
ENDBRANCH  32  36
ENDBRANCH  28  29
ENDBRANCH   8  28
TORSDOF 6
ENDMDL
