MODEL 1
REMARK VINA RESULT:     -11.6      0.000      0.000
REMARK  Name = 58507717
REMARK  2 active torsions:
REMARK  status: ('A' for Active; 'I' for Inactive)
REMARK    1  A    between atoms: C_18  and  C_21
REMARK    2  A    between atoms: C_22  and  C_31
REMARK                            x       y       z     vdW  Elec       q    Type
REMARK                         _______ _______ _______ _____ _____    ______ ____
ROOT
ATOM      1  O   UNL     1      29.713 -24.056 -13.722  0.00  0.00    -0.350 OA
ATOM      2  O   UNL     1      38.913 -26.047 -12.342  0.00  0.00    -0.350 OA
ATOM      3  N   UNL     1      32.375 -23.910 -14.609  0.00  0.00    -0.228 N 
ATOM      4  N   UNL     1      36.883 -24.900 -13.912  0.00  0.00    -0.228 N 
ATOM      5  N   UNL     1      34.620 -24.428 -14.231  0.00  0.00    -0.246 NA
ATOM      6  N   UNL     1      36.299 -23.411 -15.610  0.00  0.00    -0.260 NA
ATOM      7  N   UNL     1      33.981 -22.902 -15.970  0.00  0.00    -0.260 NA
ATOM      8  C   UNL     1      32.009 -24.806 -13.507  0.00  0.00    +0.135 C 
ATOM      9  C   UNL     1      31.455 -22.786 -14.833  0.00  0.00    +0.135 C 
ATOM     10  C   UNL     1      38.293 -24.717 -14.274  0.00  0.00    +0.135 C 
ATOM     11  C   UNL     1      36.637 -25.222 -12.500  0.00  0.00    +0.135 C 
ATOM     12  C   UNL     1      30.546 -25.211 -13.637  0.00  0.00    +0.164 C 
ATOM     13  C   UNL     1      30.021 -23.299 -14.893  0.00  0.00    +0.164 C 
ATOM     14  C   UNL     1      37.548 -26.365 -12.067  0.00  0.00    +0.164 C 
ATOM     15  C   UNL     1      39.116 -25.886 -13.745  0.00  0.00    +0.164 C 
ATOM     16  C   UNL     1      33.721 -23.739 -14.952  0.00  0.00    +0.224 C 
ATOM     17  C   UNL     1      35.888 -24.214 -14.617  0.00  0.00    +0.224 C 
ATOM     18  C   UNL     1      35.290 -22.787 -16.242  0.00  0.00    +0.164 C 
ENDROOT
BRANCH  18  21
ATOM     19  N   UNL     1      37.239 -20.315 -18.213  0.00  0.00    -0.229 NA
ATOM     20  N   UNL     1      36.829 -19.316 -20.337  0.00  0.00    -0.343 N 
ATOM     21  C   UNL     1      35.652 -21.905 -17.321  0.00  0.00    +0.110 C 
ATOM     22  C   UNL     1      34.857 -21.757 -18.452  0.00  0.00    +0.087 C 
ATOM     23  C   UNL     1      36.822 -21.167 -17.250  0.00  0.00    +0.112 C 
ATOM     24  C   UNL     1      35.252 -20.889 -19.464  0.00  0.00    +0.038 C 
ATOM     25  C   UNL     1      36.441 -20.198 -19.298  0.00  0.00    +0.125 C 
ATOM     26  H   UNL     1      37.667 -18.804 -20.261  0.00  0.00    +0.144 HD
ATOM     27  H   UNL     1      36.262 -19.215 -21.135  0.00  0.00    +0.144 HD
BRANCH  22  31
ATOM     28  F   UNL     1      32.967 -22.258 -19.805  0.00  0.00    -0.166 F 
ATOM     29  F   UNL     1      33.731 -23.865 -18.556  0.00  0.00    -0.166 F 
ATOM     30  F   UNL     1      32.649 -22.215 -17.655  0.00  0.00    -0.166 F 
ATOM     31  C   UNL     1      33.576 -22.511 -18.611  0.00  0.00    +0.419 C 
ENDBRANCH  22  31
ENDBRANCH  18  21
TORSDOF 2
ENDMDL
MODEL 2
REMARK VINA RESULT:     -11.3      0.376      4.854
REMARK  Name = 58507717
REMARK  2 active torsions:
REMARK  status: ('A' for Active; 'I' for Inactive)
REMARK    1  A    between atoms: C_18  and  C_21
REMARK    2  A    between atoms: C_22  and  C_31
REMARK                            x       y       z     vdW  Elec       q    Type
REMARK                         _______ _______ _______ _____ _____    ______ ____
ROOT
ATOM      1  O   UNL     1      39.071 -26.231 -12.616  0.00  0.00    -0.350 OA
ATOM      2  O   UNL     1      29.827 -24.284 -13.742  0.00  0.00    -0.350 OA
ATOM      3  N   UNL     1      37.055 -24.704 -13.843  0.00  0.00    -0.228 N 
ATOM      4  N   UNL     1      32.515 -23.765 -14.377  0.00  0.00    -0.228 N 
ATOM      5  N   UNL     1      34.776 -24.257 -14.080  0.00  0.00    -0.246 NA
ATOM      6  N   UNL     1      34.050 -22.816 -15.855  0.00  0.00    -0.260 NA
ATOM      7  N   UNL     1      36.386 -23.298 -15.580  0.00  0.00    -0.260 NA
ATOM      8  C   UNL     1      36.743 -25.553 -12.689  0.00  0.00    +0.135 C 
ATOM      9  C   UNL     1      38.257 -25.090 -14.596  0.00  0.00    +0.135 C 
ATOM     10  C   UNL     1      31.437 -23.085 -15.104  0.00  0.00    +0.135 C 
ATOM     11  C   UNL     1      32.135 -25.030 -13.735  0.00  0.00    +0.135 C 
ATOM     12  C   UNL     1      37.989 -25.734 -11.830  0.00  0.00    +0.164 C 
ATOM     13  C   UNL     1      39.423 -25.295 -13.635  0.00  0.00    +0.164 C 
ATOM     14  C   UNL     1      30.860 -24.832 -12.923  0.00  0.00    +0.164 C 
ATOM     15  C   UNL     1      30.198 -22.992 -14.220  0.00  0.00    +0.164 C 
ATOM     16  C   UNL     1      36.025 -24.057 -14.533  0.00  0.00    +0.224 C 
ATOM     17  C   UNL     1      33.842 -23.605 -14.790  0.00  0.00    +0.224 C 
ATOM     18  C   UNL     1      35.346 -22.709 -16.193  0.00  0.00    +0.164 C 
ENDROOT
BRANCH  18  21
ATOM     19  N   UNL     1      37.187 -20.331 -18.373  0.00  0.00    -0.229 NA
ATOM     20  N   UNL     1      36.668 -19.432 -20.517  0.00  0.00    -0.343 N 
ATOM     21  C   UNL     1      35.651 -21.878 -17.329  0.00  0.00    +0.110 C 
ATOM     22  C   UNL     1      34.799 -21.783 -18.424  0.00  0.00    +0.087 C 
ATOM     23  C   UNL     1      36.821 -21.138 -17.352  0.00  0.00    +0.112 C 
ATOM     24  C   UNL     1      35.140 -20.963 -19.494  0.00  0.00    +0.038 C 
ATOM     25  C   UNL     1      36.335 -20.265 -19.421  0.00  0.00    +0.125 C 
ATOM     26  H   UNL     1      37.507 -18.918 -20.508  0.00  0.00    +0.144 HD
ATOM     27  H   UNL     1      36.061 -19.369 -21.290  0.00  0.00    +0.144 HD
BRANCH  22  31
ATOM     28  F   UNL     1      32.915 -22.463 -19.705  0.00  0.00    -0.166 F 
ATOM     29  F   UNL     1      33.657 -23.875 -18.229  0.00  0.00    -0.166 F 
ATOM     30  F   UNL     1      32.581 -22.104 -17.588  0.00  0.00    -0.166 F 
ATOM     31  C   UNL     1      33.513 -22.543 -18.482  0.00  0.00    +0.419 C 
ENDBRANCH  22  31
ENDBRANCH  18  21
TORSDOF 2
ENDMDL
MODEL 3
REMARK VINA RESULT:     -11.2      3.071      6.025
REMARK  Name = 58507717
REMARK  2 active torsions:
REMARK  status: ('A' for Active; 'I' for Inactive)
REMARK    1  A    between atoms: C_18  and  C_21
REMARK    2  A    between atoms: C_22  and  C_31
REMARK                            x       y       z     vdW  Elec       q    Type
REMARK                         _______ _______ _______ _____ _____    ______ ____
ROOT
ATOM      1  O   UNL     1      29.752 -24.448 -13.446  0.00  0.00    -0.350 OA
ATOM      2  O   UNL     1      35.265 -20.666 -20.215  0.00  0.00    -0.350 OA
ATOM      3  N   UNL     1      32.322 -23.860 -14.420  0.00  0.00    -0.228 N 
ATOM      4  N   UNL     1      35.006 -21.996 -17.752  0.00  0.00    -0.228 N 
ATOM      5  N   UNL     1      33.633 -22.912 -16.103  0.00  0.00    -0.246 NA
ATOM      6  N   UNL     1      35.999 -23.312 -16.101  0.00  0.00    -0.260 NA
ATOM      7  N   UNL     1      34.619 -24.270 -14.387  0.00  0.00    -0.260 NA
ATOM      8  C   UNL     1      31.139 -23.241 -15.028  0.00  0.00    +0.135 C 
ATOM      9  C   UNL     1      32.070 -25.117 -13.700  0.00  0.00    +0.135 C 
ATOM     10  C   UNL     1      36.330 -21.802 -18.355  0.00  0.00    +0.135 C 
ATOM     11  C   UNL     1      33.878 -21.948 -18.693  0.00  0.00    +0.135 C 
ATOM     12  C   UNL     1      30.015 -23.161 -14.002  0.00  0.00    +0.164 C 
ATOM     13  C   UNL     1      30.896 -24.936 -12.745  0.00  0.00    +0.164 C 
ATOM     14  C   UNL     1      33.991 -20.706 -19.569  0.00  0.00    +0.164 C 
ATOM     15  C   UNL     1      36.312 -20.569 -19.251  0.00  0.00    +0.164 C 
ATOM     16  C   UNL     1      33.582 -23.672 -14.996  0.00  0.00    +0.224 C 
ATOM     17  C   UNL     1      34.873 -22.776 -16.599  0.00  0.00    +0.224 C 
ATOM     18  C   UNL     1      35.795 -24.046 -14.995  0.00  0.00    +0.164 C 
ENDROOT
BRANCH  18  21
ATOM     19  N   UNL     1      38.533 -26.488 -14.417  0.00  0.00    -0.229 NA
ATOM     20  N   UNL     1      40.283 -26.542 -12.802  0.00  0.00    -0.343 N 
ATOM     21  C   UNL     1      36.956 -24.656 -14.402  0.00  0.00    +0.110 C 
ATOM     22  C   UNL     1      37.613 -24.091 -13.314  0.00  0.00    +0.087 C 
ATOM     23  C   UNL     1      37.451 -25.845 -14.911  0.00  0.00    +0.112 C 
ATOM     24  C   UNL     1      38.729 -24.723 -12.778  0.00  0.00    +0.038 C 
ATOM     25  C   UNL     1      39.146 -25.909 -13.361  0.00  0.00    +0.125 C 
ATOM     26  H   UNL     1      40.614 -27.387 -13.185  0.00  0.00    +0.144 HD
ATOM     27  H   UNL     1      40.744 -26.137 -12.032  0.00  0.00    +0.144 HD
BRANCH  22  31
ATOM     28  F   UNL     1      37.093 -21.787 -13.597  0.00  0.00    -0.166 F 
ATOM     29  F   UNL     1      35.895 -22.893 -12.158  0.00  0.00    -0.166 F 
ATOM     30  F   UNL     1      37.947 -22.372 -11.685  0.00  0.00    -0.166 F 
ATOM     31  C   UNL     1      37.146 -22.811 -12.697  0.00  0.00    +0.419 C 
ENDBRANCH  22  31
ENDBRANCH  18  21
TORSDOF 2
ENDMDL
MODEL 4
REMARK VINA RESULT:     -10.9      1.864      2.266
REMARK  Name = 58507717
REMARK  2 active torsions:
REMARK  status: ('A' for Active; 'I' for Inactive)
REMARK    1  A    between atoms: C_18  and  C_21
REMARK    2  A    between atoms: C_22  and  C_31
REMARK                            x       y       z     vdW  Elec       q    Type
REMARK                         _______ _______ _______ _____ _____    ______ ____
ROOT
ATOM      1  O   UNL     1      29.248 -24.275 -13.670  0.00  0.00    -0.350 OA
ATOM      2  O   UNL     1      38.525 -25.926 -12.359  0.00  0.00    -0.350 OA
ATOM      3  N   UNL     1      31.888 -24.119 -14.622  0.00  0.00    -0.228 N 
ATOM      4  N   UNL     1      36.434 -24.941 -13.958  0.00  0.00    -0.228 N 
ATOM      5  N   UNL     1      34.153 -24.552 -14.259  0.00  0.00    -0.246 NA
ATOM      6  N   UNL     1      35.776 -23.586 -15.739  0.00  0.00    -0.260 NA
ATOM      7  N   UNL     1      33.438 -23.163 -16.081  0.00  0.00    -0.260 NA
ATOM      8  C   UNL     1      31.569 -24.948 -13.455  0.00  0.00    +0.135 C 
ATOM      9  C   UNL     1      30.933 -23.037 -14.901  0.00  0.00    +0.135 C 
ATOM     10  C   UNL     1      37.831 -24.746 -14.362  0.00  0.00    +0.135 C 
ATOM     11  C   UNL     1      36.225 -25.174 -12.522  0.00  0.00    +0.135 C 
ATOM     12  C   UNL     1      30.115 -25.399 -13.526  0.00  0.00    +0.164 C 
ATOM     13  C   UNL     1      29.512 -23.591 -14.895  0.00  0.00    +0.164 C 
ATOM     14  C   UNL     1      37.176 -26.261 -12.033  0.00  0.00    +0.164 C 
ATOM     15  C   UNL     1      38.697 -25.855 -13.774  0.00  0.00    +0.164 C 
ATOM     16  C   UNL     1      33.221 -23.937 -15.005  0.00  0.00    +0.224 C 
ATOM     17  C   UNL     1      35.407 -24.331 -14.685  0.00  0.00    +0.224 C 
ATOM     18  C   UNL     1      34.738 -23.033 -16.389  0.00  0.00    +0.164 C 
ENDROOT
BRANCH  18  21
ATOM     19  N   UNL     1      34.411 -21.448 -19.732  0.00  0.00    -0.229 NA
ATOM     20  N   UNL     1      35.823 -19.926 -20.900  0.00  0.00    -0.343 N 
ATOM     21  C   UNL     1      35.054 -22.216 -17.532  0.00  0.00    +0.110 C 
ATOM     22  C   UNL     1      36.211 -21.447 -17.593  0.00  0.00    +0.087 C 
ATOM     23  C   UNL     1      34.195 -22.183 -18.618  0.00  0.00    +0.112 C 
ATOM     24  C   UNL     1      36.469 -20.679 -18.723  0.00  0.00    +0.038 C 
ATOM     25  C   UNL     1      35.545 -20.713 -19.756  0.00  0.00    +0.125 C 
ATOM     26  H   UNL     1      35.194 -19.920 -21.658  0.00  0.00    +0.144 HD
ATOM     27  H   UNL     1      36.644 -19.384 -20.938  0.00  0.00    +0.144 HD
BRANCH  22  31
ATOM     28  F   UNL     1      38.013 -20.335 -16.512  0.00  0.00    -0.166 F 
ATOM     29  F   UNL     1      36.613 -21.403 -15.236  0.00  0.00    -0.166 F 
ATOM     30  F   UNL     1      38.027 -22.508 -16.454  0.00  0.00    -0.166 F 
ATOM     31  C   UNL     1      37.196 -21.427 -16.469  0.00  0.00    +0.419 C 
ENDBRANCH  22  31
ENDBRANCH  18  21
TORSDOF 2
ENDMDL
MODEL 5
REMARK VINA RESULT:     -10.8      1.911      5.350
REMARK  Name = 58507717
REMARK  2 active torsions:
REMARK  status: ('A' for Active; 'I' for Inactive)
REMARK    1  A    between atoms: C_18  and  C_21
REMARK    2  A    between atoms: C_22  and  C_31
REMARK                            x       y       z     vdW  Elec       q    Type
REMARK                         _______ _______ _______ _____ _____    ______ ____
ROOT
ATOM      1  O   UNL     1      38.662 -26.160 -12.481  0.00  0.00    -0.350 OA
ATOM      2  O   UNL     1      29.361 -24.484 -13.575  0.00  0.00    -0.350 OA
ATOM      3  N   UNL     1      36.594 -24.766 -13.778  0.00  0.00    -0.228 N 
ATOM      4  N   UNL     1      32.027 -23.958 -14.295  0.00  0.00    -0.228 N 
ATOM      5  N   UNL     1      34.303 -24.382 -14.004  0.00  0.00    -0.246 NA
ATOM      6  N   UNL     1      33.517 -23.087 -15.864  0.00  0.00    -0.260 NA
ATOM      7  N   UNL     1      35.866 -23.501 -15.598  0.00  0.00    -0.260 NA
ATOM      8  C   UNL     1      36.319 -25.535 -12.560  0.00  0.00    +0.135 C 
ATOM      9  C   UNL     1      37.791 -25.180 -14.523  0.00  0.00    +0.135 C 
ATOM     10  C   UNL     1      30.923 -23.354 -15.048  0.00  0.00    +0.135 C 
ATOM     11  C   UNL     1      31.684 -25.181 -13.556  0.00  0.00    +0.135 C 
ATOM     12  C   UNL     1      37.583 -25.629 -11.713  0.00  0.00    +0.164 C 
ATOM     13  C   UNL     1      38.977 -25.292 -13.571  0.00  0.00    +0.164 C 
ATOM     14  C   UNL     1      30.419 -24.951 -12.737  0.00  0.00    +0.164 C 
ATOM     15  C   UNL     1      29.697 -23.222 -14.150  0.00  0.00    +0.164 C 
ATOM     16  C   UNL     1      35.539 -24.190 -14.492  0.00  0.00    +0.224 C 
ATOM     17  C   UNL     1      33.343 -23.802 -14.742  0.00  0.00    +0.224 C 
ATOM     18  C   UNL     1      34.804 -22.978 -16.232  0.00  0.00    +0.164 C 
ENDROOT
BRANCH  18  21
ATOM     19  N   UNL     1      34.335 -21.568 -19.636  0.00  0.00    -0.229 NA
ATOM     20  N   UNL     1      35.699 -20.120 -20.945  0.00  0.00    -0.343 N 
ATOM     21  C   UNL     1      35.072 -22.225 -17.430  0.00  0.00    +0.110 C 
ATOM     22  C   UNL     1      36.229 -21.469 -17.583  0.00  0.00    +0.087 C 
ATOM     23  C   UNL     1      34.165 -22.242 -18.476  0.00  0.00    +0.112 C 
ATOM     24  C   UNL     1      36.439 -20.762 -18.762  0.00  0.00    +0.038 C 
ATOM     25  C   UNL     1      35.470 -20.844 -19.749  0.00  0.00    +0.125 C 
ATOM     26  H   UNL     1      35.037 -20.149 -21.673  0.00  0.00    +0.144 HD
ATOM     27  H   UNL     1      36.521 -19.586 -21.048  0.00  0.00    +0.144 HD
BRANCH  22  31
ATOM     28  F   UNL     1      36.717 -21.320 -15.261  0.00  0.00    -0.166 F 
ATOM     29  F   UNL     1      38.095 -22.478 -16.479  0.00  0.00    -0.166 F 
ATOM     30  F   UNL     1      38.086 -20.313 -16.615  0.00  0.00    -0.166 F 
ATOM     31  C   UNL     1      37.264 -21.396 -16.507  0.00  0.00    +0.419 C 
ENDBRANCH  22  31
ENDBRANCH  18  21
TORSDOF 2
ENDMDL
MODEL 6
REMARK VINA RESULT:     -10.7      3.085      6.670
REMARK  Name = 58507717
REMARK  2 active torsions:
REMARK  status: ('A' for Active; 'I' for Inactive)
REMARK    1  A    between atoms: C_18  and  C_21
REMARK    2  A    between atoms: C_22  and  C_31
REMARK                            x       y       z     vdW  Elec       q    Type
REMARK                         _______ _______ _______ _____ _____    ______ ____
ROOT
ATOM      1  O   UNL     1      35.293 -20.329 -19.891  0.00  0.00    -0.350 OA
ATOM      2  O   UNL     1      29.972 -24.106 -12.968  0.00  0.00    -0.350 OA
ATOM      3  N   UNL     1      35.053 -22.099 -17.721  0.00  0.00    -0.228 N 
ATOM      4  N   UNL     1      32.423 -23.940 -14.334  0.00  0.00    -0.228 N 
ATOM      5  N   UNL     1      33.706 -23.004 -16.043  0.00  0.00    -0.246 NA
ATOM      6  N   UNL     1      34.721 -24.341 -14.329  0.00  0.00    -0.260 NA
ATOM      7  N   UNL     1      36.074 -23.395 -16.071  0.00  0.00    -0.260 NA
ATOM      8  C   UNL     1      33.859 -21.488 -18.314  0.00  0.00    +0.135 C 
ATOM      9  C   UNL     1      36.309 -21.370 -17.949  0.00  0.00    +0.135 C 
ATOM     10  C   UNL     1      32.308 -24.746 -13.113  0.00  0.00    +0.135 C 
ATOM     11  C   UNL     1      31.419 -22.878 -14.479  0.00  0.00    +0.135 C 
ATOM     12  C   UNL     1      34.128 -21.144 -19.775  0.00  0.00    +0.164 C 
ATOM     13  C   UNL     1      36.447 -21.033 -19.430  0.00  0.00    +0.164 C 
ATOM     14  C   UNL     1      30.026 -23.449 -14.235  0.00  0.00    +0.164 C 
ATOM     15  C   UNL     1      30.868 -25.217 -12.941  0.00  0.00    +0.164 C 
ATOM     16  C   UNL     1      34.939 -22.868 -16.559  0.00  0.00    +0.224 C 
ATOM     17  C   UNL     1      33.675 -23.753 -14.929  0.00  0.00    +0.224 C 
ATOM     18  C   UNL     1      35.888 -24.119 -14.956  0.00  0.00    +0.164 C 
ENDROOT
BRANCH  18  21
ATOM     19  N   UNL     1      38.644 -26.542 -14.385  0.00  0.00    -0.229 NA
ATOM     20  N   UNL     1      40.414 -26.571 -12.791  0.00  0.00    -0.343 N 
ATOM     21  C   UNL     1      37.060 -24.717 -14.370  0.00  0.00    +0.110 C 
ATOM     22  C   UNL     1      37.727 -24.137 -13.296  0.00  0.00    +0.087 C 
ATOM     23  C   UNL     1      37.554 -25.909 -14.873  0.00  0.00    +0.112 C 
ATOM     24  C   UNL     1      38.852 -24.759 -12.767  0.00  0.00    +0.038 C 
ATOM     25  C   UNL     1      39.267 -25.949 -13.343  0.00  0.00    +0.125 C 
ATOM     26  H   UNL     1      40.744 -27.418 -13.169  0.00  0.00    +0.144 HD
ATOM     27  H   UNL     1      40.882 -26.157 -12.030  0.00  0.00    +0.144 HD
BRANCH  22  31
ATOM     28  F   UNL     1      37.194 -21.839 -13.596  0.00  0.00    -0.166 F 
ATOM     29  F   UNL     1      36.017 -22.935 -12.133  0.00  0.00    -0.166 F 
ATOM     30  F   UNL     1      38.072 -22.400 -11.689  0.00  0.00    -0.166 F 
ATOM     31  C   UNL     1      37.261 -22.854 -12.687  0.00  0.00    +0.419 C 
ENDBRANCH  22  31
ENDBRANCH  18  21
TORSDOF 2
ENDMDL
MODEL 7
REMARK VINA RESULT:     -10.1      3.065      7.016
REMARK  Name = 58507717
REMARK  2 active torsions:
REMARK  status: ('A' for Active; 'I' for Inactive)
REMARK    1  A    between atoms: C_18  and  C_21
REMARK    2  A    between atoms: C_22  and  C_31
REMARK                            x       y       z     vdW  Elec       q    Type
REMARK                         _______ _______ _______ _____ _____    ______ ____
ROOT
ATOM      1  O   UNL     1      35.254 -20.274 -20.049  0.00  0.00    -0.350 OA
ATOM      2  O   UNL     1      28.394 -23.971 -14.592  0.00  0.00    -0.350 OA
ATOM      3  N   UNL     1      34.472 -22.086 -18.047  0.00  0.00    -0.228 N 
ATOM      4  N   UNL     1      31.090 -23.886 -15.383  0.00  0.00    -0.228 N 
ATOM      5  N   UNL     1      32.754 -22.968 -16.736  0.00  0.00    -0.246 NA
ATOM      6  N   UNL     1      33.313 -24.394 -14.890  0.00  0.00    -0.260 NA
ATOM      7  N   UNL     1      35.053 -23.470 -16.260  0.00  0.00    -0.260 NA
ATOM      8  C   UNL     1      33.464 -21.404 -18.865  0.00  0.00    +0.135 C 
ATOM      9  C   UNL     1      35.775 -21.410 -17.970  0.00  0.00    +0.135 C 
ATOM     10  C   UNL     1      30.677 -24.716 -14.246  0.00  0.00    +0.135 C 
ATOM     11  C   UNL     1      30.186 -22.775 -15.706  0.00  0.00    +0.135 C 
ATOM     12  C   UNL     1      34.060 -21.037 -20.219  0.00  0.00    +0.164 C 
ATOM     13  C   UNL     1      36.249 -21.043 -19.372  0.00  0.00    +0.164 C 
ATOM     14  C   UNL     1      28.752 -23.286 -15.792  0.00  0.00    +0.164 C 
ATOM     15  C   UNL     1      29.216 -25.123 -14.408  0.00  0.00    +0.164 C 
ATOM     16  C   UNL     1      34.074 -22.878 -16.965  0.00  0.00    +0.224 C 
ATOM     17  C   UNL     1      32.448 -23.743 -15.683  0.00  0.00    +0.224 C 
ATOM     18  C   UNL     1      34.597 -24.211 -15.238  0.00  0.00    +0.164 C 
ENDROOT
BRANCH  18  21
ATOM     19  N   UNL     1      37.109 -26.741 -14.195  0.00  0.00    -0.229 NA
ATOM     20  N   UNL     1      38.440 -26.923 -12.228  0.00  0.00    -0.343 N 
ATOM     21  C   UNL     1      35.586 -24.878 -14.432  0.00  0.00    +0.110 C 
ATOM     22  C   UNL     1      35.980 -24.389 -13.191  0.00  0.00    +0.087 C 
ATOM     23  C   UNL     1      36.175 -26.048 -14.884  0.00  0.00    +0.112 C 
ATOM     24  C   UNL     1      36.938 -25.074 -12.452  0.00  0.00    +0.038 C 
ATOM     25  C   UNL     1      37.467 -26.235 -12.994  0.00  0.00    +0.125 C 
ATOM     26  H   UNL     1      38.843 -27.752 -12.574  0.00  0.00    +0.144 HD
ATOM     27  H   UNL     1      38.715 -26.572 -11.350  0.00  0.00    +0.144 HD
BRANCH  22  31
ATOM     28  F   UNL     1      36.160 -22.609 -11.625  0.00  0.00    -0.166 F 
ATOM     29  F   UNL     1      35.250 -22.139 -13.543  0.00  0.00    -0.166 F 
ATOM     30  F   UNL     1      34.155 -23.312 -12.083  0.00  0.00    -0.166 F 
ATOM     31  C   UNL     1      35.395 -23.136 -12.623  0.00  0.00    +0.419 C 
ENDBRANCH  22  31
ENDBRANCH  18  21
TORSDOF 2
ENDMDL
MODEL 8
REMARK VINA RESULT:      -9.9      3.017      6.632
REMARK  Name = 58507717
REMARK  2 active torsions:
REMARK  status: ('A' for Active; 'I' for Inactive)
REMARK    1  A    between atoms: C_18  and  C_21
REMARK    2  A    between atoms: C_22  and  C_31
REMARK                            x       y       z     vdW  Elec       q    Type
REMARK                         _______ _______ _______ _____ _____    ______ ____
ROOT
ATOM      1  O   UNL     1      34.567 -20.045 -20.247  0.00  0.00    -0.350 OA
ATOM      2  O   UNL     1      28.964 -24.261 -13.818  0.00  0.00    -0.350 OA
ATOM      3  N   UNL     1      34.244 -21.938 -18.195  0.00  0.00    -0.228 N 
ATOM      4  N   UNL     1      31.476 -23.994 -15.051  0.00  0.00    -0.228 N 
ATOM      5  N   UNL     1      32.829 -22.949 -16.639  0.00  0.00    -0.246 NA
ATOM      6  N   UNL     1      33.776 -24.372 -14.955  0.00  0.00    -0.260 NA
ATOM      7  N   UNL     1      35.200 -23.316 -16.573  0.00  0.00    -0.260 NA
ATOM      8  C   UNL     1      33.073 -21.305 -18.811  0.00  0.00    +0.135 C 
ATOM      9  C   UNL     1      35.500 -21.185 -18.320  0.00  0.00    +0.135 C 
ATOM     10  C   UNL     1      31.312 -24.869 -13.884  0.00  0.00    +0.135 C 
ATOM     11  C   UNL     1      30.467 -22.935 -15.185  0.00  0.00    +0.135 C 
ATOM     12  C   UNL     1      33.408 -20.876 -20.235  0.00  0.00    +0.164 C 
ATOM     13  C   UNL     1      35.706 -20.763 -19.770  0.00  0.00    +0.164 C 
ATOM     14  C   UNL     1      29.071 -23.532 -15.042  0.00  0.00    +0.164 C 
ATOM     15  C   UNL     1      29.871 -25.363 -13.810  0.00  0.00    +0.164 C 
ATOM     16  C   UNL     1      34.084 -22.773 -17.085  0.00  0.00    +0.224 C 
ATOM     17  C   UNL     1      32.753 -23.761 -15.572  0.00  0.00    +0.224 C 
ATOM     18  C   UNL     1      34.969 -24.103 -15.510  0.00  0.00    +0.164 C 
ENDROOT
BRANCH  18  21
ATOM     19  N   UNL     1      37.371 -26.750 -14.500  0.00  0.00    -0.229 NA
ATOM     20  N   UNL     1      39.369 -26.657 -13.207  0.00  0.00    -0.343 N 
ATOM     21  C   UNL     1      36.118 -24.723 -14.902  0.00  0.00    +0.110 C 
ATOM     22  C   UNL     1      37.047 -23.994 -14.167  0.00  0.00    +0.087 C 
ATOM     23  C   UNL     1      36.323 -26.086 -15.037  0.00  0.00    +0.112 C 
ATOM     24  C   UNL     1      38.138 -24.643 -13.599  0.00  0.00    +0.038 C 
ATOM     25  C   UNL     1      38.253 -26.010 -13.793  0.00  0.00    +0.125 C 
ATOM     26  H   UNL     1      39.490 -27.627 -13.319  0.00  0.00    +0.144 HD
ATOM     27  H   UNL     1      40.023 -26.137 -12.687  0.00  0.00    +0.144 HD
BRANCH  22  31
ATOM     28  F   UNL     1      37.561 -22.078 -12.857  0.00  0.00    -0.166 F 
ATOM     29  F   UNL     1      37.392 -21.780 -15.004  0.00  0.00    -0.166 F 
ATOM     30  F   UNL     1      35.610 -22.116 -13.813  0.00  0.00    -0.166 F 
ATOM     31  C   UNL     1      36.903 -22.520 -13.966  0.00  0.00    +0.419 C 
ENDBRANCH  22  31
ENDBRANCH  18  21
TORSDOF 2
ENDMDL
MODEL 9
REMARK VINA RESULT:      -9.3      2.941      6.934
REMARK  Name = 58507717
REMARK  2 active torsions:
REMARK  status: ('A' for Active; 'I' for Inactive)
REMARK    1  A    between atoms: C_18  and  C_21
REMARK    2  A    between atoms: C_22  and  C_31
REMARK                            x       y       z     vdW  Elec       q    Type
REMARK                         _______ _______ _______ _____ _____    ______ ____
ROOT
ATOM      1  O   UNL     1      35.824 -20.855 -19.949  0.00  0.00    -0.350 OA
ATOM      2  O   UNL     1      28.622 -24.195 -14.707  0.00  0.00    -0.350 OA
ATOM      3  N   UNL     1      34.933 -22.271 -17.690  0.00  0.00    -0.228 N 
ATOM      4  N   UNL     1      31.384 -23.902 -15.136  0.00  0.00    -0.228 N 
ATOM      5  N   UNL     1      33.134 -23.078 -16.442  0.00  0.00    -0.246 NA
ATOM      6  N   UNL     1      33.541 -23.965 -14.250  0.00  0.00    -0.260 NA
ATOM      7  N   UNL     1      35.367 -23.127 -15.564  0.00  0.00    -0.260 NA
ATOM      8  C   UNL     1      34.001 -21.939 -18.772  0.00  0.00    +0.135 C 
ATOM      9  C   UNL     1      36.126 -21.416 -17.608  0.00  0.00    +0.135 C 
ATOM     10  C   UNL     1      30.887 -24.510 -13.897  0.00  0.00    +0.135 C 
ATOM     11  C   UNL     1      30.428 -23.031 -15.833  0.00  0.00    +0.135 C 
ATOM     12  C   UNL     1      34.763 -21.798 -20.085  0.00  0.00    +0.164 C 
ATOM     13  C   UNL     1      36.775 -21.304 -18.983  0.00  0.00    +0.164 C 
ATOM     14  C   UNL     1      29.090 -23.748 -15.980  0.00  0.00    +0.164 C 
ATOM     15  C   UNL     1      29.524 -25.148 -14.147  0.00  0.00    +0.164 C 
ATOM     16  C   UNL     1      34.456 -22.852 -16.511  0.00  0.00    +0.224 C 
ATOM     17  C   UNL     1      32.749 -23.636 -15.283  0.00  0.00    +0.224 C 
ATOM     18  C   UNL     1      34.837 -23.682 -14.462  0.00  0.00    +0.164 C 
ENDROOT
BRANCH  18  21
ATOM     19  N   UNL     1      36.739 -23.360 -11.288  0.00  0.00    -0.229 NA
ATOM     20  N   UNL     1      38.345 -24.787 -10.260  0.00  0.00    -0.343 N 
ATOM     21  C   UNL     1      35.751 -24.006 -13.397  0.00  0.00    +0.110 C 
ATOM     22  C   UNL     1      36.503 -25.175 -13.400  0.00  0.00    +0.087 C 
ATOM     23  C   UNL     1      35.904 -23.138 -12.328  0.00  0.00    +0.112 C 
ATOM     24  C   UNL     1      37.373 -25.438 -12.347  0.00  0.00    +0.038 C 
ATOM     25  C   UNL     1      37.453 -24.506 -11.324  0.00  0.00    +0.125 C 
ATOM     26  H   UNL     1      38.434 -24.153  -9.512  0.00  0.00    +0.144 HD
ATOM     27  H   UNL     1      38.875 -25.617 -10.267  0.00  0.00    +0.144 HD
BRANCH  22  31
ATOM     28  F   UNL     1      37.371 -25.987 -15.459  0.00  0.00    -0.166 F 
ATOM     29  F   UNL     1      36.526 -27.461 -14.103  0.00  0.00    -0.166 F 
ATOM     30  F   UNL     1      35.219 -26.112 -15.186  0.00  0.00    -0.166 F 
ATOM     31  C   UNL     1      36.404 -26.166 -14.515  0.00  0.00    +0.419 C 
ENDBRANCH  22  31
ENDBRANCH  18  21
TORSDOF 2
ENDMDL
