MODEL 1
REMARK VINA RESULT:     -11.8      0.000      0.000
REMARK  Name = 46861612
REMARK  7 active torsions:
REMARK  status: ('A' for Active; 'I' for Inactive)
REMARK    1  A    between atoms: C_1  and  N_2
REMARK    2  A    between atoms: C_1  and  C_17
REMARK    3  A    between atoms: N_3  and  C_11
REMARK    4  A    between atoms: C_17  and  C_18
REMARK    5  A    between atoms: C_18  and  C_19
REMARK    6  A    between atoms: C_19  and  O_20
REMARK    7  A    between atoms: O_20  and  C_24
REMARK                            x       y       z     vdW  Elec       q    Type
REMARK                         _______ _______ _______ _____ _____    ______ ____
ROOT
ATOM      1  C   UNL     1      34.672 -17.147 -24.092  0.00  0.00    -0.077 C 
ENDROOT
BRANCH   1   2
ATOM      2  N   UNL     1      34.640 -15.698 -23.903  0.00  0.00    +0.389 N 
ATOM      3  N   UNL     1      33.560 -13.207 -23.017  0.00  0.00    -0.311 N 
ATOM      4  C   UNL     1      33.469 -15.117 -24.571  0.00  0.00    -0.055 C 
ATOM      5  C   UNL     1      34.616 -15.365 -22.474  0.00  0.00    -0.055 C 
ATOM      6  C   UNL     1      34.640 -13.850 -22.262  0.00  0.00    +0.068 C 
ATOM      7  C   UNL     1      33.455 -13.593 -24.430  0.00  0.00    +0.068 C 
ATOM      8  H   UNL     1      35.485 -15.305 -24.319  0.00  0.00    -0.080 HD
BRANCH   3  11
ATOM      9 CL   UNL     1      31.906 -13.080 -20.522  0.00  0.00    -0.080 Cl
ATOM     10 CL   UNL     1      30.958 -10.103 -19.783  0.00  0.00    -0.081 Cl
ATOM     11  C   UNL     1      33.122 -11.929 -22.651  0.00  0.00    +0.059 C 
ATOM     12  C   UNL     1      32.343 -11.722 -21.512  0.00  0.00    +0.081 C 
ATOM     13  C   UNL     1      33.482 -10.848 -23.456  0.00  0.00    +0.015 C 
ATOM     14  C   UNL     1      31.925 -10.433 -21.179  0.00  0.00    +0.069 C 
ATOM     15  C   UNL     1      33.064  -9.560 -23.122  0.00  0.00    +0.002 C 
ATOM     16  C   UNL     1      32.285  -9.353 -21.984  0.00  0.00    +0.012 C 
ENDBRANCH   3  11
ENDBRANCH   1   2
BRANCH   1  17
ATOM     17  C   UNL     1      35.328 -17.826 -22.891  0.00  0.00    -0.019 C 
BRANCH  17  18
ATOM     18  C   UNL     1      34.617 -19.131 -22.536  0.00  0.00    +0.045 C 
BRANCH  18  19
ATOM     19  C   UNL     1      34.528 -19.330 -21.029  0.00  0.00    +0.205 C 
BRANCH  19  20
ATOM     20  O   UNL     1      35.611 -20.136 -20.585  0.00  0.00    -0.475 OA
BRANCH  20  24
ATOM     21  O   UNL     1      34.677 -23.288 -16.144  0.00  0.00    -0.464 OA
ATOM     22  O   UNL     1      37.948 -23.202 -14.609  0.00  0.00    -0.271 OA
ATOM     23  N   UNL     1      37.251 -22.190 -16.553  0.00  0.00    -0.278 N 
ATOM     24  C   UNL     1      35.392 -20.906 -19.472  0.00  0.00    +0.140 C 
ATOM     25  C   UNL     1      36.432 -21.142 -18.572  0.00  0.00    +0.055 C 
ATOM     26  C   UNL     1      36.201 -21.921 -17.437  0.00  0.00    +0.088 C 
ATOM     27  C   UNL     1      34.132 -21.458 -19.244  0.00  0.00    +0.040 C 
ATOM     28  C   UNL     1      34.942 -22.470 -17.206  0.00  0.00    +0.153 C 
ATOM     29  C   UNL     1      33.907 -22.247 -18.114  0.00  0.00    +0.041 C 
ATOM     30  C   UNL     1      35.585 -23.153 -15.067  0.00  0.00    +0.290 C 
ATOM     31  C   UNL     1      37.047 -22.884 -15.383  0.00  0.00    +0.271 C 
ATOM     32  H   UNL     1      38.156 -21.873 -16.772  0.00  0.00    +0.155 HD
ENDBRANCH  20  24
ENDBRANCH  19  20
ENDBRANCH  18  19
ENDBRANCH  17  18
ENDBRANCH   1  17
TORSDOF 7
ENDMDL
MODEL 2
REMARK VINA RESULT:     -11.8      2.107      2.889
REMARK  Name = 46861612
REMARK  7 active torsions:
REMARK  status: ('A' for Active; 'I' for Inactive)
REMARK    1  A    between atoms: C_1  and  N_2
REMARK    2  A    between atoms: C_1  and  C_17
REMARK    3  A    between atoms: N_3  and  C_11
REMARK    4  A    between atoms: C_17  and  C_18
REMARK    5  A    between atoms: C_18  and  C_19
REMARK    6  A    between atoms: C_19  and  O_20
REMARK    7  A    between atoms: O_20  and  C_24
REMARK                            x       y       z     vdW  Elec       q    Type
REMARK                         _______ _______ _______ _____ _____    ______ ____
ROOT
ATOM      1  C   UNL     1      34.936 -16.791 -24.158  0.00  0.00    -0.077 C 
ENDROOT
BRANCH   1   2
ATOM      2  N   UNL     1      34.109 -15.736 -23.573  0.00  0.00    +0.389 N 
ATOM      3  N   UNL     1      33.416 -13.057 -22.867  0.00  0.00    -0.311 N 
ATOM      4  C   UNL     1      34.843 -15.034 -22.513  0.00  0.00    -0.055 C 
ATOM      5  C   UNL     1      33.688 -14.781 -24.605  0.00  0.00    -0.055 C 
ATOM      6  C   UNL     1      32.775 -13.702 -24.017  0.00  0.00    +0.068 C 
ATOM      7  C   UNL     1      33.968 -13.966 -21.854  0.00  0.00    +0.068 C 
ATOM      8  H   UNL     1      33.280 -16.170 -23.168  0.00  0.00    -0.080 HD
BRANCH   3  11
ATOM      9 CL   UNL     1      34.580 -10.738 -24.365  0.00  0.00    -0.080 Cl
ATOM     10 CL   UNL     1      33.516  -7.895 -23.322  0.00  0.00    -0.081 Cl
ATOM     11  C   UNL     1      32.982 -11.793 -22.450  0.00  0.00    +0.059 C 
ATOM     12  C   UNL     1      33.443 -10.625 -23.058  0.00  0.00    +0.081 C 
ATOM     13  C   UNL     1      32.067 -11.719 -21.399  0.00  0.00    +0.015 C 
ATOM     14  C   UNL     1      32.988  -9.383 -22.615  0.00  0.00    +0.069 C 
ATOM     15  C   UNL     1      31.613 -10.477 -20.957  0.00  0.00    +0.002 C 
ATOM     16  C   UNL     1      32.074  -9.309 -21.564  0.00  0.00    +0.012 C 
ENDBRANCH   3  11
ENDBRANCH   1   2
BRANCH   1  17
ATOM     17  C   UNL     1      34.095 -18.037 -24.430  0.00  0.00    -0.019 C 
BRANCH  17  18
ATOM     18  C   UNL     1      34.710 -19.273 -23.777  0.00  0.00    +0.045 C 
BRANCH  18  19
ATOM     19  C   UNL     1      35.045 -19.028 -22.312  0.00  0.00    +0.205 C 
BRANCH  19  20
ATOM     20  O   UNL     1      33.923 -19.350 -21.501  0.00  0.00    -0.475 OA
BRANCH  20  24
ATOM     21  O   UNL     1      34.906 -22.663 -17.190  0.00  0.00    -0.464 OA
ATOM     22  O   UNL     1      31.518 -23.329 -16.121  0.00  0.00    -0.271 OA
ATOM     23  N   UNL     1      32.236 -22.025 -17.873  0.00  0.00    -0.278 N 
ATOM     24  C   UNL     1      34.149 -20.183 -20.436  0.00  0.00    +0.140 C 
ATOM     25  C   UNL     1      33.074 -20.691 -19.708  0.00  0.00    +0.055 C 
ATOM     26  C   UNL     1      33.311 -21.544 -18.628  0.00  0.00    +0.088 C 
ATOM     27  C   UNL     1      35.456 -20.517 -20.078  0.00  0.00    +0.040 C 
ATOM     28  C   UNL     1      34.615 -21.881 -18.272  0.00  0.00    +0.153 C 
ATOM     29  C   UNL     1      35.690 -21.360 -18.992  0.00  0.00    +0.041 C 
ATOM     30  C   UNL     1      33.834 -23.481 -16.761  0.00  0.00    +0.290 C 
ATOM     31  C   UNL     1      32.421 -22.930 -16.854  0.00  0.00    +0.271 C 
ATOM     32  H   UNL     1      31.327 -21.710 -18.076  0.00  0.00    +0.155 HD
ENDBRANCH  20  24
ENDBRANCH  19  20
ENDBRANCH  18  19
ENDBRANCH  17  18
ENDBRANCH   1  17
TORSDOF 7
ENDMDL
MODEL 3
REMARK VINA RESULT:     -11.8      1.411      2.094
REMARK  Name = 46861612
REMARK  7 active torsions:
REMARK  status: ('A' for Active; 'I' for Inactive)
REMARK    1  A    between atoms: C_1  and  N_2
REMARK    2  A    between atoms: C_1  and  C_17
REMARK    3  A    between atoms: N_3  and  C_11
REMARK    4  A    between atoms: C_17  and  C_18
REMARK    5  A    between atoms: C_18  and  C_19
REMARK    6  A    between atoms: C_19  and  O_20
REMARK    7  A    between atoms: O_20  and  C_24
REMARK                            x       y       z     vdW  Elec       q    Type
REMARK                         _______ _______ _______ _____ _____    ______ ____
ROOT
ATOM      1  C   UNL     1      34.455 -16.809 -24.487  0.00  0.00    -0.077 C 
ENDROOT
BRANCH   1   2
ATOM      2  N   UNL     1      34.443 -15.375 -24.201  0.00  0.00    +0.389 N 
ATOM      3  N   UNL     1      33.433 -12.946 -23.090  0.00  0.00    -0.311 N 
ATOM      4  C   UNL     1      33.238 -14.749 -24.758  0.00  0.00    -0.055 C 
ATOM      5  C   UNL     1      34.506 -15.137 -22.755  0.00  0.00    -0.055 C 
ATOM      6  C   UNL     1      34.552 -13.639 -22.445  0.00  0.00    +0.068 C 
ATOM      7  C   UNL     1      33.241 -13.238 -24.517  0.00  0.00    +0.068 C 
ATOM      8  H   UNL     1      35.264 -14.957 -24.640  0.00  0.00    -0.080 HD
BRANCH   3  11
ATOM      9 CL   UNL     1      31.843 -12.989 -20.550  0.00  0.00    -0.080 Cl
ATOM     10 CL   UNL     1      30.963 -10.065 -19.560  0.00  0.00    -0.081 Cl
ATOM     11  C   UNL     1      33.025 -11.694 -22.615  0.00  0.00    +0.059 C 
ATOM     12  C   UNL     1      32.278 -11.565 -21.444  0.00  0.00    +0.081 C 
ATOM     13  C   UNL     1      33.383 -10.560 -23.344  0.00  0.00    +0.015 C 
ATOM     14  C   UNL     1      31.889 -10.300 -21.002  0.00  0.00    +0.069 C 
ATOM     15  C   UNL     1      32.994  -9.295 -22.901  0.00  0.00    +0.002 C 
ATOM     16  C   UNL     1      32.246  -9.166 -21.730  0.00  0.00    +0.012 C 
ENDBRANCH   3  11
ENDBRANCH   1   2
BRANCH   1  17
ATOM     17  C   UNL     1      35.081 -17.577 -23.324  0.00  0.00    -0.019 C 
BRANCH  17  18
ATOM     18  C   UNL     1      34.547 -19.007 -23.254  0.00  0.00    +0.045 C 
BRANCH  18  19
ATOM     19  C   UNL     1      34.221 -19.416 -21.824  0.00  0.00    +0.205 C 
BRANCH  19  20
ATOM     20  O   UNL     1      35.410 -19.813 -21.154  0.00  0.00    -0.475 OA
BRANCH  20  24
ATOM     21  O   UNL     1      34.865 -22.811 -16.545  0.00  0.00    -0.464 OA
ATOM     22  O   UNL     1      31.266 -23.116 -16.412  0.00  0.00    -0.271 OA
ATOM     23  N   UNL     1      32.554 -22.026 -17.975  0.00  0.00    -0.278 N 
ATOM     24  C   UNL     1      35.258 -20.566 -20.019  0.00  0.00    +0.140 C 
ATOM     25  C   UNL     1      33.982 -20.925 -19.586  0.00  0.00    +0.055 C 
ATOM     26  C   UNL     1      33.834 -21.697 -18.433  0.00  0.00    +0.088 C 
ATOM     27  C   UNL     1      36.381 -20.969 -19.295  0.00  0.00    +0.040 C 
ATOM     28  C   UNL     1      34.955 -22.104 -17.711  0.00  0.00    +0.153 C 
ATOM     29  C   UNL     1      36.230 -21.732 -18.137  0.00  0.00    +0.041 C 
ATOM     30  C   UNL     1      33.642 -23.502 -16.379  0.00  0.00    +0.290 C 
ATOM     31  C   UNL     1      32.368 -22.853 -16.891  0.00  0.00    +0.271 C 
ATOM     32  H   UNL     1      31.769 -21.660 -18.440  0.00  0.00    +0.155 HD
ENDBRANCH  20  24
ENDBRANCH  19  20
ENDBRANCH  18  19
ENDBRANCH  17  18
ENDBRANCH   1  17
TORSDOF 7
ENDMDL
MODEL 4
REMARK VINA RESULT:     -11.7      2.973      5.234
REMARK  Name = 46861612
REMARK  7 active torsions:
REMARK  status: ('A' for Active; 'I' for Inactive)
REMARK    1  A    between atoms: C_1  and  N_2
REMARK    2  A    between atoms: C_1  and  C_17
REMARK    3  A    between atoms: N_3  and  C_11
REMARK    4  A    between atoms: C_17  and  C_18
REMARK    5  A    between atoms: C_18  and  C_19
REMARK    6  A    between atoms: C_19  and  O_20
REMARK    7  A    between atoms: O_20  and  C_24
REMARK                            x       y       z     vdW  Elec       q    Type
REMARK                         _______ _______ _______ _____ _____    ______ ____
ROOT
ATOM      1  C   UNL     1      35.845 -21.058 -19.225  0.00  0.00    -0.077 C 
ENDROOT
BRANCH   1   2
ATOM      2  N   UNL     1      35.701 -20.255 -20.439  0.00  0.00    +0.389 N 
ATOM      3  N   UNL     1      35.090 -17.918 -21.962  0.00  0.00    -0.311 N 
ATOM      4  C   UNL     1      34.309 -19.824 -20.610  0.00  0.00    -0.055 C 
ATOM      5  C   UNL     1      36.584 -19.084 -20.388  0.00  0.00    -0.055 C 
ATOM      6  C   UNL     1      36.486 -18.265 -21.678  0.00  0.00    +0.068 C 
ATOM      7  C   UNL     1      34.134 -19.031 -21.907  0.00  0.00    +0.068 C 
ATOM      8  H   UNL     1      35.967 -20.834 -21.236  0.00  0.00    -0.080 HD
BRANCH   3  11
ATOM      9 CL   UNL     1      34.911 -15.237 -20.635  0.00  0.00    -0.080 Cl
ATOM     10 CL   UNL     1      34.243 -12.855 -22.682  0.00  0.00    -0.081 Cl
ATOM     11  C   UNL     1      34.802 -16.844 -22.813  0.00  0.00    +0.059 C 
ATOM     12  C   UNL     1      34.688 -15.540 -22.330  0.00  0.00    +0.081 C 
ATOM     13  C   UNL     1      34.626 -17.104 -24.172  0.00  0.00    +0.015 C 
ATOM     14  C   UNL     1      34.398 -14.495 -23.209  0.00  0.00    +0.069 C 
ATOM     15  C   UNL     1      34.338 -16.059 -25.049  0.00  0.00    +0.002 C 
ATOM     16  C   UNL     1      34.223 -14.755 -24.568  0.00  0.00    +0.012 C 
ENDBRANCH   3  11
ENDBRANCH   1   2
BRANCH   1  17
ATOM     17  C   UNL     1      34.935 -22.284 -19.288  0.00  0.00    -0.019 C 
BRANCH  17  18
ATOM     18  C   UNL     1      33.723 -22.120 -18.373  0.00  0.00    +0.045 C 
BRANCH  18  19
ATOM     19  C   UNL     1      33.612 -23.266 -17.376  0.00  0.00    +0.205 C 
BRANCH  19  20
ATOM     20  O   UNL     1      33.797 -22.775 -16.056  0.00  0.00    -0.475 OA
BRANCH  20  24
ATOM     21  O   UNL     1      38.472 -24.196 -13.477  0.00  0.00    -0.464 OA
ATOM     22  O   UNL     1      37.182 -26.606 -11.113  0.00  0.00    -0.271 OA
ATOM     23  N   UNL     1      36.032 -25.391 -12.690  0.00  0.00    -0.278 N 
ATOM     24  C   UNL     1      34.950 -23.147 -15.413  0.00  0.00    +0.140 C 
ATOM     25  C   UNL     1      34.903 -24.092 -14.389  0.00  0.00    +0.055 C 
ATOM     26  C   UNL     1      36.081 -24.471 -13.743  0.00  0.00    +0.088 C 
ATOM     27  C   UNL     1      36.168 -22.576 -15.783  0.00  0.00    +0.040 C 
ATOM     28  C   UNL     1      37.299 -23.905 -14.113  0.00  0.00    +0.153 C 
ATOM     29  C   UNL     1      37.343 -22.949 -15.128  0.00  0.00    +0.041 C 
ATOM     30  C   UNL     1      38.461 -25.424 -12.774  0.00  0.00    +0.290 C 
ATOM     31  C   UNL     1      37.177 -25.851 -12.083  0.00  0.00    +0.271 C 
ATOM     32  H   UNL     1      35.158 -25.717 -12.377  0.00  0.00    +0.155 HD
ENDBRANCH  20  24
ENDBRANCH  19  20
ENDBRANCH  18  19
ENDBRANCH  17  18
ENDBRANCH   1  17
TORSDOF 7
ENDMDL
MODEL 5
REMARK VINA RESULT:     -11.6      3.255      6.185
REMARK  Name = 46861612
REMARK  7 active torsions:
REMARK  status: ('A' for Active; 'I' for Inactive)
REMARK    1  A    between atoms: C_1  and  N_2
REMARK    2  A    between atoms: C_1  and  C_17
REMARK    3  A    between atoms: N_3  and  C_11
REMARK    4  A    between atoms: C_17  and  C_18
REMARK    5  A    between atoms: C_18  and  C_19
REMARK    6  A    between atoms: C_19  and  O_20
REMARK    7  A    between atoms: O_20  and  C_24
REMARK                            x       y       z     vdW  Elec       q    Type
REMARK                         _______ _______ _______ _____ _____    ______ ____
ROOT
ATOM      1  C   UNL     1      35.836 -21.734 -18.660  0.00  0.00    -0.077 C 
ENDROOT
BRANCH   1   2
ATOM      2  N   UNL     1      35.755 -20.884 -19.848  0.00  0.00    +0.389 N 
ATOM      3  N   UNL     1      35.290 -18.469 -21.299  0.00  0.00    -0.311 N 
ATOM      4  C   UNL     1      34.390 -20.379 -20.028  0.00  0.00    -0.055 C 
ATOM      5  C   UNL     1      36.694 -19.761 -19.741  0.00  0.00    -0.055 C 
ATOM      6  C   UNL     1      36.661 -18.895 -21.002  0.00  0.00    +0.068 C 
ATOM      7  C   UNL     1      34.279 -19.535 -21.300  0.00  0.00    +0.068 C 
ATOM      8  H   UNL     1      36.008 -21.449 -20.659  0.00  0.00    -0.080 HD
BRANCH   3  11
ATOM      9 CL   UNL     1      35.001 -15.856 -19.861  0.00  0.00    -0.080 Cl
ATOM     10 CL   UNL     1      34.501 -13.375 -21.836  0.00  0.00    -0.081 Cl
ATOM     11  C   UNL     1      35.071 -17.354 -22.117  0.00  0.00    +0.059 C 
ATOM     12  C   UNL     1      34.917 -16.075 -21.582  0.00  0.00    +0.081 C 
ATOM     13  C   UNL     1      35.006 -17.547 -23.496  0.00  0.00    +0.015 C 
ATOM     14  C   UNL     1      34.699 -14.988 -22.429  0.00  0.00    +0.069 C 
ATOM     15  C   UNL     1      34.790 -16.459 -24.343  0.00  0.00    +0.002 C 
ATOM     16  C   UNL     1      34.635 -15.180 -23.808  0.00  0.00    +0.012 C 
ENDBRANCH   3  11
ENDBRANCH   1   2
BRANCH   1  17
ATOM     17  C   UNL     1      36.753 -21.103 -17.615  0.00  0.00    -0.019 C 
BRANCH  17  18
ATOM     18  C   UNL     1      37.188 -22.128 -16.569  0.00  0.00    +0.045 C 
BRANCH  18  19
ATOM     19  C   UNL     1      36.116 -22.339 -15.509  0.00  0.00    +0.205 C 
BRANCH  19  20
ATOM     20  O   UNL     1      35.425 -23.556 -15.759  0.00  0.00    -0.475 OA
BRANCH  20  24
ATOM     21  O   UNL     1      30.215 -23.839 -13.942  0.00  0.00    -0.464 OA
ATOM     22  O   UNL     1      28.491 -22.313 -16.728  0.00  0.00    -0.271 OA
ATOM     23  N   UNL     1      30.745 -22.685 -16.469  0.00  0.00    -0.278 N 
ATOM     24  C   UNL     1      34.126 -23.629 -15.328  0.00  0.00    +0.140 C 
ATOM     25  C   UNL     1      33.097 -23.132 -16.128  0.00  0.00    +0.055 C 
ATOM     26  C   UNL     1      31.775 -23.216 -15.686  0.00  0.00    +0.088 C 
ATOM     27  C   UNL     1      33.835 -24.196 -14.087  0.00  0.00    +0.040 C 
ATOM     28  C   UNL     1      31.483 -23.785 -14.448  0.00  0.00    +0.153 C 
ATOM     29  C   UNL     1      32.514 -24.268 -13.642  0.00  0.00    +0.041 C 
ATOM     30  C   UNL     1      29.196 -23.736 -14.918  0.00  0.00    +0.290 C 
ATOM     31  C   UNL     1      29.425 -22.819 -16.109  0.00  0.00    +0.271 C 
ATOM     32  H   UNL     1      30.970 -22.206 -17.298  0.00  0.00    +0.155 HD
ENDBRANCH  20  24
ENDBRANCH  19  20
ENDBRANCH  18  19
ENDBRANCH  17  18
ENDBRANCH   1  17
TORSDOF 7
ENDMDL
MODEL 6
REMARK VINA RESULT:     -11.4      4.826     11.160
REMARK  Name = 46861612
REMARK  7 active torsions:
REMARK  status: ('A' for Active; 'I' for Inactive)
REMARK    1  A    between atoms: C_1  and  N_2
REMARK    2  A    between atoms: C_1  and  C_17
REMARK    3  A    between atoms: N_3  and  C_11
REMARK    4  A    between atoms: C_17  and  C_18
REMARK    5  A    between atoms: C_18  and  C_19
REMARK    6  A    between atoms: C_19  and  O_20
REMARK    7  A    between atoms: O_20  and  C_24
REMARK                            x       y       z     vdW  Elec       q    Type
REMARK                         _______ _______ _______ _____ _____    ______ ____
ROOT
ATOM      1  C   UNL     1      34.573 -15.909 -24.015  0.00  0.00    -0.077 C 
ENDROOT
BRANCH   1   2
ATOM      2  N   UNL     1      35.121 -16.989 -23.196  0.00  0.00    +0.389 N 
ATOM      3  N   UNL     1      35.085 -18.995 -21.164  0.00  0.00    -0.311 N 
ATOM      4  C   UNL     1      35.125 -16.610 -21.778  0.00  0.00    -0.055 C 
ATOM      5  C   UNL     1      34.344 -18.220 -23.381  0.00  0.00    -0.055 C 
ATOM      6  C   UNL     1      34.941 -19.375 -22.573  0.00  0.00    +0.068 C 
ATOM      7  C   UNL     1      35.749 -17.709 -20.917  0.00  0.00    +0.068 C 
ATOM      8  H   UNL     1      36.082 -17.158 -23.495  0.00  0.00    -0.080 HD
BRANCH   3  11
ATOM      9 CL   UNL     1      32.488 -20.137 -20.198  0.00  0.00    -0.080 Cl
ATOM     10 CL   UNL     1      32.860 -22.405 -17.956  0.00  0.00    -0.081 Cl
ATOM     11  C   UNL     1      35.193 -19.990 -20.185  0.00  0.00    +0.059 C 
ATOM     12  C   UNL     1      34.066 -20.609 -19.644  0.00  0.00    +0.081 C 
ATOM     13  C   UNL     1      36.467 -20.359 -19.752  0.00  0.00    +0.015 C 
ATOM     14  C   UNL     1      34.213 -21.596 -18.670  0.00  0.00    +0.069 C 
ATOM     15  C   UNL     1      36.613 -21.346 -18.778  0.00  0.00    +0.002 C 
ATOM     16  C   UNL     1      35.486 -21.964 -18.237  0.00  0.00    +0.012 C 
ENDBRANCH   3  11
ENDBRANCH   1   2
BRANCH   1  17
ATOM     17  C   UNL     1      34.746 -14.565 -23.309  0.00  0.00    -0.019 C 
BRANCH  17  18
ATOM     18  C   UNL     1      33.415 -13.822 -23.200  0.00  0.00    +0.045 C 
BRANCH  18  19
ATOM     19  C   UNL     1      33.126 -13.395 -21.768  0.00  0.00    +0.205 C 
BRANCH  19  20
ATOM     20  O   UNL     1      31.896 -12.684 -21.717  0.00  0.00    -0.475 OA
BRANCH  20  24
ATOM     21  O   UNL     1      32.117  -7.514 -19.781  0.00  0.00    -0.464 OA
ATOM     22  O   UNL     1      33.407  -5.805 -22.692  0.00  0.00    -0.271 OA
ATOM     23  N   UNL     1      32.942  -8.041 -22.435  0.00  0.00    -0.278 N 
ATOM     24  C   UNL     1      31.946 -11.394 -21.256  0.00  0.00    +0.140 C 
ATOM     25  C   UNL     1      32.405 -10.373 -22.088  0.00  0.00    +0.055 C 
ATOM     26  C   UNL     1      32.447  -9.061 -21.615  0.00  0.00    +0.088 C 
ATOM     27  C   UNL     1      31.543 -11.104 -19.952  0.00  0.00    +0.040 C 
ATOM     28  C   UNL     1      32.041  -8.769 -20.314  0.00  0.00    +0.153 C 
ATOM     29  C   UNL     1      31.597  -9.793 -19.477  0.00  0.00    +0.041 C 
ATOM     30  C   UNL     1      32.165  -6.477 -20.744  0.00  0.00    +0.290 C 
ATOM     31  C   UNL     1      32.924  -6.725 -22.036  0.00  0.00    +0.271 C 
ATOM     32  H   UNL     1      33.309  -8.271 -23.318  0.00  0.00    +0.155 HD
ENDBRANCH  20  24
ENDBRANCH  19  20
ENDBRANCH  18  19
ENDBRANCH  17  18
ENDBRANCH   1  17
TORSDOF 7
ENDMDL
MODEL 7
REMARK VINA RESULT:     -10.8      2.745      3.838
REMARK  Name = 46861612
REMARK  7 active torsions:
REMARK  status: ('A' for Active; 'I' for Inactive)
REMARK    1  A    between atoms: C_1  and  N_2
REMARK    2  A    between atoms: C_1  and  C_17
REMARK    3  A    between atoms: N_3  and  C_11
REMARK    4  A    between atoms: C_17  and  C_18
REMARK    5  A    between atoms: C_18  and  C_19
REMARK    6  A    between atoms: C_19  and  O_20
REMARK    7  A    between atoms: O_20  and  C_24
REMARK                            x       y       z     vdW  Elec       q    Type
REMARK                         _______ _______ _______ _____ _____    ______ ____
ROOT
ATOM      1  C   UNL     1      35.766 -18.967 -21.593  0.00  0.00    -0.077 C 
ENDROOT
BRANCH   1   2
ATOM      2  N   UNL     1      35.676 -17.520 -21.783  0.00  0.00    +0.389 N 
ATOM      3  N   UNL     1      34.357 -14.996 -22.002  0.00  0.00    -0.311 N 
ATOM      4  C   UNL     1      34.868 -17.205 -22.967  0.00  0.00    -0.055 C 
ATOM      5  C   UNL     1      35.094 -16.881 -20.597  0.00  0.00    -0.055 C 
ATOM      6  C   UNL     1      35.046 -15.360 -20.759  0.00  0.00    +0.068 C 
ATOM      7  C   UNL     1      34.814 -15.695 -23.210  0.00  0.00    +0.068 C 
ATOM      8  H   UNL     1      36.620 -17.159 -21.922  0.00  0.00    -0.080 HD
BRANCH   3  11
ATOM      9 CL   UNL     1      32.353 -14.193 -19.924  0.00  0.00    -0.080 Cl
ATOM     10 CL   UNL     1      31.195 -11.231 -20.362  0.00  0.00    -0.081 Cl
ATOM     11  C   UNL     1      33.822 -13.711 -22.148  0.00  0.00    +0.059 C 
ATOM     12  C   UNL     1      32.878 -13.206 -21.253  0.00  0.00    +0.081 C 
ATOM     13  C   UNL     1      34.255 -12.931 -23.220  0.00  0.00    +0.015 C 
ATOM     14  C   UNL     1      32.367 -11.921 -21.432  0.00  0.00    +0.069 C 
ATOM     15  C   UNL     1      33.743 -11.646 -23.398  0.00  0.00    +0.002 C 
ATOM     16  C   UNL     1      32.799 -11.141 -22.504  0.00  0.00    +0.012 C 
ENDBRANCH   3  11
ENDBRANCH   1   2
BRANCH   1  17
ATOM     17  C   UNL     1      34.890 -19.406 -20.421  0.00  0.00    -0.019 C 
BRANCH  17  18
ATOM     18  C   UNL     1      35.474 -20.633 -19.723  0.00  0.00    +0.045 C 
BRANCH  18  19
ATOM     19  C   UNL     1      34.385 -21.613 -19.306  0.00  0.00    +0.205 C 
BRANCH  19  20
ATOM     20  O   UNL     1      34.878 -22.475 -18.289  0.00  0.00    -0.475 OA
BRANCH  20  24
ATOM     21  O   UNL     1      31.598 -23.383 -13.936  0.00  0.00    -0.464 OA
ATOM     22  O   UNL     1      28.366 -22.831 -15.455  0.00  0.00    -0.271 OA
ATOM     23  N   UNL     1      30.445 -22.696 -16.426  0.00  0.00    -0.278 N 
ATOM     24  C   UNL     1      34.049 -22.708 -17.222  0.00  0.00    +0.140 C 
ATOM     25  C   UNL     1      32.667 -22.597 -17.374  0.00  0.00    +0.055 C 
ATOM     26  C   UNL     1      31.829 -22.843 -16.286  0.00  0.00    +0.088 C 
ATOM     27  C   UNL     1      34.590 -23.052 -15.982  0.00  0.00    +0.040 C 
ATOM     28  C   UNL     1      32.368 -23.190 -15.048  0.00  0.00    +0.153 C 
ATOM     29  C   UNL     1      33.751 -23.286 -14.893  0.00  0.00    +0.041 C 
ATOM     30  C   UNL     1      30.243 -23.684 -14.214  0.00  0.00    +0.290 C 
ATOM     31  C   UNL     1      29.581 -23.007 -15.402  0.00  0.00    +0.271 C 
ATOM     32  H   UNL     1      30.081 -22.364 -17.277  0.00  0.00    +0.155 HD
ENDBRANCH  20  24
ENDBRANCH  19  20
ENDBRANCH  18  19
ENDBRANCH  17  18
ENDBRANCH   1  17
TORSDOF 7
ENDMDL
MODEL 8
REMARK VINA RESULT:     -10.7      2.663      4.563
REMARK  Name = 46861612
REMARK  7 active torsions:
REMARK  status: ('A' for Active; 'I' for Inactive)
REMARK    1  A    between atoms: C_1  and  N_2
REMARK    2  A    between atoms: C_1  and  C_17
REMARK    3  A    between atoms: N_3  and  C_11
REMARK    4  A    between atoms: C_17  and  C_18
REMARK    5  A    between atoms: C_18  and  C_19
REMARK    6  A    between atoms: C_19  and  O_20
REMARK    7  A    between atoms: O_20  and  C_24
REMARK                            x       y       z     vdW  Elec       q    Type
REMARK                         _______ _______ _______ _____ _____    ______ ____
ROOT
ATOM      1  C   UNL     1      33.680 -13.168 -22.106  0.00  0.00    -0.077 C 
ENDROOT
BRANCH   1   2
ATOM      2  N   UNL     1      32.961 -11.954 -22.491  0.00  0.00    +0.389 N 
ATOM      3  N   UNL     1      32.371  -9.160 -22.484  0.00  0.00    -0.311 N 
ATOM      4  C   UNL     1      32.337 -11.330 -21.319  0.00  0.00    -0.055 C 
ATOM      5  C   UNL     1      33.870 -11.001 -23.139  0.00  0.00    -0.055 C 
ATOM      6  C   UNL     1      33.119  -9.749 -23.599  0.00  0.00    +0.068 C 
ATOM      7  C   UNL     1      31.533 -10.091 -21.717  0.00  0.00    +0.068 C 
ATOM      8  H   UNL     1      32.230 -12.215 -23.154  0.00  0.00    -0.080 HD
BRANCH   3  11
ATOM      9 CL   UNL     1      33.512  -7.383 -20.357  0.00  0.00    -0.080 Cl
ATOM     10 CL   UNL     1      32.535  -4.334 -20.598  0.00  0.00    -0.081 Cl
ATOM     11  C   UNL     1      31.976  -7.818 -22.546  0.00  0.00    +0.059 C 
ATOM     12  C   UNL     1      32.429  -6.879 -21.619  0.00  0.00    +0.081 C 
ATOM     13  C   UNL     1      31.107  -7.429 -23.565  0.00  0.00    +0.015 C 
ATOM     14  C   UNL     1      32.013  -5.551 -21.712  0.00  0.00    +0.069 C 
ATOM     15  C   UNL     1      30.692  -6.101 -23.658  0.00  0.00    +0.002 C 
ATOM     16  C   UNL     1      31.144  -5.162 -22.731  0.00  0.00    +0.012 C 
ENDBRANCH   3  11
ENDBRANCH   1   2
BRANCH   1  17
ATOM     17  C   UNL     1      34.466 -13.720 -23.294  0.00  0.00    -0.019 C 
BRANCH  17  18
ATOM     18  C   UNL     1      34.248 -15.223 -23.451  0.00  0.00    +0.045 C 
BRANCH  18  19
ATOM     19  C   UNL     1      35.225 -16.025 -22.600  0.00  0.00    +0.205 C 
BRANCH  19  20
ATOM     20  O   UNL     1      35.122 -17.405 -22.921  0.00  0.00    -0.475 OA
BRANCH  20  24
ATOM     21  O   UNL     1      36.039 -20.937 -18.772  0.00  0.00    -0.464 OA
ATOM     22  O   UNL     1      32.723 -22.319 -18.375  0.00  0.00    -0.271 OA
ATOM     23  N   UNL     1      33.439 -20.722 -19.866  0.00  0.00    -0.278 N 
ATOM     24  C   UNL     1      35.335 -18.295 -21.900  0.00  0.00    +0.140 C 
ATOM     25  C   UNL     1      34.279 -19.066 -21.415  0.00  0.00    +0.055 C 
ATOM     26  C   UNL     1      34.504 -19.975 -20.379  0.00  0.00    +0.088 C 
ATOM     27  C   UNL     1      36.608 -18.423 -21.343  0.00  0.00    +0.040 C 
ATOM     28  C   UNL     1      35.776 -20.107 -19.824  0.00  0.00    +0.153 C 
ATOM     29  C   UNL     1      36.828 -19.324 -20.300  0.00  0.00    +0.041 C 
ATOM     30  C   UNL     1      35.095 -21.978 -18.604  0.00  0.00    +0.290 C 
ATOM     31  C   UNL     1      33.634 -21.685 -18.903  0.00  0.00    +0.271 C 
ATOM     32  H   UNL     1      32.530 -20.557 -20.203  0.00  0.00    +0.155 HD
ENDBRANCH  20  24
ENDBRANCH  19  20
ENDBRANCH  18  19
ENDBRANCH  17  18
ENDBRANCH   1  17
TORSDOF 7
ENDMDL
MODEL 9
REMARK VINA RESULT:     -10.6      3.160      5.861
REMARK  Name = 46861612
REMARK  7 active torsions:
REMARK  status: ('A' for Active; 'I' for Inactive)
REMARK    1  A    between atoms: C_1  and  N_2
REMARK    2  A    between atoms: C_1  and  C_17
REMARK    3  A    between atoms: N_3  and  C_11
REMARK    4  A    between atoms: C_17  and  C_18
REMARK    5  A    between atoms: C_18  and  C_19
REMARK    6  A    between atoms: C_19  and  O_20
REMARK    7  A    between atoms: O_20  and  C_24
REMARK                            x       y       z     vdW  Elec       q    Type
REMARK                         _______ _______ _______ _____ _____    ______ ____
ROOT
ATOM      1  C   UNL     1      35.950 -21.596 -18.777  0.00  0.00    -0.077 C 
ENDROOT
BRANCH   1   2
ATOM      2  N   UNL     1      35.822 -20.745 -19.959  0.00  0.00    +0.389 N 
ATOM      3  N   UNL     1      35.284 -18.333 -21.390  0.00  0.00    -0.311 N 
ATOM      4  C   UNL     1      34.446 -20.254 -20.095  0.00  0.00    -0.055 C 
ATOM      5  C   UNL     1      36.751 -19.612 -19.881  0.00  0.00    -0.055 C 
ATOM      6  C   UNL     1      36.669 -18.745 -21.139  0.00  0.00    +0.068 C 
ATOM      7  C   UNL     1      34.285 -19.410 -21.360  0.00  0.00    +0.068 C 
ATOM      8  H   UNL     1      36.055 -21.306 -20.780  0.00  0.00    -0.080 HD
BRANCH   3  11
ATOM      9 CL   UNL     1      34.947 -15.736 -19.934  0.00  0.00    -0.080 Cl
ATOM     10 CL   UNL     1      34.359 -13.258 -21.888  0.00  0.00    -0.081 Cl
ATOM     11  C   UNL     1      35.026 -17.220 -22.199  0.00  0.00    +0.059 C 
ATOM     12  C   UNL     1      34.847 -15.948 -21.655  0.00  0.00    +0.081 C 
ATOM     13  C   UNL     1      34.950 -17.406 -23.579  0.00  0.00    +0.015 C 
ATOM     14  C   UNL     1      34.591 -14.862 -22.492  0.00  0.00    +0.069 C 
ATOM     15  C   UNL     1      34.694 -16.320 -24.416  0.00  0.00    +0.002 C 
ATOM     16  C   UNL     1      34.514 -15.048 -23.872  0.00  0.00    +0.012 C 
ENDBRANCH   3  11
ENDBRANCH   1   2
BRANCH   1  17
ATOM     17  C   UNL     1      36.823 -20.916 -17.724  0.00  0.00    -0.019 C 
BRANCH  17  18
ATOM     18  C   UNL     1      37.443 -21.938 -16.774  0.00  0.00    +0.045 C 
BRANCH  18  19
ATOM     19  C   UNL     1      36.543 -22.209 -15.575  0.00  0.00    +0.205 C 
BRANCH  19  20
ATOM     20  O   UNL     1      35.893 -23.463 -15.734  0.00  0.00    -0.475 OA
BRANCH  20  24
ATOM     21  O   UNL     1      30.390 -23.537 -15.255  0.00  0.00    -0.464 OA
ATOM     22  O   UNL     1      30.071 -24.531 -11.795  0.00  0.00    -0.271 OA
ATOM     23  N   UNL     1      31.989 -24.205 -13.020  0.00  0.00    -0.278 N 
ATOM     24  C   UNL     1      34.530 -23.475 -15.595  0.00  0.00    +0.140 C 
ATOM     25  C   UNL     1      33.957 -23.820 -14.371  0.00  0.00    +0.055 C 
ATOM     26  C   UNL     1      32.568 -23.824 -14.235  0.00  0.00    +0.088 C 
ATOM     27  C   UNL     1      33.716 -23.147 -16.680  0.00  0.00    +0.040 C 
ATOM     28  C   UNL     1      31.754 -23.493 -15.316  0.00  0.00    +0.153 C 
ATOM     29  C   UNL     1      32.328 -23.162 -16.544  0.00  0.00    +0.041 C 
ATOM     30  C   UNL     1      29.866 -23.463 -13.942  0.00  0.00    +0.290 C 
ATOM     31  C   UNL     1      30.630 -24.144 -12.819  0.00  0.00    +0.271 C 
ATOM     32  H   UNL     1      32.568 -24.523 -12.291  0.00  0.00    +0.155 HD
ENDBRANCH  20  24
ENDBRANCH  19  20
ENDBRANCH  18  19
ENDBRANCH  17  18
ENDBRANCH   1  17
TORSDOF 7
ENDMDL
