MODEL 1
REMARK VINA RESULT:     -12.7      0.000      0.000
REMARK  Name = 10389239
REMARK  2 active torsions:
REMARK  status: ('A' for Active; 'I' for Inactive)
REMARK    1  A    between atoms: C_2  and  C_14
REMARK    2  A    between atoms: C_4  and  C_20
REMARK                            x       y       z     vdW  Elec       q    Type
REMARK                         _______ _______ _______ _____ _____    ______ ____
ROOT
ATOM      1  N   UNL     1      34.927 -17.555 -24.015  0.00  0.00    -0.244 NA
ATOM      2  C   UNL     1      34.105 -14.977 -23.314  0.00  0.00    +0.016 C 
ATOM      3  C   UNL     1      34.508 -15.872 -22.330  0.00  0.00    +0.020 C 
ATOM      4  C   UNL     1      34.906 -17.138 -22.729  0.00  0.00    +0.083 C 
ATOM      5  C   UNL     1      34.111 -15.369 -24.649  0.00  0.00    +0.022 C 
ATOM      6  C   UNL     1      34.528 -16.657 -24.943  0.00  0.00    +0.099 C 
ENDROOT
BRANCH   2  14
ATOM      7  O   UNL     1      34.051  -9.381 -23.679  0.00  0.00    -0.270 OA
ATOM      8  N   UNL     1      32.824 -13.414 -21.906  0.00  0.00    -0.316 N 
ATOM      9  N   UNL     1      32.360  -9.353 -22.104  0.00  0.00    -0.300 N 
ATOM     10  C   UNL     1      32.607 -12.071 -21.801  0.00  0.00    +0.031 C 
ATOM     11  C   UNL     1      31.766 -11.397 -20.784  0.00  0.00    +0.063 C 
ATOM     12  C   UNL     1      33.322 -11.429 -22.791  0.00  0.00    +0.064 C 
ATOM     13  C   UNL     1      31.303 -10.059 -21.369  0.00  0.00    +0.096 C 
ATOM     14  C   UNL     1      33.681 -13.645 -22.954  0.00  0.00    +0.048 C 
ATOM     15  C   UNL     1      34.011 -12.429 -23.518  0.00  0.00    +0.020 C 
ATOM     16  C   UNL     1      33.296  -9.984 -22.923  0.00  0.00    +0.247 C 
ATOM     17  H   UNL     1      32.430 -14.105 -21.325  0.00  0.00    +0.152 HD
ATOM     18  H   UNL     1      32.411  -8.375 -22.012  0.00  0.00    +0.150 HD
ENDBRANCH   2  14
BRANCH   4  20
ATOM     19  N   UNL     1      37.129 -19.111 -20.482  0.00  0.00    -0.244 NA
ATOM     20  C   UNL     1      35.338 -18.120 -21.763  0.00  0.00    +0.037 C 
ATOM     21  C   UNL     1      34.438 -19.004 -21.186  0.00  0.00    +0.005 C 
ATOM     22  C   UNL     1      34.882 -19.949 -20.250  0.00  0.00    +0.018 C 
ATOM     23  C   UNL     1      36.254 -19.968 -19.923  0.00  0.00    +0.081 C 
ATOM     24  C   UNL     1      36.661 -18.215 -21.381  0.00  0.00    +0.100 C 
ATOM     25  C   UNL     1      33.996 -20.859 -19.646  0.00  0.00    +0.001 C 
ATOM     26  C   UNL     1      36.693 -20.907 -18.994  0.00  0.00    +0.019 C 
ATOM     27  C   UNL     1      34.463 -21.787 -18.720  0.00  0.00    +0.000 C 
ATOM     28  C   UNL     1      35.813 -21.811 -18.394  0.00  0.00    +0.002 C 
ENDBRANCH   4  20
TORSDOF 2
ENDMDL
MODEL 2
REMARK VINA RESULT:     -12.6      6.477     11.895
REMARK  Name = 10389239
REMARK  2 active torsions:
REMARK  status: ('A' for Active; 'I' for Inactive)
REMARK    1  A    between atoms: C_2  and  C_14
REMARK    2  A    between atoms: C_4  and  C_20
REMARK                            x       y       z     vdW  Elec       q    Type
REMARK                         _______ _______ _______ _____ _____    ______ ____
ROOT
ATOM      1  N   UNL     1      32.342 -22.357 -17.652  0.00  0.00    -0.244 NA
ATOM      2  C   UNL     1      34.235 -23.368 -15.862  0.00  0.00    +0.016 C 
ATOM      3  C   UNL     1      34.636 -22.550 -16.911  0.00  0.00    +0.020 C 
ATOM      4  C   UNL     1      33.659 -22.075 -17.772  0.00  0.00    +0.083 C 
ATOM      5  C   UNL     1      32.890 -23.683 -15.705  0.00  0.00    +0.022 C 
ATOM      6  C   UNL     1      31.991 -23.155 -16.619  0.00  0.00    +0.099 C 
ENDROOT
BRANCH   2  14
ATOM      7  O   UNL     1      36.004 -25.416 -10.949  0.00  0.00    -0.270 OA
ATOM      8  N   UNL     1      36.546 -23.968 -15.253  0.00  0.00    -0.316 N 
ATOM      9  N   UNL     1      38.089 -25.726 -11.896  0.00  0.00    -0.300 N 
ATOM     10  C   UNL     1      37.222 -24.495 -14.191  0.00  0.00    +0.031 C 
ATOM     11  C   UNL     1      38.684 -24.720 -14.111  0.00  0.00    +0.063 C 
ATOM     12  C   UNL     1      36.321 -24.766 -13.183  0.00  0.00    +0.064 C 
ATOM     13  C   UNL     1      38.931 -25.838 -13.092  0.00  0.00    +0.096 C 
ATOM     14  C   UNL     1      35.211 -23.891 -14.936  0.00  0.00    +0.048 C 
ATOM     15  C   UNL     1      35.045 -24.374 -13.653  0.00  0.00    +0.020 C 
ATOM     16  C   UNL     1      36.753 -25.326 -11.917  0.00  0.00    +0.247 C 
ATOM     17  H   UNL     1      36.948 -23.690 -16.108  0.00  0.00    +0.152 HD
ATOM     18  H   UNL     1      38.492 -25.947 -11.025  0.00  0.00    +0.150 HD
ENDBRANCH   2  14
BRANCH   4  20
ATOM     19  N   UNL     1      33.301 -20.023 -20.861  0.00  0.00    -0.244 NA
ATOM     20  C   UNL     1      34.000 -21.220 -18.884  0.00  0.00    +0.037 C 
ATOM     21  C   UNL     1      35.299 -20.771 -19.074  0.00  0.00    +0.005 C 
ATOM     22  C   UNL     1      35.605 -19.942 -20.162  0.00  0.00    +0.018 C 
ATOM     23  C   UNL     1      34.562 -19.588 -21.043  0.00  0.00    +0.081 C 
ATOM     24  C   UNL     1      33.046 -20.821 -19.799  0.00  0.00    +0.100 C 
ATOM     25  C   UNL     1      36.911 -19.469 -20.381  0.00  0.00    +0.001 C 
ATOM     26  C   UNL     1      34.867 -18.765 -22.123  0.00  0.00    +0.019 C 
ATOM     27  C   UNL     1      37.188 -18.647 -21.471  0.00  0.00    +0.000 C 
ATOM     28  C   UNL     1      36.165 -18.294 -22.342  0.00  0.00    +0.002 C 
ENDBRANCH   4  20
TORSDOF 2
ENDMDL
MODEL 3
REMARK VINA RESULT:     -11.9      6.171     11.384
REMARK  Name = 10389239
REMARK  2 active torsions:
REMARK  status: ('A' for Active; 'I' for Inactive)
REMARK    1  A    between atoms: C_2  and  C_14
REMARK    2  A    between atoms: C_4  and  C_20
REMARK                            x       y       z     vdW  Elec       q    Type
REMARK                         _______ _______ _______ _____ _____    ______ ____
ROOT
ATOM      1  N   UNL     1      33.478 -22.496 -18.370  0.00  0.00    -0.244 NA
ATOM      2  C   UNL     1      34.854 -23.036 -15.998  0.00  0.00    +0.016 C 
ATOM      3  C   UNL     1      35.378 -22.135 -16.918  0.00  0.00    +0.020 C 
ATOM      4  C   UNL     1      34.658 -21.902 -18.079  0.00  0.00    +0.083 C 
ATOM      5  C   UNL     1      33.644 -23.669 -16.262  0.00  0.00    +0.022 C 
ATOM      6  C   UNL     1      33.001 -23.365 -17.451  0.00  0.00    +0.099 C 
ENDROOT
BRANCH   2  14
ATOM      7  O   UNL     1      39.271 -24.610 -12.920  0.00  0.00    -0.270 OA
ATOM      8  N   UNL     1      34.948 -23.253 -13.546  0.00  0.00    -0.316 N 
ATOM      9  N   UNL     1      38.057 -24.093 -11.022  0.00  0.00    -0.300 N 
ATOM     10  C   UNL     1      35.858 -23.569 -12.579  0.00  0.00    +0.031 C 
ATOM     11  C   UNL     1      35.595 -23.646 -11.123  0.00  0.00    +0.063 C 
ATOM     12  C   UNL     1      37.071 -23.831 -13.181  0.00  0.00    +0.064 C 
ATOM     13  C   UNL     1      36.922 -23.408 -10.393  0.00  0.00    +0.096 C 
ATOM     14  C   UNL     1      35.563 -23.316 -14.772  0.00  0.00    +0.048 C 
ATOM     15  C   UNL     1      36.881 -23.678 -14.576  0.00  0.00    +0.020 C 
ATOM     16  C   UNL     1      38.234 -24.208 -12.401  0.00  0.00    +0.247 C 
ATOM     17  H   UNL     1      34.004 -23.019 -13.390  0.00  0.00    +0.152 HD
ATOM     18  H   UNL     1      38.736 -24.497 -10.434  0.00  0.00    +0.150 HD
ENDBRANCH   2  14
BRANCH   4  20
ATOM     19  N   UNL     1      36.947 -19.644 -19.960  0.00  0.00    -0.244 NA
ATOM     20  C   UNL     1      35.139 -20.980 -19.079  0.00  0.00    +0.037 C 
ATOM     21  C   UNL     1      34.314 -20.535 -20.102  0.00  0.00    +0.005 C 
ATOM     22  C   UNL     1      34.804 -19.639 -21.062  0.00  0.00    +0.018 C 
ATOM     23  C   UNL     1      36.145 -19.213 -20.952  0.00  0.00    +0.081 C 
ATOM     24  C   UNL     1      36.436 -20.508 -19.053  0.00  0.00    +0.100 C 
ATOM     25  C   UNL     1      33.995 -19.169 -22.112  0.00  0.00    +0.001 C 
ATOM     26  C   UNL     1      36.631 -18.324 -21.906  0.00  0.00    +0.019 C 
ATOM     27  C   UNL     1      34.508 -18.279 -23.052  0.00  0.00    +0.000 C 
ATOM     28  C   UNL     1      35.827 -17.857 -22.949  0.00  0.00    +0.002 C 
ENDBRANCH   4  20
TORSDOF 2
ENDMDL
MODEL 4
REMARK VINA RESULT:     -11.8      5.404      9.029
REMARK  Name = 10389239
REMARK  2 active torsions:
REMARK  status: ('A' for Active; 'I' for Inactive)
REMARK    1  A    between atoms: C_2  and  C_14
REMARK    2  A    between atoms: C_4  and  C_20
REMARK                            x       y       z     vdW  Elec       q    Type
REMARK                         _______ _______ _______ _____ _____    ______ ____
ROOT
ATOM      1  N   UNL     1      35.987 -23.251 -15.235  0.00  0.00    -0.244 NA
ATOM      2  C   UNL     1      35.996 -21.680 -17.546  0.00  0.00    +0.016 C 
ATOM      3  C   UNL     1      34.798 -22.174 -17.044  0.00  0.00    +0.020 C 
ATOM      4  C   UNL     1      34.847 -22.948 -15.896  0.00  0.00    +0.083 C 
ATOM      5  C   UNL     1      37.191 -21.970 -16.896  0.00  0.00    +0.022 C 
ATOM      6  C   UNL     1      37.132 -22.752 -15.753  0.00  0.00    +0.099 C 
ENDROOT
BRANCH   2  14
ATOM      7  O   UNL     1      38.297 -18.321 -21.404  0.00  0.00    -0.270 OA
ATOM      8  N   UNL     1      34.859 -20.631 -19.464  0.00  0.00    -0.316 N 
ATOM      9  N   UNL     1      36.302 -18.392 -22.570  0.00  0.00    -0.300 N 
ATOM     10  C   UNL     1      35.168 -19.834 -20.528  0.00  0.00    +0.031 C 
ATOM     11  C   UNL     1      34.216 -19.322 -21.542  0.00  0.00    +0.063 C 
ATOM     12  C   UNL     1      36.519 -19.559 -20.497  0.00  0.00    +0.064 C 
ATOM     13  C   UNL     1      35.006 -19.033 -22.823  0.00  0.00    +0.096 C 
ATOM     14  C   UNL     1      36.002 -20.868 -18.740  0.00  0.00    +0.048 C 
ATOM     15  C   UNL     1      37.047 -20.209 -19.356  0.00  0.00    +0.020 C 
ATOM     16  C   UNL     1      37.140 -18.719 -21.504  0.00  0.00    +0.247 C 
ATOM     17  H   UNL     1      33.964 -20.980 -19.250  0.00  0.00    +0.152 HD
ATOM     18  H   UNL     1      36.598 -17.688 -23.191  0.00  0.00    +0.150 HD
ENDBRANCH   2  14
BRANCH   4  20
ATOM     19  N   UNL     1      32.600 -24.831 -13.596  0.00  0.00    -0.244 NA
ATOM     20  C   UNL     1      33.644 -23.495 -15.316  0.00  0.00    +0.037 C 
ATOM     21  C   UNL     1      32.399 -23.245 -15.874  0.00  0.00    +0.005 C 
ATOM     22  C   UNL     1      31.244 -23.787 -15.293  0.00  0.00    +0.018 C 
ATOM     23  C   UNL     1      31.393 -24.586 -14.140  0.00  0.00    +0.081 C 
ATOM     24  C   UNL     1      33.689 -24.289 -14.187  0.00  0.00    +0.100 C 
ATOM     25  C   UNL     1      29.968 -23.552 -15.833  0.00  0.00    +0.001 C 
ATOM     26  C   UNL     1      30.246 -25.124 -13.563  0.00  0.00    +0.019 C 
ATOM     27  C   UNL     1      28.838 -24.104 -15.236  0.00  0.00    +0.000 C 
ATOM     28  C   UNL     1      28.977 -24.890 -14.100  0.00  0.00    +0.002 C 
ENDBRANCH   4  20
TORSDOF 2
ENDMDL
MODEL 5
REMARK VINA RESULT:     -11.6      2.132      3.673
REMARK  Name = 10389239
REMARK  2 active torsions:
REMARK  status: ('A' for Active; 'I' for Inactive)
REMARK    1  A    between atoms: C_2  and  C_14
REMARK    2  A    between atoms: C_4  and  C_20
REMARK                            x       y       z     vdW  Elec       q    Type
REMARK                         _______ _______ _______ _____ _____    ______ ____
ROOT
ATOM      1  N   UNL     1      33.811 -13.881 -25.798  0.00  0.00    -0.244 NA
ATOM      2  C   UNL     1      33.461 -11.697 -24.092  0.00  0.00    +0.016 C 
ATOM      3  C   UNL     1      33.720 -12.957 -23.566  0.00  0.00    +0.020 C 
ATOM      4  C   UNL     1      33.885 -14.007 -24.454  0.00  0.00    +0.083 C 
ATOM      5  C   UNL     1      33.376 -11.526 -25.469  0.00  0.00    +0.022 C 
ATOM      6  C   UNL     1      33.558 -12.641 -26.272  0.00  0.00    +0.099 C 
ENDROOT
BRANCH   2  14
ATOM      7  O   UNL     1      34.251  -6.423 -22.353  0.00  0.00    -0.270 OA
ATOM      8  N   UNL     1      32.559 -10.661 -22.046  0.00  0.00    -0.316 N 
ATOM      9  N   UNL     1      32.720  -6.813 -20.666  0.00  0.00    -0.300 N 
ATOM     10  C   UNL     1      32.564  -9.446 -21.425  0.00  0.00    +0.031 C 
ATOM     11  C   UNL     1      31.924  -9.125 -20.127  0.00  0.00    +0.063 C 
ATOM     12  C   UNL     1      33.287  -8.559 -22.194  0.00  0.00    +0.064 C 
ATOM     13  C   UNL     1      31.629  -7.621 -20.108  0.00  0.00    +0.096 C 
ATOM     14  C   UNL     1      33.281 -10.567 -23.211  0.00  0.00    +0.048 C 
ATOM     15  C   UNL     1      33.749  -9.273 -23.325  0.00  0.00    +0.020 C 
ATOM     16  C   UNL     1      33.476  -7.181 -21.778  0.00  0.00    +0.247 C 
ATOM     17  H   UNL     1      32.111 -11.473 -21.715  0.00  0.00    +0.152 HD
ATOM     18  H   UNL     1      32.931  -5.957 -20.227  0.00  0.00    +0.150 HD
ENDBRANCH   2  14
BRANCH   4  20
ATOM     19  N   UNL     1      34.113 -17.726 -24.379  0.00  0.00    -0.244 NA
ATOM     20  C   UNL     1      34.157 -15.344 -23.982  0.00  0.00    +0.037 C 
ATOM     21  C   UNL     1      34.703 -15.566 -22.726  0.00  0.00    +0.005 C 
ATOM     22  C   UNL     1      34.957 -16.874 -22.290  0.00  0.00    +0.018 C 
ATOM     23  C   UNL     1      34.642 -17.939 -23.160  0.00  0.00    +0.081 C 
ATOM     24  C   UNL     1      33.882 -16.449 -24.763  0.00  0.00    +0.100 C 
ATOM     25  C   UNL     1      35.511 -17.132 -21.024  0.00  0.00    +0.001 C 
ATOM     26  C   UNL     1      34.896 -19.236 -22.726  0.00  0.00    +0.019 C 
ATOM     27  C   UNL     1      35.753 -18.441 -20.615  0.00  0.00    +0.000 C 
ATOM     28  C   UNL     1      35.445 -19.494 -21.468  0.00  0.00    +0.002 C 
ENDBRANCH   4  20
TORSDOF 2
ENDMDL
MODEL 6
REMARK VINA RESULT:     -11.5      5.026      8.638
REMARK  Name = 10389239
REMARK  2 active torsions:
REMARK  status: ('A' for Active; 'I' for Inactive)
REMARK    1  A    between atoms: C_2  and  C_14
REMARK    2  A    between atoms: C_4  and  C_20
REMARK                            x       y       z     vdW  Elec       q    Type
REMARK                         _______ _______ _______ _____ _____    ______ ____
ROOT
ATOM      1  N   UNL     1      33.885 -23.639 -16.465  0.00  0.00    -0.244 NA
ATOM      2  C   UNL     1      34.623 -21.794 -18.429  0.00  0.00    +0.016 C 
ATOM      3  C   UNL     1      35.411 -21.957 -17.296  0.00  0.00    +0.020 C 
ATOM      4  C   UNL     1      35.001 -22.885 -16.351  0.00  0.00    +0.083 C 
ATOM      5  C   UNL     1      33.467 -22.550 -18.583  0.00  0.00    +0.022 C 
ATOM      6  C   UNL     1      33.145 -23.452 -17.581  0.00  0.00    +0.099 C 
ENDROOT
BRANCH   2  14
ATOM      7  O   UNL     1      38.179 -18.458 -21.202  0.00  0.00    -0.270 OA
ATOM      8  N   UNL     1      34.083 -20.282 -20.298  0.00  0.00    -0.316 N 
ATOM      9  N   UNL     1      36.472 -17.966 -22.680  0.00  0.00    -0.300 N 
ATOM     10  C   UNL     1      34.728 -19.422 -21.140  0.00  0.00    +0.031 C 
ATOM     11  C   UNL     1      34.097 -18.594 -22.194  0.00  0.00    +0.063 C 
ATOM     12  C   UNL     1      36.073 -19.430 -20.836  0.00  0.00    +0.064 C 
ATOM     13  C   UNL     1      35.162 -18.293 -23.255  0.00  0.00    +0.096 C 
ATOM     14  C   UNL     1      35.003 -20.841 -19.445  0.00  0.00    +0.048 C 
ATOM     15  C   UNL     1      36.246 -20.325 -19.753  0.00  0.00    +0.020 C 
ATOM     16  C   UNL     1      37.014 -18.599 -21.562  0.00  0.00    +0.247 C 
ATOM     17  H   UNL     1      33.117 -20.471 -20.301  0.00  0.00    +0.152 HD
ATOM     18  H   UNL     1      37.000 -17.255 -23.111  0.00  0.00    +0.150 HD
ENDBRANCH   2  14
BRANCH   4  20
ATOM     19  N   UNL     1      37.924 -23.312 -14.080  0.00  0.00    -0.244 NA
ATOM     20  C   UNL     1      35.768 -23.109 -15.149  0.00  0.00    +0.037 C 
ATOM     21  C   UNL     1      35.146 -23.335 -13.930  0.00  0.00    +0.005 C 
ATOM     22  C   UNL     1      35.912 -23.550 -12.777  0.00  0.00    +0.018 C 
ATOM     23  C   UNL     1      37.317 -23.531 -12.899  0.00  0.00    +0.081 C 
ATOM     24  C   UNL     1      37.149 -23.109 -15.170  0.00  0.00    +0.100 C 
ATOM     25  C   UNL     1      35.312 -23.781 -11.527  0.00  0.00    +0.001 C 
ATOM     26  C   UNL     1      38.078 -23.745 -11.753  0.00  0.00    +0.019 C 
ATOM     27  C   UNL     1      36.097 -23.992 -10.396  0.00  0.00    +0.000 C 
ATOM     28  C   UNL     1      37.481 -23.974 -10.510  0.00  0.00    +0.002 C 
ENDBRANCH   4  20
TORSDOF 2
ENDMDL
MODEL 7
REMARK VINA RESULT:     -11.4      3.948      7.179
REMARK  Name = 10389239
REMARK  2 active torsions:
REMARK  status: ('A' for Active; 'I' for Inactive)
REMARK    1  A    between atoms: C_2  and  C_14
REMARK    2  A    between atoms: C_4  and  C_20
REMARK                            x       y       z     vdW  Elec       q    Type
REMARK                         _______ _______ _______ _____ _____    ______ ____
ROOT
ATOM      1  N   UNL     1      35.691 -22.297 -17.749  0.00  0.00    -0.244 NA
ATOM      2  C   UNL     1      35.306 -20.443 -19.804  0.00  0.00    +0.016 C 
ATOM      3  C   UNL     1      34.219 -20.913 -19.077  0.00  0.00    +0.020 C 
ATOM      4  C   UNL     1      34.463 -21.831 -18.068  0.00  0.00    +0.083 C 
ATOM      5  C   UNL     1      36.586 -20.898 -19.507  0.00  0.00    +0.022 C 
ATOM      6  C   UNL     1      36.723 -21.817 -18.478  0.00  0.00    +0.099 C 
ENDROOT
BRANCH   2  14
ATOM      7  O   UNL     1      33.796 -18.783 -24.944  0.00  0.00    -0.270 OA
ATOM      8  N   UNL     1      35.496 -18.173 -20.742  0.00  0.00    -0.316 N 
ATOM      9  N   UNL     1      34.239 -16.606 -24.307  0.00  0.00    -0.300 N 
ATOM     10  C   UNL     1      35.189 -17.512 -21.896  0.00  0.00    +0.031 C 
ATOM     11  C   UNL     1      35.466 -16.085 -22.187  0.00  0.00    +0.063 C 
ATOM     12  C   UNL     1      34.595 -18.399 -22.769  0.00  0.00    +0.064 C 
ATOM     13  C   UNL     1      34.459 -15.618 -23.244  0.00  0.00    +0.096 C 
ATOM     14  C   UNL     1      35.109 -19.485 -20.866  0.00  0.00    +0.048 C 
ATOM     15  C   UNL     1      34.552 -19.654 -22.118  0.00  0.00    +0.020 C 
ATOM     16  C   UNL     1      34.168 -17.982 -24.092  0.00  0.00    +0.247 C 
ATOM     17  H   UNL     1      35.924 -17.775 -19.950  0.00  0.00    +0.152 HD
ATOM     18  H   UNL     1      34.135 -16.277 -25.229  0.00  0.00    +0.150 HD
ENDBRANCH   2  14
BRANCH   4  20
ATOM     19  N   UNL     1      31.010 -22.642 -16.928  0.00  0.00    -0.244 NA
ATOM     20  C   UNL     1      33.384 -22.363 -17.271  0.00  0.00    +0.037 C 
ATOM     21  C   UNL     1      33.633 -23.087 -16.114  0.00  0.00    +0.005 C 
ATOM     22  C   UNL     1      32.568 -23.594 -15.357  0.00  0.00    +0.018 C 
ATOM     23  C   UNL     1      31.254 -23.344 -15.806  0.00  0.00    +0.081 C 
ATOM     24  C   UNL     1      32.064 -22.170 -17.631  0.00  0.00    +0.100 C 
ATOM     25  C   UNL     1      32.787 -24.331 -14.180  0.00  0.00    +0.001 C 
ATOM     26  C   UNL     1      30.198 -23.848 -15.053  0.00  0.00    +0.019 C 
ATOM     27  C   UNL     1      31.711 -24.823 -13.446  0.00  0.00    +0.000 C 
ATOM     28  C   UNL     1      30.415 -24.580 -13.884  0.00  0.00    +0.002 C 
ENDBRANCH   4  20
TORSDOF 2
ENDMDL
MODEL 8
REMARK VINA RESULT:     -11.3      2.725      9.307
REMARK  Name = 10389239
REMARK  2 active torsions:
REMARK  status: ('A' for Active; 'I' for Inactive)
REMARK    1  A    between atoms: C_2  and  C_14
REMARK    2  A    between atoms: C_4  and  C_20
REMARK                            x       y       z     vdW  Elec       q    Type
REMARK                         _______ _______ _______ _____ _____    ______ ____
ROOT
ATOM      1  N   UNL     1      33.220 -11.593 -25.066  0.00  0.00    -0.244 NA
ATOM      2  C   UNL     1      33.971 -14.036 -23.935  0.00  0.00    +0.016 C 
ATOM      3  C   UNL     1      33.712 -12.941 -23.119  0.00  0.00    +0.020 C 
ATOM      4  C   UNL     1      33.343 -11.752 -23.729  0.00  0.00    +0.083 C 
ATOM      5  C   UNL     1      33.858 -13.913 -25.315  0.00  0.00    +0.022 C 
ATOM      6  C   UNL     1      33.481 -12.680 -25.826  0.00  0.00    +0.099 C 
ENDROOT
BRANCH   2  14
ATOM      7  O   UNL     1      36.023 -17.370 -19.918  0.00  0.00    -0.270 OA
ATOM      8  N   UNL     1      34.301 -16.474 -24.060  0.00  0.00    -0.316 N 
ATOM      9  N   UNL     1      35.494 -19.190 -21.241  0.00  0.00    -0.300 N 
ATOM     10  C   UNL     1      34.729 -17.493 -23.259  0.00  0.00    +0.031 C 
ATOM     11  C   UNL     1      34.848 -18.918 -23.645  0.00  0.00    +0.063 C 
ATOM     12  C   UNL     1      35.061 -16.976 -22.024  0.00  0.00    +0.064 C 
ATOM     13  C   UNL     1      34.748 -19.761 -22.369  0.00  0.00    +0.096 C 
ATOM     14  C   UNL     1      34.359 -15.298 -23.352  0.00  0.00    +0.048 C 
ATOM     15  C   UNL     1      34.833 -15.580 -22.086  0.00  0.00    +0.020 C 
ATOM     16  C   UNL     1      35.562 -17.826 -20.961  0.00  0.00    +0.247 C 
ATOM     17  H   UNL     1      33.999 -16.567 -24.992  0.00  0.00    +0.152 HD
ATOM     18  H   UNL     1      35.975 -19.809 -20.645  0.00  0.00    +0.150 HD
ENDBRANCH   2  14
BRANCH   4  20
ATOM     19  N   UNL     1      32.036  -9.585 -20.995  0.00  0.00    -0.244 NA
ATOM     20  C   UNL     1      33.057 -10.573 -22.947  0.00  0.00    +0.037 C 
ATOM     21  C   UNL     1      33.496  -9.320 -23.348  0.00  0.00    +0.005 C 
ATOM     22  C   UNL     1      33.206  -8.190 -22.572  0.00  0.00    +0.018 C 
ATOM     23  C   UNL     1      32.463  -8.370 -21.387  0.00  0.00    +0.081 C 
ATOM     24  C   UNL     1      32.336 -10.651 -21.772  0.00  0.00    +0.100 C 
ATOM     25  C   UNL     1      33.637  -6.906 -22.951  0.00  0.00    +0.001 C 
ATOM     26  C   UNL     1      32.175  -7.247 -20.616  0.00  0.00    +0.019 C 
ATOM     27  C   UNL     1      33.335  -5.800 -22.161  0.00  0.00    +0.000 C 
ATOM     28  C   UNL     1      32.603  -5.972 -20.992  0.00  0.00    +0.002 C 
ENDBRANCH   4  20
TORSDOF 2
ENDMDL
MODEL 9
REMARK VINA RESULT:     -11.3      2.894      9.323
REMARK  Name = 10389239
REMARK  2 active torsions:
REMARK  status: ('A' for Active; 'I' for Inactive)
REMARK    1  A    between atoms: C_2  and  C_14
REMARK    2  A    between atoms: C_4  and  C_20
REMARK                            x       y       z     vdW  Elec       q    Type
REMARK                         _______ _______ _______ _____ _____    ______ ____
ROOT
ATOM      1  N   UNL     1      33.216 -11.535 -25.125  0.00  0.00    -0.244 NA
ATOM      2  C   UNL     1      33.950 -13.984 -23.997  0.00  0.00    +0.016 C 
ATOM      3  C   UNL     1      33.701 -12.887 -23.180  0.00  0.00    +0.020 C 
ATOM      4  C   UNL     1      33.341 -11.695 -23.788  0.00  0.00    +0.083 C 
ATOM      5  C   UNL     1      33.834 -13.859 -25.377  0.00  0.00    +0.022 C 
ATOM      6  C   UNL     1      33.467 -12.623 -25.886  0.00  0.00    +0.099 C 
ENDROOT
BRANCH   2  14
ATOM      7  O   UNL     1      34.638 -19.550 -23.929  0.00  0.00    -0.270 OA
ATOM      8  N   UNL     1      34.754 -15.353 -22.114  0.00  0.00    -0.316 N 
ATOM      9  N   UNL     1      35.621 -19.344 -21.848  0.00  0.00    -0.300 N 
ATOM     10  C   UNL     1      35.037 -16.661 -21.845  0.00  0.00    +0.031 C 
ATOM     11  C   UNL     1      35.499 -17.207 -20.547  0.00  0.00    +0.063 C 
ATOM     12  C   UNL     1      34.799 -17.408 -22.980  0.00  0.00    +0.064 C 
ATOM     13  C   UNL     1      36.264 -18.505 -20.829  0.00  0.00    +0.096 C 
ATOM     14  C   UNL     1      34.329 -15.250 -23.416  0.00  0.00    +0.048 C 
ATOM     15  C   UNL     1      34.342 -16.512 -23.976  0.00  0.00    +0.020 C 
ATOM     16  C   UNL     1      35.002 -18.844 -22.993  0.00  0.00    +0.247 C 
ATOM     17  H   UNL     1      34.842 -14.606 -21.479  0.00  0.00    +0.152 HD
ATOM     18  H   UNL     1      35.628 -20.319 -21.714  0.00  0.00    +0.150 HD
ENDBRANCH   2  14
BRANCH   4  20
ATOM     19  N   UNL     1      32.078  -9.523 -21.038  0.00  0.00    -0.244 NA
ATOM     20  C   UNL     1      33.067 -10.515 -23.005  0.00  0.00    +0.037 C 
ATOM     21  C   UNL     1      33.495  -9.262 -23.419  0.00  0.00    +0.005 C 
ATOM     22  C   UNL     1      33.216  -8.130 -22.640  0.00  0.00    +0.018 C 
ATOM     23  C   UNL     1      32.495  -8.308 -21.441  0.00  0.00    +0.081 C 
ATOM     24  C   UNL     1      32.367 -10.590 -21.817  0.00  0.00    +0.100 C 
ATOM     25  C   UNL     1      33.637  -6.846 -23.031  0.00  0.00    +0.001 C 
ATOM     26  C   UNL     1      32.219  -7.183 -20.669  0.00  0.00    +0.019 C 
ATOM     27  C   UNL     1      33.346  -5.738 -22.239  0.00  0.00    +0.000 C 
ATOM     28  C   UNL     1      32.637  -5.908 -21.057  0.00  0.00    +0.002 C 
ENDBRANCH   4  20
TORSDOF 2
ENDMDL
