MODEL 1
REMARK VINA RESULT:     -11.5      0.000      0.000
REMARK  Name = 1150567
REMARK  6 active torsions:
REMARK  status: ('A' for Active; 'I' for Inactive)
REMARK    1  A    between atoms: C_1  and  C_3
REMARK    2  A    between atoms: C_1  and  C_17
REMARK    3  A    between atoms: C_10  and  O_12
REMARK    4  A    between atoms: C_11  and  O_14
REMARK    5  A    between atoms: N_16  and  C_23
REMARK    6  A    between atoms: C_23  and  C_24
REMARK                            x       y       z     vdW  Elec       q    Type
REMARK                         _______ _______ _______ _____ _____    ______ ____
ROOT
ATOM      1  C   UNL     1      34.961 -19.453 -22.517  0.00  0.00    +0.008 C 
ENDROOT
BRANCH   1   3
ATOM      2  O   UNL     1      32.472 -20.054 -20.914  0.00  0.00    -0.291 OA
ATOM      3  C   UNL     1      34.795 -19.286 -21.019  0.00  0.00    +0.066 C 
ATOM      4  C   UNL     1      36.014 -19.807 -20.223  0.00  0.00    +0.034 C 
ATOM      5  C   UNL     1      33.618 -20.094 -20.502  0.00  0.00    +0.173 C 
ATOM      6  C   UNL     1      35.426 -20.769 -19.241  0.00  0.00    -0.016 C 
ATOM      7  C   UNL     1      34.057 -20.943 -19.406  0.00  0.00    +0.034 C 
ATOM      8  C   UNL     1      36.092 -21.473 -18.251  0.00  0.00    +0.036 C 
ATOM      9  C   UNL     1      33.306 -21.796 -18.620  0.00  0.00    +0.043 C 
ATOM     10  C   UNL     1      35.359 -22.344 -17.438  0.00  0.00    +0.172 C 
ATOM     11  C   UNL     1      33.976 -22.504 -17.622  0.00  0.00    +0.172 C 
BRANCH  10  12
ATOM     12  O   UNL     1      36.006 -23.041 -16.461  0.00  0.00    -0.468 OA
ATOM     13  C   UNL     1      36.979 -22.333 -15.697  0.00  0.00    +0.253 C 
ENDBRANCH  10  12
BRANCH  11  14
ATOM     14  O   UNL     1      33.273 -23.358 -16.825  0.00  0.00    -0.468 OA
ATOM     15  C   UNL     1      31.976 -22.936 -16.410  0.00  0.00    +0.253 C 
ENDBRANCH  11  14
ENDBRANCH   1   3
BRANCH   1  17
ATOM     16  N   UNL     1      34.057 -15.397 -23.693  0.00  0.00    +0.390 N 
ATOM     17  C   UNL     1      35.078 -18.105 -23.220  0.00  0.00    -0.004 C 
ATOM     18  C   UNL     1      33.850 -17.829 -24.093  0.00  0.00    -0.023 C 
ATOM     19  C   UNL     1      35.257 -16.969 -22.206  0.00  0.00    -0.023 C 
ATOM     20  C   UNL     1      33.914 -16.435 -24.721  0.00  0.00    -0.077 C 
ATOM     21  C   UNL     1      35.275 -15.603 -22.896  0.00  0.00    -0.077 C 
ATOM     22  H   UNL     1      33.256 -15.462 -23.066  0.00  0.00    -0.079 HD
BRANCH  16  23
ATOM     23  C   UNL     1      34.065 -14.068 -24.304  0.00  0.00    -0.050 C 
BRANCH  23  24
ATOM     24  C   UNL     1      33.457 -13.030 -23.398  0.00  0.00    -0.043 C 
ATOM     25  C   UNL     1      33.640 -11.684 -23.684  0.00  0.00    -0.006 C 
ATOM     26  C   UNL     1      32.724 -13.433 -22.291  0.00  0.00    -0.006 C 
ATOM     27  C   UNL     1      33.078 -10.721 -22.845  0.00  0.00    -0.000 C 
ATOM     28  C   UNL     1      32.161 -12.469 -21.453  0.00  0.00    -0.000 C 
ATOM     29  C   UNL     1      32.339 -11.114 -21.731  0.00  0.00    -0.000 C 
ENDBRANCH  23  24
ENDBRANCH  16  23
ENDBRANCH   1  17
TORSDOF 6
ENDMDL
MODEL 2
REMARK VINA RESULT:     -11.1      1.549      2.911
REMARK  Name = 1150567
REMARK  6 active torsions:
REMARK  status: ('A' for Active; 'I' for Inactive)
REMARK    1  A    between atoms: C_1  and  C_3
REMARK    2  A    between atoms: C_1  and  C_17
REMARK    3  A    between atoms: C_10  and  O_12
REMARK    4  A    between atoms: C_11  and  O_14
REMARK    5  A    between atoms: N_16  and  C_23
REMARK    6  A    between atoms: C_23  and  C_24
REMARK                            x       y       z     vdW  Elec       q    Type
REMARK                         _______ _______ _______ _____ _____    ______ ____
ROOT
ATOM      1  C   UNL     1      36.044 -17.205 -21.245  0.00  0.00    +0.008 C 
ENDROOT
BRANCH   1   3
ATOM      2  O   UNL     1      37.717 -19.463 -20.137  0.00  0.00    -0.291 OA
ATOM      3  C   UNL     1      35.783 -18.688 -21.423  0.00  0.00    +0.066 C 
ATOM      4  C   UNL     1      34.293 -19.057 -21.230  0.00  0.00    +0.034 C 
ATOM      5  C   UNL     1      36.524 -19.507 -20.381  0.00  0.00    +0.173 C 
ATOM      6  C   UNL     1      34.314 -20.134 -20.193  0.00  0.00    -0.016 C 
ATOM      7  C   UNL     1      35.587 -20.385 -19.698  0.00  0.00    +0.034 C 
ATOM      8  C   UNL     1      33.233 -20.848 -19.701  0.00  0.00    +0.036 C 
ATOM      9  C   UNL     1      35.844 -21.328 -18.721  0.00  0.00    +0.043 C 
ATOM     10  C   UNL     1      33.460 -21.811 -18.712  0.00  0.00    +0.172 C 
ATOM     11  C   UNL     1      34.756 -22.049 -18.226  0.00  0.00    +0.172 C 
BRANCH  10  12
ATOM     12  O   UNL     1      32.403 -22.519 -18.221  0.00  0.00    -0.468 OA
ATOM     13  C   UNL     1      32.185 -22.461 -16.813  0.00  0.00    +0.253 C 
ENDBRANCH  10  12
BRANCH  11  14
ATOM     14  O   UNL     1      34.964 -22.989 -17.260  0.00  0.00    -0.468 OA
ATOM     15  C   UNL     1      35.780 -22.610 -16.154  0.00  0.00    +0.253 C 
ENDBRANCH  11  14
ENDBRANCH   1   3
BRANCH   1  17
ATOM     16  N   UNL     1      34.043 -13.905 -23.184  0.00  0.00    +0.390 N 
ATOM     17  C   UNL     1      34.927 -16.365 -21.856  0.00  0.00    -0.004 C 
ATOM     18  C   UNL     1      34.761 -15.039 -21.106  0.00  0.00    -0.023 C 
ATOM     19  C   UNL     1      35.192 -16.090 -23.340  0.00  0.00    -0.023 C 
ATOM     20  C   UNL     1      33.712 -14.148 -21.775  0.00  0.00    -0.077 C 
ATOM     21  C   UNL     1      34.128 -15.166 -23.935  0.00  0.00    -0.077 C 
ATOM     22  H   UNL     1      34.958 -13.456 -23.219  0.00  0.00    -0.079 HD
BRANCH  16  23
ATOM     23  C   UNL     1      33.059 -13.011 -23.795  0.00  0.00    -0.050 C 
BRANCH  23  24
ATOM     24  C   UNL     1      33.431 -11.563 -23.619  0.00  0.00    -0.043 C 
ATOM     25  C   UNL     1      32.713 -10.778 -22.727  0.00  0.00    -0.006 C 
ATOM     26  C   UNL     1      34.483 -11.033 -24.352  0.00  0.00    -0.006 C 
ATOM     27  C   UNL     1      33.056  -9.435 -22.564  0.00  0.00    -0.000 C 
ATOM     28  C   UNL     1      34.827  -9.690 -24.188  0.00  0.00    -0.000 C 
ATOM     29  C   UNL     1      34.113  -8.892 -23.294  0.00  0.00    -0.000 C 
ENDBRANCH  23  24
ENDBRANCH  16  23
ENDBRANCH   1  17
TORSDOF 6
ENDMDL
MODEL 3
REMARK VINA RESULT:     -11.0      2.039      3.918
REMARK  Name = 1150567
REMARK  6 active torsions:
REMARK  status: ('A' for Active; 'I' for Inactive)
REMARK    1  A    between atoms: C_1  and  C_3
REMARK    2  A    between atoms: C_1  and  C_17
REMARK    3  A    between atoms: C_10  and  O_12
REMARK    4  A    between atoms: C_11  and  O_14
REMARK    5  A    between atoms: N_16  and  C_23
REMARK    6  A    between atoms: C_23  and  C_24
REMARK                            x       y       z     vdW  Elec       q    Type
REMARK                         _______ _______ _______ _____ _____    ______ ____
ROOT
ATOM      1  C   UNL     1      36.390 -20.259 -18.977  0.00  0.00    +0.008 C 
ENDROOT
BRANCH   1   3
ATOM      2  O   UNL     1      37.354 -21.875 -16.614  0.00  0.00    -0.291 OA
ATOM      3  C   UNL     1      35.997 -21.685 -18.643  0.00  0.00    +0.066 C 
ATOM      4  C   UNL     1      34.481 -21.939 -18.809  0.00  0.00    +0.034 C 
ATOM      5  C   UNL     1      36.289 -22.011 -17.189  0.00  0.00    +0.173 C 
ATOM      6  C   UNL     1      34.057 -22.500 -17.490  0.00  0.00    -0.016 C 
ATOM      7  C   UNL     1      35.086 -22.532 -16.558  0.00  0.00    +0.034 C 
ATOM      8  C   UNL     1      32.795 -22.948 -17.133  0.00  0.00    +0.036 C 
ATOM      9  C   UNL     1      34.920 -22.996 -15.267  0.00  0.00    +0.043 C 
ATOM     10  C   UNL     1      32.595 -23.426 -15.834  0.00  0.00    +0.172 C 
ATOM     11  C   UNL     1      33.651 -23.449 -14.907  0.00  0.00    +0.172 C 
BRANCH  10  12
ATOM     12  O   UNL     1      31.357 -23.869 -15.473  0.00  0.00    -0.468 OA
ATOM     13  C   UNL     1      30.250 -23.031 -15.799  0.00  0.00    +0.253 C 
ENDBRANCH  10  12
BRANCH  11  14
ATOM     14  O   UNL     1      33.443 -23.915 -13.643  0.00  0.00    -0.468 OA
ATOM     15  C   UNL     1      34.565 -23.922 -12.764  0.00  0.00    +0.253 C 
ENDBRANCH  11  14
ENDBRANCH   1   3
BRANCH   1  17
ATOM     16  N   UNL     1      35.031 -17.962 -22.372  0.00  0.00    +0.390 N 
ATOM     17  C   UNL     1      36.030 -19.904 -20.416  0.00  0.00    -0.004 C 
ATOM     18  C   UNL     1      34.544 -19.552 -20.541  0.00  0.00    -0.023 C 
ATOM     19  C   UNL     1      36.882 -18.737 -20.925  0.00  0.00    -0.023 C 
ATOM     20  C   UNL     1      34.197 -19.098 -21.961  0.00  0.00    -0.077 C 
ATOM     21  C   UNL     1      36.459 -18.309 -22.332  0.00  0.00    -0.077 C 
ATOM     22  H   UNL     1      34.874 -17.201 -21.712  0.00  0.00    -0.079 HD
BRANCH  16  23
ATOM     23  C   UNL     1      34.653 -17.506 -23.710  0.00  0.00    -0.050 C 
BRANCH  23  24
ATOM     24  C   UNL     1      34.346 -16.033 -23.735  0.00  0.00    -0.043 C 
ATOM     25  C   UNL     1      34.755 -15.232 -22.677  0.00  0.00    -0.006 C 
ATOM     26  C   UNL     1      33.658 -15.496 -24.813  0.00  0.00    -0.006 C 
ATOM     27  C   UNL     1      34.470 -13.866 -22.699  0.00  0.00    -0.000 C 
ATOM     28  C   UNL     1      33.374 -14.129 -24.835  0.00  0.00    -0.000 C 
ATOM     29  C   UNL     1      33.781 -13.315 -23.778  0.00  0.00    -0.000 C 
ENDBRANCH  23  24
ENDBRANCH  16  23
ENDBRANCH   1  17
TORSDOF 6
ENDMDL
MODEL 4
REMARK VINA RESULT:     -11.0      1.967      3.439
REMARK  Name = 1150567
REMARK  6 active torsions:
REMARK  status: ('A' for Active; 'I' for Inactive)
REMARK    1  A    between atoms: C_1  and  C_3
REMARK    2  A    between atoms: C_1  and  C_17
REMARK    3  A    between atoms: C_10  and  O_12
REMARK    4  A    between atoms: C_11  and  O_14
REMARK    5  A    between atoms: N_16  and  C_23
REMARK    6  A    between atoms: C_23  and  C_24
REMARK                            x       y       z     vdW  Elec       q    Type
REMARK                         _______ _______ _______ _____ _____    ______ ____
ROOT
ATOM      1  C   UNL     1      36.001 -16.437 -21.867  0.00  0.00    +0.008 C 
ENDROOT
BRANCH   1   3
ATOM      2  O   UNL     1      37.871 -18.600 -20.892  0.00  0.00    -0.291 OA
ATOM      3  C   UNL     1      35.847 -17.928 -22.096  0.00  0.00    +0.066 C 
ATOM      4  C   UNL     1      34.396 -18.417 -21.878  0.00  0.00    +0.034 C 
ATOM      5  C   UNL     1      36.679 -18.725 -21.106  0.00  0.00    +0.173 C 
ATOM      6  C   UNL     1      34.529 -19.526 -20.885  0.00  0.00    -0.016 C 
ATOM      7  C   UNL     1      35.831 -19.697 -20.434  0.00  0.00    +0.034 C 
ATOM      8  C   UNL     1      33.520 -20.338 -20.392  0.00  0.00    +0.036 C 
ATOM      9  C   UNL     1      36.186 -20.654 -19.501  0.00  0.00    +0.043 C 
ATOM     10  C   UNL     1      33.848 -21.317 -19.448  0.00  0.00    +0.172 C 
ATOM     11  C   UNL     1      35.172 -21.473 -19.006  0.00  0.00    +0.172 C 
BRANCH  10  12
ATOM     12  O   UNL     1      32.862 -22.121 -18.957  0.00  0.00    -0.468 OA
ATOM     13  C   UNL     1      32.652 -22.100 -17.548  0.00  0.00    +0.253 C 
ENDBRANCH  10  12
BRANCH  11  14
ATOM     14  O   UNL     1      35.478 -22.430 -18.084  0.00  0.00    -0.468 OA
ATOM     15  C   UNL     1      36.361 -22.052 -17.030  0.00  0.00    +0.253 C 
ENDBRANCH  11  14
ENDBRANCH   1   3
BRANCH   1  17
ATOM     16  N   UNL     1      33.078 -13.262 -21.700  0.00  0.00    +0.390 N 
ATOM     17  C   UNL     1      34.647 -15.735 -21.836  0.00  0.00    -0.004 C 
ATOM     18  C   UNL     1      34.466 -14.946 -20.535  0.00  0.00    -0.023 C 
ATOM     19  C   UNL     1      34.485 -14.797 -23.036  0.00  0.00    -0.023 C 
ATOM     20  C   UNL     1      33.154 -14.158 -20.540  0.00  0.00    -0.077 C 
ATOM     21  C   UNL     1      33.172 -14.014 -22.960  0.00  0.00    -0.077 C 
ATOM     22  H   UNL     1      33.870 -12.622 -21.656  0.00  0.00    -0.079 HD
BRANCH  16  23
ATOM     23  C   UNL     1      31.843 -12.479 -21.664  0.00  0.00    -0.050 C 
BRANCH  23  24
ATOM     24  C   UNL     1      32.023 -11.180 -20.925  0.00  0.00    -0.043 C 
ATOM     25  C   UNL     1      32.210 -10.007 -21.643  0.00  0.00    -0.006 C 
ATOM     26  C   UNL     1      32.001 -11.174 -19.538  0.00  0.00    -0.006 C 
ATOM     27  C   UNL     1      32.378  -8.802 -20.959  0.00  0.00    -0.000 C 
ATOM     28  C   UNL     1      32.168  -9.968 -18.853  0.00  0.00    -0.000 C 
ATOM     29  C   UNL     1      32.356  -8.783 -19.565  0.00  0.00    -0.000 C 
ENDBRANCH  23  24
ENDBRANCH  16  23
ENDBRANCH   1  17
TORSDOF 6
ENDMDL
MODEL 5
REMARK VINA RESULT:     -10.5      2.487      4.757
REMARK  Name = 1150567
REMARK  6 active torsions:
REMARK  status: ('A' for Active; 'I' for Inactive)
REMARK    1  A    between atoms: C_1  and  C_3
REMARK    2  A    between atoms: C_1  and  C_17
REMARK    3  A    between atoms: C_10  and  O_12
REMARK    4  A    between atoms: C_11  and  O_14
REMARK    5  A    between atoms: N_16  and  C_23
REMARK    6  A    between atoms: C_23  and  C_24
REMARK                            x       y       z     vdW  Elec       q    Type
REMARK                         _______ _______ _______ _____ _____    ______ ____
ROOT
ATOM      1  C   UNL     1      34.706 -22.406 -18.720  0.00  0.00    +0.008 C 
ENDROOT
BRANCH   1   3
ATOM      2  O   UNL     1      33.161 -23.060 -16.208  0.00  0.00    -0.291 OA
ATOM      3  C   UNL     1      35.027 -21.927 -17.317  0.00  0.00    +0.066 C 
ATOM      4  C   UNL     1      36.535 -22.018 -16.988  0.00  0.00    +0.034 C 
ATOM      5  C   UNL     1      34.348 -22.794 -16.271  0.00  0.00    +0.173 C 
ATOM      6  C   UNL     1      36.587 -22.815 -15.725  0.00  0.00    -0.016 C 
ATOM      7  C   UNL     1      35.339 -23.269 -15.319  0.00  0.00    +0.034 C 
ATOM      8  C   UNL     1      37.710 -23.136 -14.978  0.00  0.00    +0.036 C 
ATOM      9  C   UNL     1      35.148 -24.039 -14.187  0.00  0.00    +0.043 C 
ATOM     10  C   UNL     1      37.549 -23.912 -13.826  0.00  0.00    +0.172 C 
ATOM     11  C   UNL     1      36.277 -24.361 -13.434  0.00  0.00    +0.172 C 
BRANCH  10  12
ATOM     12  O   UNL     1      38.648 -24.233 -13.085  0.00  0.00    -0.468 OA
ATOM     13  C   UNL     1      39.402 -25.368 -13.504  0.00  0.00    +0.253 C 
ENDBRANCH  10  12
BRANCH  11  14
ATOM     14  O   UNL     1      36.135 -25.119 -12.309  0.00  0.00    -0.468 OA
ATOM     15  C   UNL     1      35.666 -24.456 -11.137  0.00  0.00    +0.253 C 
ENDBRANCH  11  14
ENDBRANCH   1   3
BRANCH   1  17
ATOM     16  N   UNL     1      35.705 -18.668 -20.639  0.00  0.00    +0.390 N 
ATOM     17  C   UNL     1      35.212 -21.426 -19.773  0.00  0.00    -0.004 C 
ATOM     18  C   UNL     1      34.089 -20.499 -20.250  0.00  0.00    -0.023 C 
ATOM     19  C   UNL     1      36.377 -20.589 -19.233  0.00  0.00    -0.023 C 
ATOM     20  C   UNL     1      34.612 -19.448 -21.231  0.00  0.00    -0.077 C 
ATOM     21  C   UNL     1      36.825 -19.536 -20.248  0.00  0.00    -0.077 C 
ATOM     22  H   UNL     1      35.349 -18.215 -19.797  0.00  0.00    -0.079 HD
BRANCH  16  23
ATOM     23  C   UNL     1      36.160 -17.634 -21.569  0.00  0.00    -0.050 C 
BRANCH  23  24
ATOM     24  C   UNL     1      35.358 -16.367 -21.436  0.00  0.00    -0.043 C 
ATOM     25  C   UNL     1      34.974 -15.931 -20.175  0.00  0.00    -0.006 C 
ATOM     26  C   UNL     1      35.011 -15.655 -22.575  0.00  0.00    -0.006 C 
ATOM     27  C   UNL     1      34.230 -14.758 -20.050  0.00  0.00    -0.000 C 
ATOM     28  C   UNL     1      34.267 -14.480 -22.450  0.00  0.00    -0.000 C 
ATOM     29  C   UNL     1      33.877 -14.032 -21.187  0.00  0.00    -0.000 C 
ENDBRANCH  23  24
ENDBRANCH  16  23
ENDBRANCH   1  17
TORSDOF 6
ENDMDL
MODEL 6
REMARK VINA RESULT:     -10.5      1.892      3.460
REMARK  Name = 1150567
REMARK  6 active torsions:
REMARK  status: ('A' for Active; 'I' for Inactive)
REMARK    1  A    between atoms: C_1  and  C_3
REMARK    2  A    between atoms: C_1  and  C_17
REMARK    3  A    between atoms: C_10  and  O_12
REMARK    4  A    between atoms: C_11  and  O_14
REMARK    5  A    between atoms: N_16  and  C_23
REMARK    6  A    between atoms: C_23  and  C_24
REMARK                            x       y       z     vdW  Elec       q    Type
REMARK                         _______ _______ _______ _____ _____    ______ ____
ROOT
ATOM      1  C   UNL     1      33.914 -20.241 -19.727  0.00  0.00    +0.008 C 
ENDROOT
BRANCH   1   3
ATOM      2  O   UNL     1      36.803 -20.494 -18.884  0.00  0.00    -0.291 OA
ATOM      3  C   UNL     1      34.632 -21.523 -19.355  0.00  0.00    +0.066 C 
ATOM      4  C   UNL     1      33.784 -22.435 -18.438  0.00  0.00    +0.034 C 
ATOM      5  C   UNL     1      35.894 -21.237 -18.560  0.00  0.00    +0.173 C 
ATOM      6  C   UNL     1      34.669 -22.695 -17.261  0.00  0.00    -0.016 C 
ATOM      7  C   UNL     1      35.872 -22.002 -17.324  0.00  0.00    +0.034 C 
ATOM      8  C   UNL     1      34.401 -23.506 -16.170  0.00  0.00    +0.036 C 
ATOM      9  C   UNL     1      36.838 -22.078 -16.338  0.00  0.00    +0.043 C 
ATOM     10  C   UNL     1      35.360 -23.606 -15.157  0.00  0.00    +0.172 C 
ATOM     11  C   UNL     1      36.570 -22.896 -15.240  0.00  0.00    +0.172 C 
BRANCH  10  12
ATOM     12  O   UNL     1      35.106 -24.401 -14.079  0.00  0.00    -0.468 OA
ATOM     13  C   UNL     1      34.214 -23.888 -13.092  0.00  0.00    +0.253 C 
ENDBRANCH  10  12
BRANCH  11  14
ATOM     14  O   UNL     1      37.495 -22.999 -14.245  0.00  0.00    -0.468 OA
ATOM     15  C   UNL     1      38.267 -24.198 -14.200  0.00  0.00    +0.253 C 
ENDBRANCH  11  14
ENDBRANCH   1   3
BRANCH   1  17
ATOM     16  N   UNL     1      34.608 -17.396 -22.902  0.00  0.00    +0.390 N 
ATOM     17  C   UNL     1      34.556 -19.574 -20.939  0.00  0.00    -0.004 C 
ATOM     18  C   UNL     1      33.573 -19.499 -22.113  0.00  0.00    -0.023 C 
ATOM     19  C   UNL     1      35.055 -18.167 -20.594  0.00  0.00    -0.023 C 
ATOM     20  C   UNL     1      34.177 -18.742 -23.298  0.00  0.00    -0.077 C 
ATOM     21  C   UNL     1      35.611 -17.453 -21.828  0.00  0.00    -0.077 C 
ATOM     22  H   UNL     1      33.794 -16.896 -22.545  0.00  0.00    -0.079 HD
BRANCH  16  23
ATOM     23  C   UNL     1      35.135 -16.666 -24.055  0.00  0.00    -0.050 C 
BRANCH  23  24
ATOM     24  C   UNL     1      34.524 -15.296 -24.179  0.00  0.00    -0.043 C 
ATOM     25  C   UNL     1      34.671 -14.386 -23.141  0.00  0.00    -0.006 C 
ATOM     26  C   UNL     1      33.821 -14.961 -25.328  0.00  0.00    -0.006 C 
ATOM     27  C   UNL     1      34.105 -13.116 -23.254  0.00  0.00    -0.000 C 
ATOM     28  C   UNL     1      33.255 -13.691 -25.442  0.00  0.00    -0.000 C 
ATOM     29  C   UNL     1      33.398 -12.768 -24.405  0.00  0.00    -0.000 C 
ENDBRANCH  23  24
ENDBRANCH  16  23
ENDBRANCH   1  17
TORSDOF 6
ENDMDL
MODEL 7
REMARK VINA RESULT:     -10.4      2.514      4.473
REMARK  Name = 1150567
REMARK  6 active torsions:
REMARK  status: ('A' for Active; 'I' for Inactive)
REMARK    1  A    between atoms: C_1  and  C_3
REMARK    2  A    between atoms: C_1  and  C_17
REMARK    3  A    between atoms: C_10  and  O_12
REMARK    4  A    between atoms: C_11  and  O_14
REMARK    5  A    between atoms: N_16  and  C_23
REMARK    6  A    between atoms: C_23  and  C_24
REMARK                            x       y       z     vdW  Elec       q    Type
REMARK                         _______ _______ _______ _____ _____    ______ ____
ROOT
ATOM      1  C   UNL     1      34.697 -22.561 -19.028  0.00  0.00    +0.008 C 
ENDROOT
BRANCH   1   3
ATOM      2  O   UNL     1      32.034 -22.493 -17.604  0.00  0.00    -0.291 OA
ATOM      3  C   UNL     1      34.429 -21.986 -17.651  0.00  0.00    +0.066 C 
ATOM      4  C   UNL     1      35.512 -22.380 -16.621  0.00  0.00    +0.034 C 
ATOM      5  C   UNL     1      33.130 -22.521 -17.074  0.00  0.00    +0.173 C 
ATOM      6  C   UNL     1      34.742 -22.990 -15.494  0.00  0.00    -0.016 C 
ATOM      7  C   UNL     1      33.381 -23.082 -15.755  0.00  0.00    +0.034 C 
ATOM      8  C   UNL     1      35.242 -23.460 -14.290  0.00  0.00    +0.036 C 
ATOM      9  C   UNL     1      32.477 -23.626 -14.863  0.00  0.00    +0.043 C 
ATOM     10  C   UNL     1      34.352 -24.015 -13.365  0.00  0.00    +0.172 C 
ATOM     11  C   UNL     1      32.979 -24.098 -13.650  0.00  0.00    +0.172 C 
BRANCH  10  12
ATOM     12  O   UNL     1      34.835 -24.480 -12.177  0.00  0.00    -0.468 OA
ATOM     13  C   UNL     1      36.199 -24.894 -12.151  0.00  0.00    +0.253 C 
ENDBRANCH  10  12
BRANCH  11  14
ATOM     14  O   UNL     1      32.122 -24.644 -12.741  0.00  0.00    -0.468 OA
ATOM     15  C   UNL     1      30.759 -24.231 -12.808  0.00  0.00    +0.253 C 
ENDBRANCH  11  14
ENDBRANCH   1   3
BRANCH   1  17
ATOM     16  N   UNL     1      35.773 -18.685 -20.601  0.00  0.00    +0.390 N 
ATOM     17  C   UNL     1      35.248 -21.502 -19.977  0.00  0.00    -0.004 C 
ATOM     18  C   UNL     1      34.144 -20.540 -20.430  0.00  0.00    -0.023 C 
ATOM     19  C   UNL     1      36.385 -20.712 -19.321  0.00  0.00    -0.023 C 
ATOM     20  C   UNL     1      34.709 -19.415 -21.302  0.00  0.00    -0.077 C 
ATOM     21  C   UNL     1      36.876 -19.582 -20.229  0.00  0.00    -0.077 C 
ATOM     22  H   UNL     1      35.378 -18.299 -19.744  0.00  0.00    -0.079 HD
BRANCH  16  23
ATOM     23  C   UNL     1      36.266 -17.582 -21.426  0.00  0.00    -0.050 C 
BRANCH  23  24
ATOM     24  C   UNL     1      35.385 -16.366 -21.322  0.00  0.00    -0.043 C 
ATOM     25  C   UNL     1      34.939 -15.951 -20.075  0.00  0.00    -0.006 C 
ATOM     26  C   UNL     1      35.031 -15.678 -22.474  0.00  0.00    -0.006 C 
ATOM     27  C   UNL     1      34.122 -14.824 -19.978  0.00  0.00    -0.000 C 
ATOM     28  C   UNL     1      34.214 -14.550 -22.376  0.00  0.00    -0.000 C 
ATOM     29  C   UNL     1      33.760 -14.124 -21.128  0.00  0.00    -0.000 C 
ENDBRANCH  23  24
ENDBRANCH  16  23
ENDBRANCH   1  17
TORSDOF 6
ENDMDL
MODEL 8
REMARK VINA RESULT:     -10.3      2.246      4.753
REMARK  Name = 1150567
REMARK  6 active torsions:
REMARK  status: ('A' for Active; 'I' for Inactive)
REMARK    1  A    between atoms: C_1  and  C_3
REMARK    2  A    between atoms: C_1  and  C_17
REMARK    3  A    between atoms: C_10  and  O_12
REMARK    4  A    between atoms: C_11  and  O_14
REMARK    5  A    between atoms: N_16  and  C_23
REMARK    6  A    between atoms: C_23  and  C_24
REMARK                            x       y       z     vdW  Elec       q    Type
REMARK                         _______ _______ _______ _____ _____    ______ ____
ROOT
ATOM      1  C   UNL     1      35.828 -21.535 -18.057  0.00  0.00    +0.008 C 
ENDROOT
BRANCH   1   3
ATOM      2  O   UNL     1      35.597 -23.606 -15.870  0.00  0.00    -0.291 OA
ATOM      3  C   UNL     1      34.790 -22.638 -17.970  0.00  0.00    +0.066 C 
ATOM      4  C   UNL     1      33.366 -22.144 -18.313  0.00  0.00    +0.034 C 
ATOM      5  C   UNL     1      34.684 -23.183 -16.556  0.00  0.00    +0.173 C 
ATOM      6  C   UNL     1      32.543 -22.552 -17.133  0.00  0.00    -0.016 C 
ATOM      7  C   UNL     1      33.296 -23.137 -16.123  0.00  0.00    +0.034 C 
ATOM      8  C   UNL     1      31.177 -22.391 -16.965  0.00  0.00    +0.036 C 
ATOM      9  C   UNL     1      32.748 -23.578 -14.933  0.00  0.00    +0.043 C 
ATOM     10  C   UNL     1      30.592 -22.829 -15.772  0.00  0.00    +0.172 C 
ATOM     11  C   UNL     1      31.372 -23.418 -14.763  0.00  0.00    +0.172 C 
BRANCH  10  12
ATOM     12  O   UNL     1      29.249 -22.675 -15.597  0.00  0.00    -0.468 OA
ATOM     13  C   UNL     1      28.397 -23.580 -16.295  0.00  0.00    +0.253 C 
ENDBRANCH  10  12
BRANCH  11  14
ATOM     14  O   UNL     1      30.791 -23.838 -13.604  0.00  0.00    -0.468 OA
ATOM     15  C   UNL     1      30.424 -25.214 -13.526  0.00  0.00    +0.253 C 
ENDBRANCH  11  14
ENDBRANCH   1   3
BRANCH   1  17
ATOM     16  N   UNL     1      35.519 -18.499 -21.112  0.00  0.00    +0.390 N 
ATOM     17  C   UNL     1      35.833 -20.883 -19.436  0.00  0.00    -0.004 C 
ATOM     18  C   UNL     1      34.462 -20.287 -19.770  0.00  0.00    -0.023 C 
ATOM     19  C   UNL     1      36.907 -19.793 -19.525  0.00  0.00    -0.023 C 
ATOM     20  C   UNL     1      34.488 -19.544 -21.107  0.00  0.00    -0.077 C 
ATOM     21  C   UNL     1      36.853 -19.066 -20.871  0.00  0.00    -0.077 C 
ATOM     22  H   UNL     1      35.312 -17.848 -20.354  0.00  0.00    -0.079 HD
BRANCH  16  23
ATOM     23  C   UNL     1      35.497 -17.763 -22.376  0.00  0.00    -0.050 C 
BRANCH  23  24
ATOM     24  C   UNL     1      35.109 -16.322 -22.181  0.00  0.00    -0.043 C 
ATOM     25  C   UNL     1      34.895 -15.516 -23.292  0.00  0.00    -0.006 C 
ATOM     26  C   UNL     1      34.972 -15.818 -20.896  0.00  0.00    -0.006 C 
ATOM     27  C   UNL     1      34.536 -14.180 -23.113  0.00  0.00    -0.000 C 
ATOM     28  C   UNL     1      34.612 -14.481 -20.717  0.00  0.00    -0.000 C 
ATOM     29  C   UNL     1      34.394 -13.663 -21.826  0.00  0.00    -0.000 C 
ENDBRANCH  23  24
ENDBRANCH  16  23
ENDBRANCH   1  17
TORSDOF 6
ENDMDL
MODEL 9
REMARK VINA RESULT:     -10.3      3.027      9.541
REMARK  Name = 1150567
REMARK  6 active torsions:
REMARK  status: ('A' for Active; 'I' for Inactive)
REMARK    1  A    between atoms: C_1  and  C_3
REMARK    2  A    between atoms: C_1  and  C_17
REMARK    3  A    between atoms: C_10  and  O_12
REMARK    4  A    between atoms: C_11  and  O_14
REMARK    5  A    between atoms: N_16  and  C_23
REMARK    6  A    between atoms: C_23  and  C_24
REMARK                            x       y       z     vdW  Elec       q    Type
REMARK                         _______ _______ _______ _____ _____    ______ ____
ROOT
ATOM      1  C   UNL     1      36.530 -19.628 -20.304  0.00  0.00    +0.008 C 
ENDROOT
BRANCH   1   3
ATOM      2  O   UNL     1      35.598 -16.852 -19.563  0.00  0.00    -0.291 OA
ATOM      3  C   UNL     1      35.268 -18.944 -20.791  0.00  0.00    +0.066 C 
ATOM      4  C   UNL     1      35.033 -19.139 -22.307  0.00  0.00    +0.034 C 
ATOM      5  C   UNL     1      35.348 -17.440 -20.600  0.00  0.00    +0.173 C 
ATOM      6  C   UNL     1      34.875 -17.749 -22.834  0.00  0.00    -0.016 C 
ATOM      7  C   UNL     1      35.065 -16.775 -21.862  0.00  0.00    +0.034 C 
ATOM      8  C   UNL     1      34.589 -17.371 -24.137  0.00  0.00    +0.036 C 
ATOM      9  C   UNL     1      34.983 -15.421 -22.125  0.00  0.00    +0.043 C 
ATOM     10  C   UNL     1      34.498 -16.007 -24.434  0.00  0.00    +0.172 C 
ATOM     11  C   UNL     1      34.694 -15.039 -23.435  0.00  0.00    +0.172 C 
BRANCH  10  12
ATOM     12  O   UNL     1      34.217 -15.625 -25.713  0.00  0.00    -0.468 OA
ATOM     13  C   UNL     1      33.354 -14.503 -25.878  0.00  0.00    +0.253 C 
ENDBRANCH  10  12
BRANCH  11  14
ATOM     14  O   UNL     1      34.604 -13.713 -23.739  0.00  0.00    -0.468 OA
ATOM     15  C   UNL     1      34.180 -12.838 -22.696  0.00  0.00    +0.253 C 
ENDBRANCH  11  14
ENDBRANCH   1   3
BRANCH   1  17
ATOM     16  N   UNL     1      34.903 -22.221 -17.258  0.00  0.00    +0.390 N 
ATOM     17  C   UNL     1      36.210 -20.900 -19.525  0.00  0.00    -0.004 C 
ATOM     18  C   UNL     1      36.765 -20.828 -18.099  0.00  0.00    -0.023 C 
ATOM     19  C   UNL     1      34.700 -21.153 -19.480  0.00  0.00    -0.023 C 
ATOM     20  C   UNL     1      36.362 -22.056 -17.281  0.00  0.00    -0.077 C 
ATOM     21  C   UNL     1      34.364 -22.371 -18.617  0.00  0.00    -0.077 C 
ATOM     22  H   UNL     1      34.497 -21.380 -16.849  0.00  0.00    -0.079 HD
BRANCH  16  23
ATOM     23  C   UNL     1      34.530 -23.368 -16.430  0.00  0.00    -0.050 C 
BRANCH  23  24
ATOM     24  C   UNL     1      33.200 -23.165 -15.755  0.00  0.00    -0.043 C 
ATOM     25  C   UNL     1      32.058 -23.008 -16.530  0.00  0.00    -0.006 C 
ATOM     26  C   UNL     1      33.132 -23.136 -14.370  0.00  0.00    -0.006 C 
ATOM     27  C   UNL     1      30.825 -22.819 -15.906  0.00  0.00    -0.000 C 
ATOM     28  C   UNL     1      31.898 -22.947 -13.746  0.00  0.00    -0.000 C 
ATOM     29  C   UNL     1      30.745 -22.789 -14.515  0.00  0.00    -0.000 C 
ENDBRANCH  23  24
ENDBRANCH  16  23
ENDBRANCH   1  17
TORSDOF 6
ENDMDL
