MODEL 1
REMARK VINA RESULT:     -11.4      0.000      0.000
REMARK  Name = 44629554
REMARK  5 active torsions:
REMARK  status: ('A' for Active; 'I' for Inactive)
REMARK    1  A    between atoms: C_5  and  C_30
REMARK    2  A    between atoms: C_6  and  N_18
REMARK    3  A    between atoms: C_7  and  C_12
REMARK    4  A    between atoms: N_18  and  C_20
REMARK    5  A    between atoms: C_20  and  C_24
REMARK                            x       y       z     vdW  Elec       q    Type
REMARK                         _______ _______ _______ _____ _____    ______ ____
ROOT
ATOM      1  N   UNL     1      32.864 -23.173 -15.946  0.00  0.00    -0.152 N 
ATOM      2  N   UNL     1      35.233 -23.578 -15.795  0.00  0.00    -0.389 NA
ATOM      3  N   UNL     1      31.959 -22.612 -16.797  0.00  0.00    -0.174 NA
ATOM      4  C   UNL     1      34.157 -23.085 -16.465  0.00  0.00    +0.189 C 
ATOM      5  C   UNL     1      34.050 -22.446 -17.679  0.00  0.00    +0.112 C 
ATOM      6  C   UNL     1      32.617 -23.771 -14.700  0.00  0.00    +0.126 C 
ATOM      7  C   UNL     1      35.004 -24.146 -14.646  0.00  0.00    +0.140 C 
ATOM      8  C   UNL     1      33.655 -24.270 -14.009  0.00  0.00    +0.064 C 
ATOM      9  C   UNL     1      32.684 -22.183 -17.827  0.00  0.00    +0.100 C 
ENDROOT
BRANCH   7  12
ATOM     10  F   UNL     1      36.174 -26.640 -15.257  0.00  0.00    -0.204 F 
ATOM     11  F   UNL     1      36.183 -22.796 -12.466  0.00  0.00    -0.204 F 
ATOM     12  C   UNL     1      36.150 -24.704 -13.881  0.00  0.00    +0.085 C 
ATOM     13  C   UNL     1      36.686 -25.942 -14.232  0.00  0.00    +0.145 C 
ATOM     14  C   UNL     1      36.690 -23.988 -12.813  0.00  0.00    +0.145 C 
ATOM     15  C   UNL     1      37.762 -26.466 -13.515  0.00  0.00    +0.030 C 
ATOM     16  C   UNL     1      37.766 -24.511 -12.096  0.00  0.00    +0.030 C 
ATOM     17  C   UNL     1      38.301 -25.751 -12.447  0.00  0.00    +0.005 C 
ENDBRANCH   7  12
BRANCH   6  18
ATOM     18  N   UNL     1      31.323 -23.801 -14.260  0.00  0.00    -0.316 N 
ATOM     19  H   UNL     1      31.066 -23.199 -13.525  0.00  0.00    +0.148 HD
BRANCH  18  20
ATOM     20  C   UNL     1      30.319 -24.667 -14.818  0.00  0.00    +0.114 C 
BRANCH  20  24
ATOM     21  N   UNL     1      27.478 -23.589 -17.074  0.00  0.00    -0.181 NA
ATOM     22  N   UNL     1      27.817 -21.888 -15.402  0.00  0.00    -0.204 NA
ATOM     23  N   UNL     1      26.149 -21.656 -17.034  0.00  0.00    -0.303 N 
ATOM     24  C   UNL     1      29.199 -23.860 -15.413  0.00  0.00    +0.020 C 
ATOM     25  C   UNL     1      28.488 -24.289 -16.515  0.00  0.00    +0.106 C 
ATOM     26  C   UNL     1      28.816 -22.639 -14.893  0.00  0.00    +0.163 C 
ATOM     27  C   UNL     1      27.200 -22.416 -16.476  0.00  0.00    +0.084 C 
ATOM     28  H   UNL     1      25.661 -21.993 -17.821  0.00  0.00    +0.154 HD
ATOM     29  H   UNL     1      25.902 -20.790 -16.637  0.00  0.00    +0.154 HD
ENDBRANCH  20  24
ENDBRANCH  18  20
ENDBRANCH   6  18
BRANCH   5  30
ATOM     30  C   UNL     1      35.134 -22.114 -18.618  0.00  0.00    +0.015 C 
ATOM     31  C   UNL     1      34.783 -20.948 -19.551  0.00  0.00    +0.001 C 
ENDBRANCH   5  30
TORSDOF 5
ENDMDL
MODEL 2
REMARK VINA RESULT:     -11.4      0.027      1.564
REMARK  Name = 44629554
REMARK  5 active torsions:
REMARK  status: ('A' for Active; 'I' for Inactive)
REMARK    1  A    between atoms: C_5  and  C_30
REMARK    2  A    between atoms: C_6  and  N_18
REMARK    3  A    between atoms: C_7  and  C_12
REMARK    4  A    between atoms: N_18  and  C_20
REMARK    5  A    between atoms: C_20  and  C_24
REMARK                            x       y       z     vdW  Elec       q    Type
REMARK                         _______ _______ _______ _____ _____    ______ ____
ROOT
ATOM      1  N   UNL     1      32.872 -23.182 -15.933  0.00  0.00    -0.152 N 
ATOM      2  N   UNL     1      35.240 -23.587 -15.771  0.00  0.00    -0.389 NA
ATOM      3  N   UNL     1      31.971 -22.619 -16.787  0.00  0.00    -0.174 NA
ATOM      4  C   UNL     1      34.168 -23.092 -16.445  0.00  0.00    +0.189 C 
ATOM      5  C   UNL     1      34.067 -22.450 -17.657  0.00  0.00    +0.112 C 
ATOM      6  C   UNL     1      32.618 -23.783 -14.690  0.00  0.00    +0.126 C 
ATOM      7  C   UNL     1      35.005 -24.158 -14.625  0.00  0.00    +0.140 C 
ATOM      8  C   UNL     1      33.654 -24.285 -13.995  0.00  0.00    +0.064 C 
ATOM      9  C   UNL     1      32.701 -22.187 -17.813  0.00  0.00    +0.100 C 
ENDROOT
BRANCH   7  12
ATOM     10  F   UNL     1      36.171 -22.817 -12.433  0.00  0.00    -0.204 F 
ATOM     11  F   UNL     1      36.182 -26.649 -15.240  0.00  0.00    -0.204 F 
ATOM     12  C   UNL     1      36.147 -24.718 -13.856  0.00  0.00    +0.085 C 
ATOM     13  C   UNL     1      36.679 -24.008 -12.781  0.00  0.00    +0.145 C 
ATOM     14  C   UNL     1      36.685 -25.956 -14.208  0.00  0.00    +0.145 C 
ATOM     15  C   UNL     1      37.751 -24.533 -12.058  0.00  0.00    +0.030 C 
ATOM     16  C   UNL     1      37.756 -26.482 -13.486  0.00  0.00    +0.030 C 
ATOM     17  C   UNL     1      38.289 -25.770 -12.411  0.00  0.00    +0.005 C 
ENDBRANCH   7  12
BRANCH   6  18
ATOM     18  N   UNL     1      31.323 -23.814 -14.257  0.00  0.00    -0.316 N 
ATOM     19  H   UNL     1      31.062 -23.216 -13.520  0.00  0.00    +0.148 HD
BRANCH  18  20
ATOM     20  C   UNL     1      30.320 -24.678 -14.824  0.00  0.00    +0.114 C 
BRANCH  20  24
ATOM     21  N   UNL     1      27.464 -23.588 -17.055  0.00  0.00    -0.181 NA
ATOM     22  N   UNL     1      27.819 -21.892 -15.381  0.00  0.00    -0.204 NA
ATOM     23  N   UNL     1      26.139 -21.653 -17.000  0.00  0.00    -0.303 N 
ATOM     24  C   UNL     1      29.197 -23.866 -15.408  0.00  0.00    +0.020 C 
ATOM     25  C   UNL     1      28.477 -24.291 -16.505  0.00  0.00    +0.106 C 
ATOM     26  C   UNL     1      28.821 -22.646 -14.882  0.00  0.00    +0.163 C 
ATOM     27  C   UNL     1      27.193 -22.416 -16.452  0.00  0.00    +0.084 C 
ATOM     28  H   UNL     1      25.645 -21.987 -17.784  0.00  0.00    +0.154 HD
ATOM     29  H   UNL     1      25.897 -20.787 -16.599  0.00  0.00    +0.154 HD
ENDBRANCH  20  24
ENDBRANCH  18  20
ENDBRANCH   6  18
BRANCH   5  30
ATOM     30  C   UNL     1      35.155 -22.115 -18.590  0.00  0.00    +0.015 C 
ATOM     31  C   UNL     1      34.800 -20.961 -19.536  0.00  0.00    +0.001 C 
ENDBRANCH   5  30
TORSDOF 5
ENDMDL
MODEL 3
REMARK VINA RESULT:     -11.0      2.793      7.494
REMARK  Name = 44629554
REMARK  5 active torsions:
REMARK  status: ('A' for Active; 'I' for Inactive)
REMARK    1  A    between atoms: C_5  and  C_30
REMARK    2  A    between atoms: C_6  and  N_18
REMARK    3  A    between atoms: C_7  and  C_12
REMARK    4  A    between atoms: N_18  and  C_20
REMARK    5  A    between atoms: C_20  and  C_24
REMARK                            x       y       z     vdW  Elec       q    Type
REMARK                         _______ _______ _______ _____ _____    ______ ____
ROOT
ATOM      1  N   UNL     1      35.298 -22.867 -14.849  0.00  0.00    -0.152 N 
ATOM      2  N   UNL     1      33.264 -23.078 -16.120  0.00  0.00    -0.389 NA
ATOM      3  N   UNL     1      36.600 -22.505 -15.026  0.00  0.00    -0.174 NA
ATOM      4  C   UNL     1      34.586 -22.770 -16.046  0.00  0.00    +0.189 C 
ATOM      5  C   UNL     1      35.477 -22.334 -16.998  0.00  0.00    +0.112 C 
ATOM      6  C   UNL     1      34.678 -23.296 -13.664  0.00  0.00    +0.126 C 
ATOM      7  C   UNL     1      32.684 -23.462 -15.019  0.00  0.00    +0.140 C 
ATOM      8  C   UNL     1      33.372 -23.609 -13.698  0.00  0.00    +0.064 C 
ATOM      9  C   UNL     1      36.690 -22.188 -16.316  0.00  0.00    +0.100 C 
ENDROOT
BRANCH   7  12
ATOM     10  F   UNL     1      31.576 -25.547 -13.473  0.00  0.00    -0.204 F 
ATOM     11  F   UNL     1      30.827 -22.079 -16.633  0.00  0.00    -0.204 F 
ATOM     12  C   UNL     1      31.238 -23.804 -15.052  0.00  0.00    +0.085 C 
ATOM     13  C   UNL     1      30.750 -24.845 -14.263  0.00  0.00    +0.145 C 
ATOM     14  C   UNL     1      30.369 -23.083 -15.870  0.00  0.00    +0.145 C 
ATOM     15  C   UNL     1      29.392 -25.167 -14.293  0.00  0.00    +0.030 C 
ATOM     16  C   UNL     1      29.012 -23.403 -15.900  0.00  0.00    +0.030 C 
ATOM     17  C   UNL     1      28.523 -24.446 -15.112  0.00  0.00    +0.005 C 
ENDBRANCH   7  12
BRANCH   6  18
ATOM     18  N   UNL     1      35.453 -23.377 -12.541  0.00  0.00    -0.316 N 
ATOM     19  H   UNL     1      35.752 -22.540 -12.119  0.00  0.00    +0.148 HD
BRANCH  18  20
ATOM     20  C   UNL     1      35.853 -24.625 -11.946  0.00  0.00    +0.114 C 
BRANCH  20  24
ATOM     21  N   UNL     1      39.501 -24.783 -12.941  0.00  0.00    -0.181 NA
ATOM     22  N   UNL     1      38.386 -26.735 -13.806  0.00  0.00    -0.204 NA
ATOM     23  N   UNL     1      40.677 -26.396 -14.174  0.00  0.00    -0.303 N 
ATOM     24  C   UNL     1      37.149 -25.100 -12.543  0.00  0.00    +0.020 C 
ATOM     25  C   UNL     1      38.322 -24.386 -12.417  0.00  0.00    +0.106 C 
ATOM     26  C   UNL     1      37.240 -26.279 -13.256  0.00  0.00    +0.163 C 
ATOM     27  C   UNL     1      39.461 -25.949 -13.612  0.00  0.00    +0.084 C 
ATOM     28  H   UNL     1      41.497 -25.861 -14.064  0.00  0.00    +0.154 HD
ATOM     29  H   UNL     1      40.706 -27.242 -14.676  0.00  0.00    +0.154 HD
ENDBRANCH  20  24
ENDBRANCH  18  20
ENDBRANCH   6  18
BRANCH   5  30
ATOM     30  C   UNL     1      35.215 -22.074 -18.423  0.00  0.00    +0.015 C 
ATOM     31  C   UNL     1      36.307 -21.228 -19.090  0.00  0.00    +0.001 C 
ENDBRANCH   5  30
TORSDOF 5
ENDMDL
MODEL 4
REMARK VINA RESULT:     -10.9      2.508      7.339
REMARK  Name = 44629554
REMARK  5 active torsions:
REMARK  status: ('A' for Active; 'I' for Inactive)
REMARK    1  A    between atoms: C_5  and  C_30
REMARK    2  A    between atoms: C_6  and  N_18
REMARK    3  A    between atoms: C_7  and  C_12
REMARK    4  A    between atoms: N_18  and  C_20
REMARK    5  A    between atoms: C_20  and  C_24
REMARK                            x       y       z     vdW  Elec       q    Type
REMARK                         _______ _______ _______ _____ _____    ______ ____
ROOT
ATOM      1  N   UNL     1      32.660 -24.185 -13.656  0.00  0.00    -0.152 N 
ATOM      2  N   UNL     1      32.705 -23.001 -15.752  0.00  0.00    -0.389 NA
ATOM      3  N   UNL     1      31.758 -24.661 -12.752  0.00  0.00    -0.174 NA
ATOM      4  C   UNL     1      32.013 -23.556 -14.722  0.00  0.00    +0.189 C 
ATOM      5  C   UNL     1      30.664 -23.644 -14.469  0.00  0.00    +0.112 C 
ATOM      6  C   UNL     1      34.060 -24.266 -13.597  0.00  0.00    +0.126 C 
ATOM      7  C   UNL     1      34.003 -23.089 -15.707  0.00  0.00    +0.140 C 
ATOM      8  C   UNL     1      34.778 -23.730 -14.599  0.00  0.00    +0.064 C 
ATOM      9  C   UNL     1      30.570 -24.331 -13.253  0.00  0.00    +0.100 C 
ENDROOT
BRANCH   7  12
ATOM     10  F   UNL     1      33.019 -22.871 -18.343  0.00  0.00    -0.204 F 
ATOM     11  F   UNL     1      36.622 -22.100 -15.344  0.00  0.00    -0.204 F 
ATOM     12  C   UNL     1      34.800 -22.501 -16.816  0.00  0.00    +0.085 C 
ATOM     13  C   UNL     1      34.258 -22.419 -18.097  0.00  0.00    +0.145 C 
ATOM     14  C   UNL     1      36.090 -22.028 -16.573  0.00  0.00    +0.145 C 
ATOM     15  C   UNL     1      35.005 -21.867 -19.139  0.00  0.00    +0.030 C 
ATOM     16  C   UNL     1      36.837 -21.475 -17.613  0.00  0.00    +0.030 C 
ATOM     17  C   UNL     1      36.295 -21.395 -18.896  0.00  0.00    +0.005 C 
ENDBRANCH   7  12
BRANCH   6  18
ATOM     18  N   UNL     1      34.611 -24.885 -12.511  0.00  0.00    -0.316 N 
ATOM     19  H   UNL     1      34.221 -25.737 -12.211  0.00  0.00    +0.148 HD
BRANCH  18  20
ATOM     20  C   UNL     1      35.734 -24.354 -11.783  0.00  0.00    +0.114 C 
BRANCH  20  24
ATOM     21  N   UNL     1      39.352 -24.553 -12.876  0.00  0.00    -0.181 NA
ATOM     22  N   UNL     1      38.271 -26.637 -13.419  0.00  0.00    -0.204 NA
ATOM     23  N   UNL     1      40.538 -26.292 -13.913  0.00  0.00    -0.303 N 
ATOM     24  C   UNL     1      37.024 -24.874 -12.354  0.00  0.00    +0.020 C 
ATOM     25  C   UNL     1      38.178 -24.118 -12.371  0.00  0.00    +0.106 C 
ATOM     26  C   UNL     1      37.130 -26.138 -12.898  0.00  0.00    +0.163 C 
ATOM     27  C   UNL     1      39.327 -25.803 -13.376  0.00  0.00    +0.084 C 
ATOM     28  H   UNL     1      41.343 -25.725 -13.908  0.00  0.00    +0.154 HD
ATOM     29  H   UNL     1      40.578 -27.199 -14.292  0.00  0.00    +0.154 HD
ENDBRANCH  20  24
ENDBRANCH  18  20
ENDBRANCH   6  18
BRANCH   5  30
ATOM     30  C   UNL     1      29.559 -23.132 -15.296  0.00  0.00    +0.015 C 
ATOM     31  C   UNL     1      28.610 -24.236 -15.780  0.00  0.00    +0.001 C 
ENDBRANCH   5  30
TORSDOF 5
ENDMDL
MODEL 5
REMARK VINA RESULT:     -10.9      2.795      7.474
REMARK  Name = 44629554
REMARK  5 active torsions:
REMARK  status: ('A' for Active; 'I' for Inactive)
REMARK    1  A    between atoms: C_5  and  C_30
REMARK    2  A    between atoms: C_6  and  N_18
REMARK    3  A    between atoms: C_7  and  C_12
REMARK    4  A    between atoms: N_18  and  C_20
REMARK    5  A    between atoms: C_20  and  C_24
REMARK                            x       y       z     vdW  Elec       q    Type
REMARK                         _______ _______ _______ _____ _____    ______ ____
ROOT
ATOM      1  N   UNL     1      35.274 -22.848 -14.825  0.00  0.00    -0.152 N 
ATOM      2  N   UNL     1      33.251 -23.080 -16.110  0.00  0.00    -0.389 NA
ATOM      3  N   UNL     1      36.577 -22.483 -14.997  0.00  0.00    -0.174 NA
ATOM      4  C   UNL     1      34.571 -22.766 -16.029  0.00  0.00    +0.189 C 
ATOM      5  C   UNL     1      35.468 -22.338 -16.980  0.00  0.00    +0.112 C 
ATOM      6  C   UNL     1      34.648 -23.266 -13.641  0.00  0.00    +0.126 C 
ATOM      7  C   UNL     1      32.665 -23.454 -15.008  0.00  0.00    +0.140 C 
ATOM      8  C   UNL     1      33.343 -23.583 -13.681  0.00  0.00    +0.064 C 
ATOM      9  C   UNL     1      36.676 -22.181 -16.290  0.00  0.00    +0.100 C 
ENDROOT
BRANCH   7  12
ATOM     10  F   UNL     1      30.812 -22.086 -16.639  0.00  0.00    -0.204 F 
ATOM     11  F   UNL     1      31.554 -25.535 -13.459  0.00  0.00    -0.204 F 
ATOM     12  C   UNL     1      31.220 -23.802 -15.048  0.00  0.00    +0.085 C 
ATOM     13  C   UNL     1      30.353 -23.089 -15.876  0.00  0.00    +0.145 C 
ATOM     14  C   UNL     1      30.731 -24.842 -14.259  0.00  0.00    +0.145 C 
ATOM     15  C   UNL     1      28.997 -23.415 -15.915  0.00  0.00    +0.030 C 
ATOM     16  C   UNL     1      29.375 -25.169 -14.297  0.00  0.00    +0.030 C 
ATOM     17  C   UNL     1      28.508 -24.455 -15.124  0.00  0.00    +0.005 C 
ENDBRANCH   7  12
BRANCH   6  18
ATOM     18  N   UNL     1      35.414 -23.332 -12.511  0.00  0.00    -0.316 N 
ATOM     19  H   UNL     1      35.711 -22.489 -12.098  0.00  0.00    +0.148 HD
BRANCH  18  20
ATOM     20  C   UNL     1      35.810 -24.571 -11.896  0.00  0.00    +0.114 C 
BRANCH  20  24
ATOM     21  N   UNL     1      38.359 -26.739 -13.662  0.00  0.00    -0.181 NA
ATOM     22  N   UNL     1      39.452 -24.726 -12.915  0.00  0.00    -0.204 NA
ATOM     23  N   UNL     1      40.643 -26.384 -14.070  0.00  0.00    -0.303 N 
ATOM     24  C   UNL     1      37.107 -25.058 -12.480  0.00  0.00    +0.020 C 
ATOM     25  C   UNL     1      37.212 -26.272 -13.127  0.00  0.00    +0.106 C 
ATOM     26  C   UNL     1      38.271 -24.320 -12.402  0.00  0.00    +0.163 C 
ATOM     27  C   UNL     1      39.424 -25.927 -13.522  0.00  0.00    +0.084 C 
ATOM     28  H   UNL     1      40.682 -27.256 -14.526  0.00  0.00    +0.154 HD
ATOM     29  H   UNL     1      41.454 -25.831 -13.996  0.00  0.00    +0.154 HD
ENDBRANCH  20  24
ENDBRANCH  18  20
ENDBRANCH   6  18
BRANCH   5  30
ATOM     30  C   UNL     1      35.215 -22.095 -18.409  0.00  0.00    +0.015 C 
ATOM     31  C   UNL     1      36.306 -21.247 -19.076  0.00  0.00    +0.001 C 
ENDBRANCH   5  30
TORSDOF 5
ENDMDL
MODEL 6
REMARK VINA RESULT:     -10.8      2.585      5.928
REMARK  Name = 44629554
REMARK  5 active torsions:
REMARK  status: ('A' for Active; 'I' for Inactive)
REMARK    1  A    between atoms: C_5  and  C_30
REMARK    2  A    between atoms: C_6  and  N_18
REMARK    3  A    between atoms: C_7  and  C_12
REMARK    4  A    between atoms: N_18  and  C_20
REMARK    5  A    between atoms: C_20  and  C_24
REMARK                            x       y       z     vdW  Elec       q    Type
REMARK                         _______ _______ _______ _____ _____    ______ ____
ROOT
ATOM      1  N   UNL     1      33.077 -22.956 -16.316  0.00  0.00    -0.152 N 
ATOM      2  N   UNL     1      33.684 -24.165 -14.323  0.00  0.00    -0.389 NA
ATOM      3  N   UNL     1      31.964 -22.484 -16.946  0.00  0.00    -0.174 NA
ATOM      4  C   UNL     1      32.740 -23.609 -15.129  0.00  0.00    +0.189 C 
ATOM      5  C   UNL     1      31.370 -23.542 -15.020  0.00  0.00    +0.112 C 
ATOM      6  C   UNL     1      34.413 -22.848 -16.736  0.00  0.00    +0.126 C 
ATOM      7  C   UNL     1      34.924 -24.053 -14.704  0.00  0.00    +0.140 C 
ATOM      8  C   UNL     1      35.374 -23.384 -15.965  0.00  0.00    +0.064 C 
ATOM      9  C   UNL     1      30.953 -22.843 -16.158  0.00  0.00    +0.100 C 
ENDROOT
BRANCH   7  12
ATOM     10  F   UNL     1      35.951 -22.740 -12.427  0.00  0.00    -0.204 F 
ATOM     11  F   UNL     1      36.085 -26.571 -15.233  0.00  0.00    -0.204 F 
ATOM     12  C   UNL     1      35.991 -24.640 -13.851  0.00  0.00    +0.085 C 
ATOM     13  C   UNL     1      36.457 -23.943 -12.737  0.00  0.00    +0.145 C 
ATOM     14  C   UNL     1      36.525 -25.890 -14.164  0.00  0.00    +0.145 C 
ATOM     15  C   UNL     1      37.457 -24.494 -11.936  0.00  0.00    +0.030 C 
ATOM     16  C   UNL     1      37.526 -26.442 -13.364  0.00  0.00    +0.030 C 
ATOM     17  C   UNL     1      37.992 -25.743 -12.250  0.00  0.00    +0.005 C 
ENDBRANCH   7  12
BRANCH   6  18
ATOM     18  N   UNL     1      34.653 -22.206 -17.918  0.00  0.00    -0.316 N 
ATOM     19  H   UNL     1      33.892 -22.031 -18.516  0.00  0.00    +0.148 HD
BRANCH  18  20
ATOM     20  C   UNL     1      35.962 -21.773 -18.330  0.00  0.00    +0.114 C 
BRANCH  20  24
ATOM     21  N   UNL     1      34.541 -19.409 -20.921  0.00  0.00    -0.181 NA
ATOM     22  N   UNL     1      36.872 -18.889 -20.606  0.00  0.00    -0.204 NA
ATOM     23  N   UNL     1      35.563 -17.676 -22.129  0.00  0.00    -0.303 N 
ATOM     24  C   UNL     1      35.854 -20.673 -19.350  0.00  0.00    +0.020 C 
ATOM     25  C   UNL     1      34.672 -20.388 -20.001  0.00  0.00    +0.106 C 
ATOM     26  C   UNL     1      36.933 -19.884 -19.696  0.00  0.00    +0.163 C 
ATOM     27  C   UNL     1      35.663 -18.709 -21.171  0.00  0.00    +0.084 C 
ATOM     28  H   UNL     1      34.703 -17.500 -22.575  0.00  0.00    +0.154 HD
ATOM     29  H   UNL     1      36.353 -17.133 -22.352  0.00  0.00    +0.154 HD
ENDBRANCH  20  24
ENDBRANCH  18  20
ENDBRANCH   6  18
BRANCH   5  30
ATOM     30  C   UNL     1      30.527 -24.085 -13.942  0.00  0.00    +0.015 C 
ATOM     31  C   UNL     1      29.913 -25.447 -14.288  0.00  0.00    +0.001 C 
ENDBRANCH   5  30
TORSDOF 5
ENDMDL
MODEL 7
REMARK VINA RESULT:     -10.7      1.958      4.778
REMARK  Name = 44629554
REMARK  5 active torsions:
REMARK  status: ('A' for Active; 'I' for Inactive)
REMARK    1  A    between atoms: C_5  and  C_30
REMARK    2  A    between atoms: C_6  and  N_18
REMARK    3  A    between atoms: C_7  and  C_12
REMARK    4  A    between atoms: N_18  and  C_20
REMARK    5  A    between atoms: C_20  and  C_24
REMARK                            x       y       z     vdW  Elec       q    Type
REMARK                         _______ _______ _______ _____ _____    ______ ____
ROOT
ATOM      1  N   UNL     1      34.693 -24.064 -12.961  0.00  0.00    -0.152 N 
ATOM      2  N   UNL     1      36.155 -23.477 -14.783  0.00  0.00    -0.389 NA
ATOM      3  N   UNL     1      34.758 -24.604 -11.711  0.00  0.00    -0.174 NA
ATOM      4  C   UNL     1      35.964 -23.984 -13.536  0.00  0.00    +0.189 C 
ATOM      5  C   UNL     1      36.846 -24.493 -12.611  0.00  0.00    +0.112 C 
ATOM      6  C   UNL     1      33.551 -23.630 -13.652  0.00  0.00    +0.126 C 
ATOM      7  C   UNL     1      35.098 -23.060 -15.419  0.00  0.00    +0.140 C 
ATOM      8  C   UNL     1      33.701 -23.122 -14.887  0.00  0.00    +0.064 C 
ATOM      9  C   UNL     1      36.051 -24.854 -11.517  0.00  0.00    +0.100 C 
ENDROOT
BRANCH   7  12
ATOM     10  F   UNL     1      37.429 -21.694 -16.234  0.00  0.00    -0.204 F 
ATOM     11  F   UNL     1      33.101 -23.263 -17.402  0.00  0.00    -0.204 F 
ATOM     12  C   UNL     1      35.261 -22.493 -16.784  0.00  0.00    +0.085 C 
ATOM     13  C   UNL     1      36.438 -21.829 -17.127  0.00  0.00    +0.145 C 
ATOM     14  C   UNL     1      34.237 -22.627 -17.721  0.00  0.00    +0.145 C 
ATOM     15  C   UNL     1      36.592 -21.297 -18.408  0.00  0.00    +0.030 C 
ATOM     16  C   UNL     1      34.390 -22.095 -19.002  0.00  0.00    +0.030 C 
ATOM     17  C   UNL     1      35.567 -21.430 -19.345  0.00  0.00    +0.005 C 
ENDBRANCH   7  12
BRANCH   6  18
ATOM     18  N   UNL     1      32.346 -23.759 -13.022  0.00  0.00    -0.316 N 
ATOM     19  H   UNL     1      32.133 -23.139 -12.289  0.00  0.00    +0.148 HD
BRANCH  18  20
ATOM     20  C   UNL     1      31.372 -24.757 -13.377  0.00  0.00    +0.114 C 
BRANCH  20  24
ATOM     21  N   UNL     1      28.609 -24.410 -15.940  0.00  0.00    -0.181 NA
ATOM     22  N   UNL     1      29.013 -22.250 -14.951  0.00  0.00    -0.204 NA
ATOM     23  N   UNL     1      27.375 -22.528 -16.606  0.00  0.00    -0.303 N 
ATOM     24  C   UNL     1      30.298 -24.160 -14.243  0.00  0.00    +0.020 C 
ATOM     25  C   UNL     1      29.578 -24.913 -15.147  0.00  0.00    +0.106 C 
ATOM     26  C   UNL     1      29.970 -22.820 -14.188  0.00  0.00    +0.163 C 
ATOM     27  C   UNL     1      28.382 -23.091 -15.792  0.00  0.00    +0.084 C 
ATOM     28  H   UNL     1      26.880 -23.097 -17.240  0.00  0.00    +0.154 HD
ATOM     29  H   UNL     1      27.166 -21.569 -16.540  0.00  0.00    +0.154 HD
ENDBRANCH  20  24
ENDBRANCH  18  20
ENDBRANCH   6  18
BRANCH   5  30
ATOM     30  C   UNL     1      38.306 -24.626 -12.740  0.00  0.00    +0.015 C 
ATOM     31  C   UNL     1      38.725 -25.818 -13.610  0.00  0.00    +0.001 C 
ENDBRANCH   5  30
TORSDOF 5
ENDMDL
MODEL 8
REMARK VINA RESULT:     -10.7      1.969      4.762
REMARK  Name = 44629554
REMARK  5 active torsions:
REMARK  status: ('A' for Active; 'I' for Inactive)
REMARK    1  A    between atoms: C_5  and  C_30
REMARK    2  A    between atoms: C_6  and  N_18
REMARK    3  A    between atoms: C_7  and  C_12
REMARK    4  A    between atoms: N_18  and  C_20
REMARK    5  A    between atoms: C_20  and  C_24
REMARK                            x       y       z     vdW  Elec       q    Type
REMARK                         _______ _______ _______ _____ _____    ______ ____
ROOT
ATOM      1  N   UNL     1      34.754 -24.056 -12.984  0.00  0.00    -0.152 N 
ATOM      2  N   UNL     1      36.185 -23.510 -14.842  0.00  0.00    -0.389 NA
ATOM      3  N   UNL     1      34.833 -24.609 -11.740  0.00  0.00    -0.174 NA
ATOM      4  C   UNL     1      36.010 -24.020 -13.594  0.00  0.00    +0.189 C 
ATOM      5  C   UNL     1      36.897 -24.571 -12.699  0.00  0.00    +0.112 C 
ATOM      6  C   UNL     1      33.611 -23.571 -13.638  0.00  0.00    +0.126 C 
ATOM      7  C   UNL     1      35.128 -23.046 -15.444  0.00  0.00    +0.140 C 
ATOM      8  C   UNL     1      33.745 -23.058 -14.872  0.00  0.00    +0.064 C 
ATOM      9  C   UNL     1      36.121 -24.911 -11.586  0.00  0.00    +0.100 C 
ENDROOT
BRANCH   7  12
ATOM     10  F   UNL     1      33.128 -23.290 -17.421  0.00  0.00    -0.204 F 
ATOM     11  F   UNL     1      37.425 -21.627 -16.265  0.00  0.00    -0.204 F 
ATOM     12  C   UNL     1      35.273 -22.473 -16.808  0.00  0.00    +0.085 C 
ATOM     13  C   UNL     1      34.248 -22.626 -17.742  0.00  0.00    +0.145 C 
ATOM     14  C   UNL     1      36.433 -21.781 -17.154  0.00  0.00    +0.145 C 
ATOM     15  C   UNL     1      34.383 -22.088 -19.022  0.00  0.00    +0.030 C 
ATOM     16  C   UNL     1      36.569 -21.243 -18.434  0.00  0.00    +0.030 C 
ATOM     17  C   UNL     1      35.544 -21.397 -19.368  0.00  0.00    +0.005 C 
ENDBRANCH   7  12
BRANCH   6  18
ATOM     18  N   UNL     1      32.420 -23.659 -12.974  0.00  0.00    -0.316 N 
ATOM     19  H   UNL     1      32.230 -23.003 -12.266  0.00  0.00    +0.148 HD
BRANCH  18  20
ATOM     20  C   UNL     1      31.429 -24.663 -13.258  0.00  0.00    +0.114 C 
BRANCH  20  24
ATOM     21  N   UNL     1      29.070 -22.230 -14.943  0.00  0.00    -0.181 NA
ATOM     22  N   UNL     1      28.663 -24.432 -15.831  0.00  0.00    -0.204 NA
ATOM     23  N   UNL     1      27.429 -22.584 -16.582  0.00  0.00    -0.303 N 
ATOM     24  C   UNL     1      30.355 -24.105 -14.151  0.00  0.00    +0.020 C 
ATOM     25  C   UNL     1      30.028 -22.764 -14.156  0.00  0.00    +0.106 C 
ATOM     26  C   UNL     1      29.632 -24.900 -15.017  0.00  0.00    +0.163 C 
ATOM     27  C   UNL     1      28.438 -23.107 -15.744  0.00  0.00    +0.084 C 
ATOM     28  H   UNL     1      27.221 -21.621 -16.560  0.00  0.00    +0.154 HD
ATOM     29  H   UNL     1      26.933 -23.180 -17.188  0.00  0.00    +0.154 HD
ENDBRANCH  20  24
ENDBRANCH  18  20
ENDBRANCH   6  18
BRANCH   5  30
ATOM     30  C   UNL     1      38.347 -24.760 -12.872  0.00  0.00    +0.015 C 
ATOM     31  C   UNL     1      38.692 -25.911 -13.825  0.00  0.00    +0.001 C 
ENDBRANCH   5  30
TORSDOF 5
ENDMDL
MODEL 9
REMARK VINA RESULT:     -10.6      3.163      7.130
REMARK  Name = 44629554
REMARK  5 active torsions:
REMARK  status: ('A' for Active; 'I' for Inactive)
REMARK    1  A    between atoms: C_5  and  C_30
REMARK    2  A    between atoms: C_6  and  N_18
REMARK    3  A    between atoms: C_7  and  C_12
REMARK    4  A    between atoms: N_18  and  C_20
REMARK    5  A    between atoms: C_20  and  C_24
REMARK                            x       y       z     vdW  Elec       q    Type
REMARK                         _______ _______ _______ _____ _____    ______ ____
ROOT
ATOM      1  N   UNL     1      35.155 -22.803 -15.942  0.00  0.00    -0.152 N 
ATOM      2  N   UNL     1      33.523 -23.535 -14.329  0.00  0.00    -0.389 NA
ATOM      3  N   UNL     1      36.481 -22.498 -16.011  0.00  0.00    -0.174 NA
ATOM      4  C   UNL     1      34.797 -23.182 -14.647  0.00  0.00    +0.189 C 
ATOM      5  C   UNL     1      35.941 -23.107 -13.886  0.00  0.00    +0.112 C 
ATOM      6  C   UNL     1      34.208 -22.763 -16.978  0.00  0.00    +0.126 C 
ATOM      7  C   UNL     1      32.647 -23.512 -15.293  0.00  0.00    +0.140 C 
ATOM      8  C   UNL     1      32.939 -23.106 -16.703  0.00  0.00    +0.064 C 
ATOM      9  C   UNL     1      36.936 -22.685 -14.774  0.00  0.00    +0.100 C 
ENDROOT
BRANCH   7  12
ATOM     10  F   UNL     1      30.431 -22.240 -16.491  0.00  0.00    -0.204 F 
ATOM     11  F   UNL     1      31.982 -25.571 -13.480  0.00  0.00    -0.204 F 
ATOM     12  C   UNL     1      31.242 -23.896 -14.994  0.00  0.00    +0.085 C 
ATOM     13  C   UNL     1      30.189 -23.230 -15.619  0.00  0.00    +0.145 C 
ATOM     14  C   UNL     1      30.977 -24.923 -14.088  0.00  0.00    +0.145 C 
ATOM     15  C   UNL     1      28.870 -23.590 -15.339  0.00  0.00    +0.030 C 
ATOM     16  C   UNL     1      29.659 -25.284 -13.808  0.00  0.00    +0.030 C 
ATOM     17  C   UNL     1      28.606 -24.617 -14.433  0.00  0.00    +0.005 C 
ENDBRANCH   7  12
BRANCH   6  18
ATOM     18  N   UNL     1      34.641 -22.366 -18.212  0.00  0.00    -0.316 N 
ATOM     19  H   UNL     1      35.553 -22.612 -18.489  0.00  0.00    +0.148 HD
BRANCH  18  20
ATOM     20  C   UNL     1      33.830 -21.607 -19.127  0.00  0.00    +0.114 C 
BRANCH  20  24
ATOM     21  N   UNL     1      34.874 -18.870 -21.524  0.00  0.00    -0.181 NA
ATOM     22  N   UNL     1      36.790 -19.511 -20.212  0.00  0.00    -0.204 NA
ATOM     23  N   UNL     1      36.955 -17.835 -21.844  0.00  0.00    -0.303 N 
ATOM     24  C   UNL     1      34.669 -20.594 -19.856  0.00  0.00    +0.020 C 
ATOM     25  C   UNL     1      34.150 -19.788 -20.849  0.00  0.00    +0.106 C 
ATOM     26  C   UNL     1      36.008 -20.410 -19.577  0.00  0.00    +0.163 C 
ATOM     27  C   UNL     1      36.167 -18.786 -21.159  0.00  0.00    +0.084 C 
ATOM     28  H   UNL     1      36.552 -17.276 -22.547  0.00  0.00    +0.154 HD
ATOM     29  H   UNL     1      37.908 -17.731 -21.619  0.00  0.00    +0.154 HD
ENDBRANCH  20  24
ENDBRANCH  18  20
ENDBRANCH   6  18
BRANCH   5  30
ATOM     30  C   UNL     1      36.088 -23.408 -12.452  0.00  0.00    +0.015 C 
ATOM     31  C   UNL     1      37.444 -22.972 -11.884  0.00  0.00    +0.001 C 
ENDBRANCH   5  30
TORSDOF 5
ENDMDL
