MODEL 1
REMARK VINA RESULT:     -11.3      0.000      0.000
REMARK  Name = 4249
REMARK  7 active torsions:
REMARK  status: ('A' for Active; 'I' for Inactive)
REMARK    1  A    between atoms: N_1  and  C_17
REMARK    2  A    between atoms: C_2  and  C_8
REMARK    3  A    between atoms: C_2  and  O_15
REMARK    4  A    between atoms: C_17  and  C_18
REMARK    5  A    between atoms: C_18  and  C_19
REMARK    6  A    between atoms: C_19  and  C_21
REMARK    7  A    between atoms: C_21  and  C_23
REMARK                            x       y       z     vdW  Elec       q    Type
REMARK                         _______ _______ _______ _____ _____    ______ ____
ROOT
ATOM      1  N   UNL     1      34.474 -15.823 -22.797  0.00  0.00    +0.387 N 
ATOM      2  C   UNL     1      35.280 -18.325 -21.414  0.00  0.00    +0.103 C 
ATOM      3  C   UNL     1      34.584 -18.290 -22.793  0.00  0.00    +0.008 C 
ATOM      4  C   UNL     1      34.969 -17.004 -20.672  0.00  0.00    +0.008 C 
ATOM      5  C   UNL     1      34.867 -17.002 -23.575  0.00  0.00    -0.075 C 
ATOM      6  C   UNL     1      35.211 -15.756 -21.531  0.00  0.00    -0.075 C 
ATOM      7  H   UNL     1      33.480 -15.907 -22.579  0.00  0.00    -0.080 HD
ENDROOT
BRANCH   2   8
ATOM      8  C   UNL     1      34.921 -19.527 -20.540  0.00  0.00    +0.002 C 
ATOM      9  C   UNL     1      35.933 -20.301 -19.972  0.00  0.00    -0.002 C 
ATOM     10  C   UNL     1      33.584 -19.848 -20.311  0.00  0.00    -0.002 C 
ATOM     11  C   UNL     1      35.605 -21.397 -19.174  0.00  0.00    -0.005 C 
ATOM     12  C   UNL     1      33.257 -20.944 -19.514  0.00  0.00    -0.005 C 
ATOM     13  C   UNL     1      34.267 -21.718 -18.945  0.00  0.00    -0.022 C 
ATOM     14  C   UNL     1      33.918 -22.892 -18.092  0.00  0.00    +0.031 C 
ENDBRANCH   2   8
BRANCH   2  15
ATOM     15  O   UNL     1      36.695 -18.425 -21.639  0.00  0.00    -0.383 OA
ATOM     16  H   UNL     1      36.908 -18.077 -22.518  0.00  0.00    +0.211 HD
ENDBRANCH   2  15
BRANCH   1  17
ATOM     17  C   UNL     1      34.679 -14.602 -23.576  0.00  0.00    -0.077 C 
BRANCH  17  18
ATOM     18  C   UNL     1      34.339 -13.372 -22.733  0.00  0.00    -0.015 C 
BRANCH  18  19
ATOM     19  C   UNL     1      32.829 -13.162 -22.594  0.00  0.00    +0.067 C 
BRANCH  19  21
ATOM     20  O   UNL     1      32.244 -13.767 -20.332  0.00  0.00    -0.291 OA
ATOM     21  C   UNL     1      32.387 -12.876 -21.166  0.00  0.00    +0.173 C 
BRANCH  21  23
ATOM     22  F   UNL     1      31.471  -7.578 -19.662  0.00  0.00    -0.204 F 
ATOM     23  C   UNL     1      32.141 -11.461 -20.765  0.00  0.00    +0.035 C 
ATOM     24  C   UNL     1      31.963 -11.175 -19.430  0.00  0.00    +0.005 C 
ATOM     25  C   UNL     1      32.104 -10.494 -21.743  0.00  0.00    +0.005 C 
ATOM     26  C   UNL     1      31.734  -9.851 -19.054  0.00  0.00    +0.030 C 
ATOM     27  C   UNL     1      31.875  -9.169 -21.368  0.00  0.00    +0.030 C 
ATOM     28  C   UNL     1      31.690  -8.849 -20.022  0.00  0.00    +0.140 C 
ENDBRANCH  21  23
ENDBRANCH  19  21
ENDBRANCH  18  19
ENDBRANCH  17  18
ENDBRANCH   1  17
TORSDOF 7
ENDMDL
MODEL 2
REMARK VINA RESULT:     -11.2      3.380      9.552
REMARK  Name = 4249
REMARK  7 active torsions:
REMARK  status: ('A' for Active; 'I' for Inactive)
REMARK    1  A    between atoms: N_1  and  C_17
REMARK    2  A    between atoms: C_2  and  C_8
REMARK    3  A    between atoms: C_2  and  O_15
REMARK    4  A    between atoms: C_17  and  C_18
REMARK    5  A    between atoms: C_18  and  C_19
REMARK    6  A    between atoms: C_19  and  C_21
REMARK    7  A    between atoms: C_21  and  C_23
REMARK                            x       y       z     vdW  Elec       q    Type
REMARK                         _______ _______ _______ _____ _____    ______ ____
ROOT
ATOM      1  N   UNL     1      34.662 -15.346 -23.758  0.00  0.00    +0.387 N 
ATOM      2  C   UNL     1      33.345 -12.795 -22.998  0.00  0.00    +0.103 C 
ATOM      3  C   UNL     1      33.320 -13.384 -24.427  0.00  0.00    +0.008 C 
ATOM      4  C   UNL     1      34.559 -13.384 -22.243  0.00  0.00    +0.008 C 
ATOM      5  C   UNL     1      33.443 -14.912 -24.448  0.00  0.00    -0.075 C 
ATOM      6  C   UNL     1      34.661 -14.911 -22.358  0.00  0.00    -0.075 C 
ATOM      7  H   UNL     1      35.459 -14.910 -24.224  0.00  0.00    -0.080 HD
ENDROOT
BRANCH   2   8
ATOM      8  C   UNL     1      33.361 -11.267 -22.930  0.00  0.00    +0.002 C 
ATOM      9  C   UNL     1      34.271 -10.547 -23.703  0.00  0.00    -0.002 C 
ATOM     10  C   UNL     1      32.468 -10.598 -22.096  0.00  0.00    -0.002 C 
ATOM     11  C   UNL     1      34.285  -9.153 -23.641  0.00  0.00    -0.005 C 
ATOM     12  C   UNL     1      32.483  -9.205 -22.034  0.00  0.00    -0.005 C 
ATOM     13  C   UNL     1      33.391  -8.483 -22.807  0.00  0.00    -0.022 C 
ATOM     14  C   UNL     1      33.407  -6.992 -22.741  0.00  0.00    +0.031 C 
ENDBRANCH   2   8
BRANCH   2  15
ATOM     15  O   UNL     1      32.133 -13.194 -22.339  0.00  0.00    -0.383 OA
ATOM     16  H   UNL     1      31.421 -12.578 -22.570  0.00  0.00    +0.211 HD
ENDBRANCH   2  15
BRANCH   1  17
ATOM     17  C   UNL     1      34.810 -16.799 -23.844  0.00  0.00    -0.077 C 
BRANCH  17  18
ATOM     18  C   UNL     1      35.684 -17.311 -22.698  0.00  0.00    -0.015 C 
BRANCH  18  19
ATOM     19  C   UNL     1      35.342 -18.752 -22.306  0.00  0.00    +0.067 C 
BRANCH  19  21
ATOM     20  O   UNL     1      36.942 -18.690 -20.501  0.00  0.00    -0.291 OA
ATOM     21  C   UNL     1      35.897 -19.156 -20.949  0.00  0.00    +0.173 C 
BRANCH  21  23
ATOM     22  F   UNL     1      33.031 -22.830 -17.874  0.00  0.00    -0.204 F 
ATOM     23  C   UNL     1      35.132 -20.138 -20.128  0.00  0.00    +0.035 C 
ATOM     24  C   UNL     1      35.829 -21.052 -19.370  0.00  0.00    +0.005 C 
ATOM     25  C   UNL     1      33.756 -20.094 -20.158  0.00  0.00    +0.005 C 
ATOM     26  C   UNL     1      35.112 -21.970 -18.602  0.00  0.00    +0.030 C 
ATOM     27  C   UNL     1      33.039 -21.012 -19.390  0.00  0.00    +0.030 C 
ATOM     28  C   UNL     1      33.718 -21.950 -18.611  0.00  0.00    +0.140 C 
ENDBRANCH  21  23
ENDBRANCH  19  21
ENDBRANCH  18  19
ENDBRANCH  17  18
ENDBRANCH   1  17
TORSDOF 7
ENDMDL
MODEL 3
REMARK VINA RESULT:     -11.1      3.461      5.863
REMARK  Name = 4249
REMARK  7 active torsions:
REMARK  status: ('A' for Active; 'I' for Inactive)
REMARK    1  A    between atoms: N_1  and  C_17
REMARK    2  A    between atoms: C_2  and  C_8
REMARK    3  A    between atoms: C_2  and  O_15
REMARK    4  A    between atoms: C_17  and  C_18
REMARK    5  A    between atoms: C_18  and  C_19
REMARK    6  A    between atoms: C_19  and  C_21
REMARK    7  A    between atoms: C_21  and  C_23
REMARK                            x       y       z     vdW  Elec       q    Type
REMARK                         _______ _______ _______ _____ _____    ______ ____
ROOT
ATOM      1  N   UNL     1      35.288 -20.237 -19.616  0.00  0.00    +0.387 N 
ATOM      2  C   UNL     1      33.927 -22.392 -18.089  0.00  0.00    +0.103 C 
ATOM      3  C   UNL     1      33.183 -21.244 -18.807  0.00  0.00    +0.008 C 
ATOM      4  C   UNL     1      35.380 -21.940 -17.813  0.00  0.00    +0.008 C 
ATOM      5  C   UNL     1      33.951 -20.691 -20.013  0.00  0.00    -0.075 C 
ATOM      6  C   UNL     1      36.071 -21.337 -19.044  0.00  0.00    -0.075 C 
ATOM      7  H   UNL     1      35.176 -19.522 -18.896  0.00  0.00    -0.080 HD
ENDROOT
BRANCH   2   8
ATOM      8  C   UNL     1      33.266 -22.885 -16.802  0.00  0.00    +0.002 C 
ATOM      9  C   UNL     1      34.053 -23.366 -15.756  0.00  0.00    -0.002 C 
ATOM     10  C   UNL     1      31.878 -22.853 -16.675  0.00  0.00    -0.002 C 
ATOM     11  C   UNL     1      33.449 -23.815 -14.581  0.00  0.00    -0.005 C 
ATOM     12  C   UNL     1      31.276 -23.302 -15.500  0.00  0.00    -0.005 C 
ATOM     13  C   UNL     1      32.062 -23.783 -14.453  0.00  0.00    -0.022 C 
ATOM     14  C   UNL     1      31.417 -24.264 -13.197  0.00  0.00    +0.031 C 
ENDBRANCH   2   8
BRANCH   2  15
ATOM     15  O   UNL     1      33.939 -23.525 -18.971  0.00  0.00    -0.383 OA
ATOM     16  H   UNL     1      34.849 -23.841 -19.081  0.00  0.00    +0.211 HD
ENDBRANCH   2  15
BRANCH   1  17
ATOM     17  C   UNL     1      35.988 -19.647 -20.755  0.00  0.00    -0.077 C 
BRANCH  17  18
ATOM     18  C   UNL     1      34.984 -19.053 -21.745  0.00  0.00    -0.015 C 
BRANCH  18  19
ATOM     19  C   UNL     1      35.594 -17.930 -22.589  0.00  0.00    +0.067 C 
BRANCH  19  21
ATOM     20  O   UNL     1      35.320 -16.146 -20.987  0.00  0.00    -0.291 OA
ATOM     21  C   UNL     1      35.171 -16.539 -22.141  0.00  0.00    +0.173 C 
BRANCH  21  23
ATOM     22  F   UNL     1      32.926 -13.087 -25.912  0.00  0.00    -0.204 F 
ATOM     23  C   UNL     1      34.572 -15.617 -23.149  0.00  0.00    +0.035 C 
ATOM     24  C   UNL     1      34.343 -16.088 -24.422  0.00  0.00    +0.005 C 
ATOM     25  C   UNL     1      34.270 -14.329 -22.768  0.00  0.00    +0.005 C 
ATOM     26  C   UNL     1      33.782 -15.225 -25.364  0.00  0.00    +0.030 C 
ATOM     27  C   UNL     1      33.709 -13.465 -23.710  0.00  0.00    +0.030 C 
ATOM     28  C   UNL     1      33.464 -13.915 -25.008  0.00  0.00    +0.140 C 
ENDBRANCH  21  23
ENDBRANCH  19  21
ENDBRANCH  18  19
ENDBRANCH  17  18
ENDBRANCH   1  17
TORSDOF 7
ENDMDL
MODEL 4
REMARK VINA RESULT:     -10.9      1.425      2.088
REMARK  Name = 4249
REMARK  7 active torsions:
REMARK  status: ('A' for Active; 'I' for Inactive)
REMARK    1  A    between atoms: N_1  and  C_17
REMARK    2  A    between atoms: C_2  and  C_8
REMARK    3  A    between atoms: C_2  and  O_15
REMARK    4  A    between atoms: C_17  and  C_18
REMARK    5  A    between atoms: C_18  and  C_19
REMARK    6  A    between atoms: C_19  and  C_21
REMARK    7  A    between atoms: C_21  and  C_23
REMARK                            x       y       z     vdW  Elec       q    Type
REMARK                         _______ _______ _______ _____ _____    ______ ____
ROOT
ATOM      1  N   UNL     1      34.560 -16.249 -22.892  0.00  0.00    +0.387 N 
ATOM      2  C   UNL     1      35.269 -18.687 -21.350  0.00  0.00    +0.103 C 
ATOM      3  C   UNL     1      34.576 -18.713 -22.731  0.00  0.00    +0.008 C 
ATOM      4  C   UNL     1      35.009 -17.311 -20.695  0.00  0.00    +0.008 C 
ATOM      5  C   UNL     1      34.908 -17.489 -23.593  0.00  0.00    -0.075 C 
ATOM      6  C   UNL     1      35.298 -16.130 -21.630  0.00  0.00    -0.075 C 
ATOM      7  H   UNL     1      33.563 -16.281 -22.672  0.00  0.00    -0.080 HD
ENDROOT
BRANCH   2   8
ATOM      8  C   UNL     1      34.864 -19.817 -20.403  0.00  0.00    +0.002 C 
ATOM      9  C   UNL     1      33.514 -20.087 -20.181  0.00  0.00    -0.002 C 
ATOM     10  C   UNL     1      35.843 -20.577 -19.765  0.00  0.00    -0.002 C 
ATOM     11  C   UNL     1      33.144 -21.119 -19.317  0.00  0.00    -0.005 C 
ATOM     12  C   UNL     1      35.473 -21.607 -18.902  0.00  0.00    -0.005 C 
ATOM     13  C   UNL     1      34.123 -21.878 -18.679  0.00  0.00    -0.022 C 
ATOM     14  C   UNL     1      33.727 -22.981 -17.755  0.00  0.00    +0.031 C 
ENDBRANCH   2   8
BRANCH   2  15
ATOM     15  O   UNL     1      36.679 -18.856 -21.565  0.00  0.00    -0.383 OA
ATOM     16  H   UNL     1      36.942 -18.388 -22.372  0.00  0.00    +0.211 HD
ENDBRANCH   2  15
BRANCH   1  17
ATOM     17  C   UNL     1      34.812 -15.089 -23.746  0.00  0.00    -0.077 C 
BRANCH  17  18
ATOM     18  C   UNL     1      33.691 -14.061 -23.589  0.00  0.00    -0.015 C 
BRANCH  18  19
ATOM     19  C   UNL     1      34.165 -12.786 -22.887  0.00  0.00    +0.067 C 
BRANCH  19  21
ATOM     20  O   UNL     1      33.918 -11.364 -24.821  0.00  0.00    -0.291 OA
ATOM     21  C   UNL     1      33.761 -11.511 -23.611  0.00  0.00    +0.173 C 
BRANCH  21  23
ATOM     22  F   UNL     1      31.406  -7.393 -20.667  0.00  0.00    -0.204 F 
ATOM     23  C   UNL     1      33.132 -10.411 -22.824  0.00  0.00    +0.035 C 
ATOM     24  C   UNL     1      33.472  -9.109 -23.120  0.00  0.00    +0.005 C 
ATOM     25  C   UNL     1      32.235 -10.737 -21.832  0.00  0.00    +0.005 C 
ATOM     26  C   UNL     1      32.883  -8.081 -22.384  0.00  0.00    +0.030 C 
ATOM     27  C   UNL     1      31.646  -9.709 -21.096  0.00  0.00    +0.030 C 
ATOM     28  C   UNL     1      31.970  -8.380 -21.373  0.00  0.00    +0.140 C 
ENDBRANCH  21  23
ENDBRANCH  19  21
ENDBRANCH  18  19
ENDBRANCH  17  18
ENDBRANCH   1  17
TORSDOF 7
ENDMDL
MODEL 5
REMARK VINA RESULT:     -10.8      7.274     12.408
REMARK  Name = 4249
REMARK  7 active torsions:
REMARK  status: ('A' for Active; 'I' for Inactive)
REMARK    1  A    between atoms: N_1  and  C_17
REMARK    2  A    between atoms: C_2  and  C_8
REMARK    3  A    between atoms: C_2  and  O_15
REMARK    4  A    between atoms: C_17  and  C_18
REMARK    5  A    between atoms: C_18  and  C_19
REMARK    6  A    between atoms: C_19  and  C_21
REMARK    7  A    between atoms: C_21  and  C_23
REMARK                            x       y       z     vdW  Elec       q    Type
REMARK                         _______ _______ _______ _____ _____    ______ ____
ROOT
ATOM      1  N   UNL     1      32.958 -23.253 -14.882  0.00  0.00    +0.387 N 
ATOM      2  C   UNL     1      33.731 -22.663 -17.689  0.00  0.00    +0.103 C 
ATOM      3  C   UNL     1      34.736 -22.744 -16.518  0.00  0.00    +0.008 C 
ATOM      4  C   UNL     1      32.327 -22.368 -17.113  0.00  0.00    +0.008 C 
ATOM      5  C   UNL     1      34.269 -23.670 -15.389  0.00  0.00    -0.075 C 
ATOM      6  C   UNL     1      31.946 -23.286 -15.943  0.00  0.00    -0.075 C 
ATOM      7  H   UNL     1      33.039 -22.289 -14.554  0.00  0.00    -0.080 HD
ENDROOT
BRANCH   2   8
ATOM      8  C   UNL     1      34.087 -21.650 -18.777  0.00  0.00    +0.002 C 
ATOM      9  C   UNL     1      33.076 -20.946 -19.430  0.00  0.00    -0.002 C 
ATOM     10  C   UNL     1      35.421 -21.431 -19.115  0.00  0.00    -0.002 C 
ATOM     11  C   UNL     1      33.401 -20.021 -20.422  0.00  0.00    -0.005 C 
ATOM     12  C   UNL     1      35.746 -20.507 -20.107  0.00  0.00    -0.005 C 
ATOM     13  C   UNL     1      34.736 -19.801 -20.760  0.00  0.00    -0.022 C 
ATOM     14  C   UNL     1      35.083 -18.813 -21.822  0.00  0.00    +0.031 C 
ENDBRANCH   2   8
BRANCH   2  15
ATOM     15  O   UNL     1      33.718 -23.941 -18.345  0.00  0.00    -0.383 OA
ATOM     16  H   UNL     1      34.629 -24.231 -18.506  0.00  0.00    +0.211 HD
ENDBRANCH   2  15
BRANCH   1  17
ATOM     17  C   UNL     1      32.550 -24.095 -13.758  0.00  0.00    -0.077 C 
BRANCH  17  18
ATOM     18  C   UNL     1      33.761 -24.832 -13.182  0.00  0.00    -0.015 C 
BRANCH  18  19
ATOM     19  C   UNL     1      34.511 -23.993 -12.143  0.00  0.00    +0.067 C 
BRANCH  19  21
ATOM     20  O   UNL     1      35.819 -25.129 -10.464  0.00  0.00    -0.291 OA
ATOM     21  C   UNL     1      35.759 -24.674 -11.603  0.00  0.00    +0.173 C 
BRANCH  21  23
ATOM     22  F   UNL     1      40.191 -25.180 -14.961  0.00  0.00    -0.204 F 
ATOM     23  C   UNL     1      36.943 -24.810 -12.501  0.00  0.00    +0.035 C 
ATOM     24  C   UNL     1      37.098 -23.908 -13.530  0.00  0.00    +0.005 C 
ATOM     25  C   UNL     1      37.836 -25.831 -12.266  0.00  0.00    +0.005 C 
ATOM     26  C   UNL     1      38.206 -24.035 -14.369  0.00  0.00    +0.030 C 
ATOM     27  C   UNL     1      38.944 -25.957 -13.105  0.00  0.00    +0.030 C 
ATOM     28  C   UNL     1      39.129 -25.058 -14.156  0.00  0.00    +0.140 C 
ENDBRANCH  21  23
ENDBRANCH  19  21
ENDBRANCH  18  19
ENDBRANCH  17  18
ENDBRANCH   1  17
TORSDOF 7
ENDMDL
MODEL 6
REMARK VINA RESULT:     -10.5      4.670      9.922
REMARK  Name = 4249
REMARK  7 active torsions:
REMARK  status: ('A' for Active; 'I' for Inactive)
REMARK    1  A    between atoms: N_1  and  C_17
REMARK    2  A    between atoms: C_2  and  C_8
REMARK    3  A    between atoms: C_2  and  O_15
REMARK    4  A    between atoms: C_17  and  C_18
REMARK    5  A    between atoms: C_18  and  C_19
REMARK    6  A    between atoms: C_19  and  C_21
REMARK    7  A    between atoms: C_21  and  C_23
REMARK                            x       y       z     vdW  Elec       q    Type
REMARK                         _______ _______ _______ _____ _____    ______ ____
ROOT
ATOM      1  N   UNL     1      35.682 -20.351 -19.321  0.00  0.00    +0.387 N 
ATOM      2  C   UNL     1      35.388 -18.291 -21.441  0.00  0.00    +0.103 C 
ATOM      3  C   UNL     1      36.660 -18.467 -20.582  0.00  0.00    +0.008 C 
ATOM      4  C   UNL     1      34.191 -18.906 -20.679  0.00  0.00    +0.008 C 
ATOM      5  C   UNL     1      36.854 -19.902 -20.081  0.00  0.00    -0.075 C 
ATOM      6  C   UNL     1      34.472 -20.318 -20.148  0.00  0.00    -0.075 C 
ATOM      7  H   UNL     1      35.549 -19.708 -18.540  0.00  0.00    -0.080 HD
ENDROOT
BRANCH   2   8
ATOM      8  C   UNL     1      35.079 -16.851 -21.851  0.00  0.00    +0.002 C 
ATOM      9  C   UNL     1      34.978 -15.858 -20.878  0.00  0.00    -0.002 C 
ATOM     10  C   UNL     1      34.899 -16.533 -23.196  0.00  0.00    -0.002 C 
ATOM     11  C   UNL     1      34.697 -14.543 -21.253  0.00  0.00    -0.005 C 
ATOM     12  C   UNL     1      34.618 -15.220 -23.570  0.00  0.00    -0.005 C 
ATOM     13  C   UNL     1      34.517 -14.225 -22.598  0.00  0.00    -0.022 C 
ATOM     14  C   UNL     1      34.216 -12.819 -22.998  0.00  0.00    +0.031 C 
ENDBRANCH   2   8
BRANCH   2  15
ATOM     15  O   UNL     1      35.588 -19.005 -22.671  0.00  0.00    -0.383 OA
ATOM     16  H   UNL     1      36.466 -19.416 -22.668  0.00  0.00    +0.211 HD
ENDBRANCH   2  15
BRANCH   1  17
ATOM     17  C   UNL     1      35.902 -21.694 -18.786  0.00  0.00    -0.077 C 
BRANCH  17  18
ATOM     18  C   UNL     1      34.586 -22.473 -18.749  0.00  0.00    -0.015 C 
BRANCH  18  19
ATOM     19  C   UNL     1      34.153 -22.816 -17.321  0.00  0.00    +0.067 C 
BRANCH  19  21
ATOM     20  O   UNL     1      31.939 -22.042 -17.888  0.00  0.00    -0.291 OA
ATOM     21  C   UNL     1      32.670 -22.592 -17.068  0.00  0.00    +0.173 C 
BRANCH  21  23
ATOM     22  F   UNL     1      30.474 -24.404 -12.265  0.00  0.00    -0.204 F 
ATOM     23  C   UNL     1      32.084 -23.077 -15.785  0.00  0.00    +0.035 C 
ATOM     24  C   UNL     1      32.933 -23.519 -14.796  0.00  0.00    +0.005 C 
ATOM     25  C   UNL     1      30.715 -23.063 -15.638  0.00  0.00    +0.005 C 
ATOM     26  C   UNL     1      32.384 -23.972 -13.595  0.00  0.00    +0.030 C 
ATOM     27  C   UNL     1      30.165 -23.516 -14.437  0.00  0.00    +0.030 C 
ATOM     28  C   UNL     1      31.001 -23.970 -13.416  0.00  0.00    +0.140 C 
ENDBRANCH  21  23
ENDBRANCH  19  21
ENDBRANCH  18  19
ENDBRANCH  17  18
ENDBRANCH   1  17
TORSDOF 7
ENDMDL
MODEL 7
REMARK VINA RESULT:     -10.5      3.462      9.481
REMARK  Name = 4249
REMARK  7 active torsions:
REMARK  status: ('A' for Active; 'I' for Inactive)
REMARK    1  A    between atoms: N_1  and  C_17
REMARK    2  A    between atoms: C_2  and  C_8
REMARK    3  A    between atoms: C_2  and  O_15
REMARK    4  A    between atoms: C_17  and  C_18
REMARK    5  A    between atoms: C_18  and  C_19
REMARK    6  A    between atoms: C_19  and  C_21
REMARK    7  A    between atoms: C_21  and  C_23
REMARK                            x       y       z     vdW  Elec       q    Type
REMARK                         _______ _______ _______ _____ _____    ______ ____
ROOT
ATOM      1  N   UNL     1      33.813 -15.411 -23.577  0.00  0.00    +0.387 N 
ATOM      2  C   UNL     1      33.813 -12.455 -23.284  0.00  0.00    +0.103 C 
ATOM      3  C   UNL     1      34.237 -13.431 -22.164  0.00  0.00    +0.008 C 
ATOM      4  C   UNL     1      32.901 -13.213 -24.277  0.00  0.00    +0.008 C 
ATOM      5  C   UNL     1      34.789 -14.757 -22.700  0.00  0.00    -0.075 C 
ATOM      6  C   UNL     1      33.480 -14.561 -24.725  0.00  0.00    -0.075 C 
ATOM      7  H   UNL     1      32.959 -15.563 -23.039  0.00  0.00    -0.080 HD
ENDROOT
BRANCH   2   8
ATOM      8  C   UNL     1      33.131 -11.175 -22.801  0.00  0.00    +0.002 C 
ATOM      9  C   UNL     1      32.258 -11.219 -21.715  0.00  0.00    -0.002 C 
ATOM     10  C   UNL     1      33.385  -9.965 -23.446  0.00  0.00    -0.002 C 
ATOM     11  C   UNL     1      31.637 -10.050 -21.274  0.00  0.00    -0.005 C 
ATOM     12  C   UNL     1      32.764  -8.797 -23.004  0.00  0.00    -0.005 C 
ATOM     13  C   UNL     1      31.890  -8.840 -21.918  0.00  0.00    -0.022 C 
ATOM     14  C   UNL     1      31.225  -7.590 -21.446  0.00  0.00    +0.031 C 
ENDBRANCH   2   8
BRANCH   2  15
ATOM     15  O   UNL     1      35.002 -12.023 -23.963  0.00  0.00    -0.383 OA
ATOM     16  H   UNL     1      35.492 -11.406 -23.397  0.00  0.00    +0.211 HD
ENDBRANCH   2  15
BRANCH   1  17
ATOM     17  C   UNL     1      34.316 -16.708 -24.028  0.00  0.00    -0.077 C 
BRANCH  17  18
ATOM     18  C   UNL     1      35.409 -17.210 -23.083  0.00  0.00    -0.015 C 
BRANCH  18  19
ATOM     19  C   UNL     1      35.068 -18.571 -22.470  0.00  0.00    +0.067 C 
BRANCH  19  21
ATOM     20  O   UNL     1      35.474 -17.598 -20.299  0.00  0.00    -0.291 OA
ATOM     21  C   UNL     1      35.135 -18.583 -20.950  0.00  0.00    +0.173 C 
BRANCH  21  23
ATOM     22  F   UNL     1      33.711 -23.256 -18.246  0.00  0.00    -0.204 F 
ATOM     23  C   UNL     1      34.755 -19.832 -20.229  0.00  0.00    +0.035 C 
ATOM     24  C   UNL     1      35.754 -20.628 -19.714  0.00  0.00    +0.005 C 
ATOM     25  C   UNL     1      33.419 -20.142 -20.103  0.00  0.00    +0.005 C 
ATOM     26  C   UNL     1      35.397 -21.796 -19.038  0.00  0.00    +0.030 C 
ATOM     27  C   UNL     1      33.062 -21.309 -19.427  0.00  0.00    +0.030 C 
ATOM     28  C   UNL     1      34.053 -22.136 -18.894  0.00  0.00    +0.140 C 
ENDBRANCH  21  23
ENDBRANCH  19  21
ENDBRANCH  18  19
ENDBRANCH  17  18
ENDBRANCH   1  17
TORSDOF 7
ENDMDL
MODEL 8
REMARK VINA RESULT:     -10.3      3.373      9.674
REMARK  Name = 4249
REMARK  7 active torsions:
REMARK  status: ('A' for Active; 'I' for Inactive)
REMARK    1  A    between atoms: N_1  and  C_17
REMARK    2  A    between atoms: C_2  and  C_8
REMARK    3  A    between atoms: C_2  and  O_15
REMARK    4  A    between atoms: C_17  and  C_18
REMARK    5  A    between atoms: C_18  and  C_19
REMARK    6  A    between atoms: C_19  and  C_21
REMARK    7  A    between atoms: C_21  and  C_23
REMARK                            x       y       z     vdW  Elec       q    Type
REMARK                         _______ _______ _______ _____ _____    ______ ____
ROOT
ATOM      1  N   UNL     1      34.610 -14.709 -20.732  0.00  0.00    +0.387 N 
ATOM      2  C   UNL     1      32.896 -12.590 -21.913  0.00  0.00    +0.103 C 
ATOM      3  C   UNL     1      34.246 -13.040 -22.516  0.00  0.00    +0.008 C 
ATOM      4  C   UNL     1      32.879 -12.960 -20.412  0.00  0.00    +0.008 C 
ATOM      5  C   UNL     1      34.596 -14.495 -22.183  0.00  0.00    -0.075 C 
ATOM      6  C   UNL     1      33.302 -14.410 -20.141  0.00  0.00    -0.075 C 
ATOM      7  H   UNL     1      35.293 -14.067 -20.327  0.00  0.00    -0.080 HD
ENDROOT
BRANCH   2   8
ATOM      8  C   UNL     1      32.566 -11.109 -22.103  0.00  0.00    +0.002 C 
ATOM      9  C   UNL     1      31.607 -10.501 -21.294  0.00  0.00    -0.002 C 
ATOM     10  C   UNL     1      33.225 -10.369 -23.083  0.00  0.00    -0.002 C 
ATOM     11  C   UNL     1      31.308  -9.149 -21.467  0.00  0.00    -0.005 C 
ATOM     12  C   UNL     1      32.925  -9.018 -23.255  0.00  0.00    -0.005 C 
ATOM     13  C   UNL     1      31.966  -8.408 -22.447  0.00  0.00    -0.022 C 
ATOM     14  C   UNL     1      31.644  -6.963 -22.632  0.00  0.00    +0.031 C 
ENDBRANCH   2   8
BRANCH   2  15
ATOM     15  O   UNL     1      31.852 -13.304 -22.594  0.00  0.00    -0.383 OA
ATOM     16  H   UNL     1      31.223 -12.672 -22.975  0.00  0.00    +0.211 HD
ENDBRANCH   2  15
BRANCH   1  17
ATOM     17  C   UNL     1      35.014 -16.079 -20.419  0.00  0.00    -0.077 C 
BRANCH  17  18
ATOM     18  C   UNL     1      35.629 -16.745 -21.652  0.00  0.00    -0.015 C 
BRANCH  18  19
ATOM     19  C   UNL     1      36.024 -18.201 -21.390  0.00  0.00    +0.067 C 
BRANCH  19  21
ATOM     20  O   UNL     1      34.073 -19.179 -22.420  0.00  0.00    -0.291 OA
ATOM     21  C   UNL     1      34.853 -19.168 -21.470  0.00  0.00    +0.173 C 
BRANCH  21  23
ATOM     22  F   UNL     1      34.134 -22.848 -17.333  0.00  0.00    -0.204 F 
ATOM     23  C   UNL     1      34.661 -20.150 -20.364  0.00  0.00    +0.035 C 
ATOM     24  C   UNL     1      33.379 -20.442 -19.955  0.00  0.00    +0.005 C 
ATOM     25  C   UNL     1      35.773 -20.730 -19.795  0.00  0.00    +0.005 C 
ATOM     26  C   UNL     1      33.200 -21.362 -18.921  0.00  0.00    +0.030 C 
ATOM     27  C   UNL     1      35.593 -21.650 -18.761  0.00  0.00    +0.030 C 
ATOM     28  C   UNL     1      34.306 -21.966 -18.325  0.00  0.00    +0.140 C 
ENDBRANCH  21  23
ENDBRANCH  19  21
ENDBRANCH  18  19
ENDBRANCH  17  18
ENDBRANCH   1  17
TORSDOF 7
ENDMDL
MODEL 9
REMARK VINA RESULT:     -10.2      3.585      9.858
REMARK  Name = 4249
REMARK  7 active torsions:
REMARK  status: ('A' for Active; 'I' for Inactive)
REMARK    1  A    between atoms: N_1  and  C_17
REMARK    2  A    between atoms: C_2  and  C_8
REMARK    3  A    between atoms: C_2  and  O_15
REMARK    4  A    between atoms: C_17  and  C_18
REMARK    5  A    between atoms: C_18  and  C_19
REMARK    6  A    between atoms: C_19  and  C_21
REMARK    7  A    between atoms: C_21  and  C_23
REMARK                            x       y       z     vdW  Elec       q    Type
REMARK                         _______ _______ _______ _____ _____    ______ ____
ROOT
ATOM      1  N   UNL     1      33.164 -13.313 -24.523  0.00  0.00    +0.387 N 
ATOM      2  C   UNL     1      33.692 -10.594 -23.448  0.00  0.00    +0.103 C 
ATOM      3  C   UNL     1      33.347 -11.816 -22.567  0.00  0.00    +0.008 C 
ATOM      4  C   UNL     1      33.172 -10.857 -24.880  0.00  0.00    +0.008 C 
ATOM      5  C   UNL     1      33.769 -13.149 -23.196  0.00  0.00    -0.075 C 
ATOM      6  C   UNL     1      33.574 -12.234 -25.427  0.00  0.00    -0.075 C 
ATOM      7  H   UNL     1      32.150 -13.266 -24.414  0.00  0.00    -0.080 HD
ENDROOT
BRANCH   2   8
ATOM      8  C   UNL     1      33.171  -9.254 -22.926  0.00  0.00    +0.002 C 
ATOM      9  C   UNL     1      33.917  -8.093 -23.126  0.00  0.00    -0.002 C 
ATOM     10  C   UNL     1      31.952  -9.195 -22.254  0.00  0.00    -0.002 C 
ATOM     11  C   UNL     1      33.441  -6.871 -22.651  0.00  0.00    -0.005 C 
ATOM     12  C   UNL     1      31.477  -7.973 -21.780  0.00  0.00    -0.005 C 
ATOM     13  C   UNL     1      32.221  -6.811 -21.978  0.00  0.00    -0.022 C 
ATOM     14  C   UNL     1      31.713  -5.504 -21.470  0.00  0.00    +0.031 C 
ENDBRANCH   2   8
BRANCH   2  15
ATOM     15  O   UNL     1      35.122 -10.464 -23.475  0.00  0.00    -0.383 OA
ATOM     16  H   UNL     1      35.444 -10.245 -22.587  0.00  0.00    +0.211 HD
ENDBRANCH   2  15
BRANCH   1  17
ATOM     17  C   UNL     1      33.513 -14.616 -25.087  0.00  0.00    -0.077 C 
BRANCH  17  18
ATOM     18  C   UNL     1      34.068 -15.535 -23.997  0.00  0.00    -0.015 C 
BRANCH  18  19
ATOM     19  C   UNL     1      34.689 -16.811 -24.573  0.00  0.00    +0.067 C 
BRANCH  19  21
ATOM     20  O   UNL     1      33.257 -18.736 -24.313  0.00  0.00    -0.291 OA
ATOM     21  C   UNL     1      34.205 -18.080 -23.888  0.00  0.00    +0.173 C 
BRANCH  21  23
ATOM     22  F   UNL     1      36.897 -19.846 -19.327  0.00  0.00    -0.204 F 
ATOM     23  C   UNL     1      34.925 -18.553 -22.670  0.00  0.00    +0.035 C 
ATOM     24  C   UNL     1      36.203 -18.097 -22.440  0.00  0.00    +0.005 C 
ATOM     25  C   UNL     1      34.283 -19.426 -21.821  0.00  0.00    +0.005 C 
ATOM     26  C   UNL     1      36.876 -18.538 -21.299  0.00  0.00    +0.030 C 
ATOM     27  C   UNL     1      34.955 -19.868 -20.681  0.00  0.00    +0.030 C 
ATOM     28  C   UNL     1      36.252 -19.423 -20.420  0.00  0.00    +0.140 C 
ENDBRANCH  21  23
ENDBRANCH  19  21
ENDBRANCH  18  19
ENDBRANCH  17  18
ENDBRANCH   1  17
TORSDOF 7
ENDMDL
