MODEL 1
REMARK VINA RESULT:     -11.6      0.000      0.000
REMARK  Name = 5326866
REMARK  5 active torsions:
REMARK  status: ('A' for Active; 'I' for Inactive)
REMARK    1  A    between atoms: N_5  and  C_14
REMARK    2  A    between atoms: C_6  and  C_28
REMARK    3  A    between atoms: C_15  and  C_20
REMARK    4  A    between atoms: C_20  and  O_21
REMARK    5  A    between atoms: O_21  and  C_23
REMARK                            x       y       z     vdW  Elec       q    Type
REMARK                         _______ _______ _______ _____ _____    ______ ____
ROOT
ATOM      1  O   UNL     1      34.439 -21.009 -19.309  0.00  0.00    -0.252 OA
ATOM      2  N   UNL     1      35.336 -23.300 -15.887  0.00  0.00    -0.239 N 
ATOM      3  N   UNL     1      35.110 -22.545 -16.976  0.00  0.00    -0.166 NA
ATOM      4  N   UNL     1      36.486 -21.000 -18.168  0.00  0.00    -0.252 N 
ATOM      5  N   UNL     1      36.210 -19.665 -20.030  0.00  0.00    -0.268 N 
ATOM      6  C   UNL     1      36.565 -23.115 -15.428  0.00  0.00    +0.045 C 
ATOM      7  C   UNL     1      37.225 -22.240 -16.169  0.00  0.00    +0.048 C 
ATOM      8  C   UNL     1      36.267 -21.899 -17.144  0.00  0.00    +0.154 C 
ATOM      9  C   UNL     1      35.588 -20.599 -19.186  0.00  0.00    +0.309 C 
ATOM     10  H   UNL     1      34.675 -23.909 -15.485  0.00  0.00    +0.174 HD
ATOM     11  H   UNL     1      37.379 -20.586 -18.194  0.00  0.00    +0.158 HD
ATOM     12  H   UNL     1      37.140 -19.432 -19.805  0.00  0.00    +0.156 HD
ENDROOT
BRANCH   5  14
ATOM     13 CL   UNL     1      33.923 -16.997 -24.783  0.00  0.00    -0.082 Cl
ATOM     14  C   UNL     1      35.666 -19.018 -21.164  0.00  0.00    +0.051 C 
ATOM     15  C   UNL     1      35.169 -16.998 -22.360  0.00  0.00    +0.033 C 
ATOM     16  C   UNL     1      35.707 -17.635 -21.241  0.00  0.00    +0.015 C 
ATOM     17  C   UNL     1      35.101 -19.780 -22.173  0.00  0.00    +0.016 C 
ATOM     18  C   UNL     1      34.597 -17.751 -23.385  0.00  0.00    +0.057 C 
ATOM     19  C   UNL     1      34.564 -19.143 -23.291  0.00  0.00    +0.012 C 
BRANCH  15  20
ATOM     20  C   UNL     1      35.225 -15.505 -22.421  0.00  0.00    +0.233 C 
BRANCH  20  21
ATOM     21  O   UNL     1      34.741 -14.967 -21.198  0.00  0.00    -0.469 OA
BRANCH  21  23
ATOM     22  N   UNL     1      33.051 -12.009 -22.493  0.00  0.00    -0.239 NA
ATOM     23  C   UNL     1      33.846 -13.933 -21.289  0.00  0.00    +0.158 C 
ATOM     24  C   UNL     1      32.874 -13.759 -20.321  0.00  0.00    +0.040 C 
ATOM     25  C   UNL     1      33.902 -13.049 -22.344  0.00  0.00    +0.136 C 
ATOM     26  C   UNL     1      31.980 -12.700 -20.439  0.00  0.00    +0.024 C 
ATOM     27  C   UNL     1      32.110 -11.861 -21.534  0.00  0.00    +0.099 C 
ENDBRANCH  21  23
ENDBRANCH  20  21
ENDBRANCH  15  20
ENDBRANCH   5  14
BRANCH   6  28
ATOM     28  C   UNL     1      37.031 -23.891 -14.172  0.00  0.00    +0.033 C 
ATOM     29  C   UNL     1      38.475 -24.397 -14.374  0.00  0.00    +0.006 C 
ATOM     30  C   UNL     1      36.097 -25.096 -13.923  0.00  0.00    +0.006 C 
ATOM     31  C   UNL     1      37.023 -23.036 -12.886  0.00  0.00    +0.006 C 
ENDBRANCH   6  28
TORSDOF 5
ENDMDL
MODEL 2
REMARK VINA RESULT:     -11.4      3.278     11.225
REMARK  Name = 5326866
REMARK  5 active torsions:
REMARK  status: ('A' for Active; 'I' for Inactive)
REMARK    1  A    between atoms: N_5  and  C_14
REMARK    2  A    between atoms: C_6  and  C_28
REMARK    3  A    between atoms: C_15  and  C_20
REMARK    4  A    between atoms: C_20  and  O_21
REMARK    5  A    between atoms: O_21  and  C_23
REMARK                            x       y       z     vdW  Elec       q    Type
REMARK                         _______ _______ _______ _____ _____    ______ ____
ROOT
ATOM      1  O   UNL     1      32.724 -13.455 -22.146  0.00  0.00    -0.252 OA
ATOM      2  N   UNL     1      31.922  -9.368 -21.504  0.00  0.00    -0.239 N 
ATOM      3  N   UNL     1      32.217 -10.655 -21.757  0.00  0.00    -0.166 NA
ATOM      4  N   UNL     1      33.627 -11.683 -23.387  0.00  0.00    -0.252 N 
ATOM      5  N   UNL     1      34.207 -13.855 -23.909  0.00  0.00    -0.268 N 
ATOM      6  C   UNL     1      32.556  -8.561 -22.342  0.00  0.00    +0.045 C 
ATOM      7  C   UNL     1      33.301  -9.247 -23.193  0.00  0.00    +0.048 C 
ATOM      8  C   UNL     1      33.060 -10.575 -22.791  0.00  0.00    +0.154 C 
ATOM      9  C   UNL     1      33.443 -13.046 -23.051  0.00  0.00    +0.309 C 
ATOM     10  H   UNL     1      31.315  -9.066 -20.790  0.00  0.00    +0.174 HD
ATOM     11  H   UNL     1      34.235 -11.503 -24.140  0.00  0.00    +0.158 HD
ATOM     12  H   UNL     1      34.737 -13.382 -24.590  0.00  0.00    +0.156 HD
ENDROOT
BRANCH   5  14
ATOM     13 CL   UNL     1      34.605 -19.753 -23.964  0.00  0.00    -0.082 Cl
ATOM     14  C   UNL     1      34.308 -15.266 -23.914  0.00  0.00    +0.051 C 
ATOM     15  C   UNL     1      35.293 -17.278 -23.054  0.00  0.00    +0.033 C 
ATOM     16  C   UNL     1      35.193 -15.886 -23.047  0.00  0.00    +0.015 C 
ATOM     17  C   UNL     1      33.523 -15.998 -24.789  0.00  0.00    +0.016 C 
ATOM     18  C   UNL     1      34.508 -18.030 -23.928  0.00  0.00    +0.057 C 
ATOM     19  C   UNL     1      33.623 -17.389 -24.796  0.00  0.00    +0.012 C 
BRANCH  15  20
ATOM     20  C   UNL     1      36.253 -17.924 -22.108  0.00  0.00    +0.233 C 
BRANCH  20  21
ATOM     21  O   UNL     1      35.671 -17.979 -20.813  0.00  0.00    -0.469 OA
BRANCH  21  23
ATOM     22  N   UNL     1      36.314 -21.228 -19.290  0.00  0.00    -0.239 NA
ATOM     23  C   UNL     1      35.437 -19.226 -20.293  0.00  0.00    +0.158 C 
ATOM     24  C   UNL     1      34.152 -19.736 -20.246  0.00  0.00    +0.040 C 
ATOM     25  C   UNL     1      36.476 -19.991 -19.813  0.00  0.00    +0.136 C 
ATOM     26  C   UNL     1      33.945 -21.004 -19.715  0.00  0.00    +0.024 C 
ATOM     27  C   UNL     1      35.049 -21.703 -19.254  0.00  0.00    +0.099 C 
ENDBRANCH  21  23
ENDBRANCH  20  21
ENDBRANCH  15  20
ENDBRANCH   5  14
BRANCH   6  28
ATOM     28  C   UNL     1      32.352  -7.031 -22.223  0.00  0.00    +0.033 C 
ATOM     29  C   UNL     1      31.363  -6.547 -23.305  0.00  0.00    +0.006 C 
ATOM     30  C   UNL     1      33.704  -6.306 -22.404  0.00  0.00    +0.006 C 
ATOM     31  C   UNL     1      31.781  -6.594 -20.856  0.00  0.00    +0.006 C 
ENDBRANCH   6  28
TORSDOF 5
ENDMDL
MODEL 3
REMARK VINA RESULT:     -10.8      3.564     11.935
REMARK  Name = 5326866
REMARK  5 active torsions:
REMARK  status: ('A' for Active; 'I' for Inactive)
REMARK    1  A    between atoms: N_5  and  C_14
REMARK    2  A    between atoms: C_6  and  C_28
REMARK    3  A    between atoms: C_15  and  C_20
REMARK    4  A    between atoms: C_20  and  O_21
REMARK    5  A    between atoms: O_21  and  C_23
REMARK                            x       y       z     vdW  Elec       q    Type
REMARK                         _______ _______ _______ _____ _____    ______ ____
ROOT
ATOM      1  O   UNL     1      32.308 -12.104 -22.334  0.00  0.00    -0.252 OA
ATOM      2  N   UNL     1      31.522  -8.042 -21.536  0.00  0.00    -0.239 N 
ATOM      3  N   UNL     1      31.818  -9.319 -21.833  0.00  0.00    -0.166 NA
ATOM      4  N   UNL     1      33.400 -10.289 -23.336  0.00  0.00    -0.252 N 
ATOM      5  N   UNL     1      33.992 -12.442 -23.919  0.00  0.00    -0.268 N 
ATOM      6  C   UNL     1      32.275  -7.205 -22.235  0.00  0.00    +0.045 C 
ATOM      7  C   UNL     1      33.107  -7.860 -23.029  0.00  0.00    +0.048 C 
ATOM      8  C   UNL     1      32.787  -9.202 -22.746  0.00  0.00    +0.154 C 
ATOM      9  C   UNL     1      33.145 -11.664 -23.114  0.00  0.00    +0.309 C 
ATOM     10  H   UNL     1      30.836  -7.766 -20.886  0.00  0.00    +0.174 HD
ATOM     11  H   UNL     1      34.103 -10.082 -23.994  0.00  0.00    +0.158 HD
ATOM     12  H   UNL     1      34.615 -11.944 -24.498  0.00  0.00    +0.156 HD
ENDROOT
BRANCH   5  14
ATOM     13 CL   UNL     1      34.266 -18.334 -24.304  0.00  0.00    -0.082 Cl
ATOM     14  C   UNL     1      34.062 -13.852 -24.002  0.00  0.00    +0.051 C 
ATOM     15  C   UNL     1      34.784 -15.951 -23.089  0.00  0.00    +0.033 C 
ATOM     16  C   UNL     1      34.715 -14.559 -23.006  0.00  0.00    +0.015 C 
ATOM     17  C   UNL     1      33.478 -14.497 -25.081  0.00  0.00    +0.016 C 
ATOM     18  C   UNL     1      34.201 -16.615 -24.168  0.00  0.00    +0.057 C 
ATOM     19  C   UNL     1      33.548 -15.887 -25.164  0.00  0.00    +0.012 C 
BRANCH  15  20
ATOM     20  C   UNL     1      35.492 -16.692 -22.002  0.00  0.00    +0.233 C 
BRANCH  20  21
ATOM     21  O   UNL     1      34.627 -17.687 -21.472  0.00  0.00    -0.469 OA
BRANCH  21  23
ATOM     22  N   UNL     1      37.185 -19.628 -19.748  0.00  0.00    -0.239 NA
ATOM     23  C   UNL     1      35.217 -18.717 -20.788  0.00  0.00    +0.158 C 
ATOM     24  C   UNL     1      34.490 -19.847 -20.457  0.00  0.00    +0.040 C 
ATOM     25  C   UNL     1      36.543 -18.647 -20.421  0.00  0.00    +0.136 C 
ATOM     26  C   UNL     1      35.115 -20.878 -19.765  0.00  0.00    +0.024 C 
ATOM     27  C   UNL     1      36.452 -20.721 -19.436  0.00  0.00    +0.099 C 
ENDBRANCH  21  23
ENDBRANCH  20  21
ENDBRANCH  15  20
ENDBRANCH   5  14
BRANCH   6  28
ATOM     28  C   UNL     1      32.092  -5.679 -22.045  0.00  0.00    +0.033 C 
ATOM     29  C   UNL     1      32.808  -4.919 -23.182  0.00  0.00    +0.006 C 
ATOM     30  C   UNL     1      32.684  -5.245 -20.686  0.00  0.00    +0.006 C 
ATOM     31  C   UNL     1      30.613  -5.234 -22.060  0.00  0.00    +0.006 C 
ENDBRANCH   6  28
TORSDOF 5
ENDMDL
MODEL 4
REMARK VINA RESULT:     -10.4      4.533     10.357
REMARK  Name = 5326866
REMARK  5 active torsions:
REMARK  status: ('A' for Active; 'I' for Inactive)
REMARK    1  A    between atoms: N_5  and  C_14
REMARK    2  A    between atoms: C_6  and  C_28
REMARK    3  A    between atoms: C_15  and  C_20
REMARK    4  A    between atoms: C_20  and  O_21
REMARK    5  A    between atoms: O_21  and  C_23
REMARK                            x       y       z     vdW  Elec       q    Type
REMARK                         _______ _______ _______ _____ _____    ______ ____
ROOT
ATOM      1  O   UNL     1      35.185 -22.655 -16.953  0.00  0.00    -0.252 OA
ATOM      2  N   UNL     1      34.614 -20.167 -20.307  0.00  0.00    -0.239 N 
ATOM      3  N   UNL     1      34.856 -20.938 -19.232  0.00  0.00    -0.166 NA
ATOM      4  N   UNL     1      36.789 -21.205 -17.856  0.00  0.00    -0.252 N 
ATOM      5  N   UNL     1      37.315 -22.479 -16.005  0.00  0.00    -0.268 N 
ATOM      6  C   UNL     1      35.677 -19.441 -20.621  0.00  0.00    +0.045 C 
ATOM      7  C   UNL     1      36.678 -19.677 -19.789  0.00  0.00    +0.048 C 
ATOM      8  C   UNL     1      36.119 -20.635 -18.920  0.00  0.00    +0.154 C 
ATOM      9  C   UNL     1      36.310 -22.168 -16.936  0.00  0.00    +0.309 C 
ATOM     10  H   UNL     1      33.759 -20.146 -20.796  0.00  0.00    +0.174 HD
ATOM     11  H   UNL     1      37.717 -20.903 -17.720  0.00  0.00    +0.158 HD
ATOM     12  H   UNL     1      38.170 -22.005 -16.119  0.00  0.00    +0.156 HD
ENDROOT
BRANCH   5  14
ATOM     13 CL   UNL     1      37.081 -26.288 -11.492  0.00  0.00    -0.082 Cl
ATOM     14  C   UNL     1      37.249 -23.389 -14.924  0.00  0.00    +0.051 C 
ATOM     15  C   UNL     1      35.992 -24.441 -13.172  0.00  0.00    +0.033 C 
ATOM     16  C   UNL     1      36.055 -23.543 -14.239  0.00  0.00    +0.015 C 
ATOM     17  C   UNL     1      38.381 -24.105 -14.572  0.00  0.00    +0.016 C 
ATOM     18  C   UNL     1      37.123 -25.169 -12.805  0.00  0.00    +0.057 C 
ATOM     19  C   UNL     1      38.318 -25.001 -13.506  0.00  0.00    +0.012 C 
BRANCH  15  20
ATOM     20  C   UNL     1      34.692 -24.591 -12.449  0.00  0.00    +0.233 C 
BRANCH  20  21
ATOM     21  O   UNL     1      33.822 -23.530 -12.821  0.00  0.00    -0.469 OA
BRANCH  21  23
ATOM     22  N   UNL     1      30.822 -25.383 -13.743  0.00  0.00    -0.239 NA
ATOM     23  C   UNL     1      32.680 -23.876 -13.494  0.00  0.00    +0.158 C 
ATOM     24  C   UNL     1      32.237 -23.115 -14.561  0.00  0.00    +0.040 C 
ATOM     25  C   UNL     1      31.955 -24.987 -13.121  0.00  0.00    +0.136 C 
ATOM     26  C   UNL     1      31.076 -23.491 -15.226  0.00  0.00    +0.024 C 
ATOM     27  C   UNL     1      30.411 -24.622 -14.782  0.00  0.00    +0.099 C 
ENDBRANCH  21  23
ENDBRANCH  20  21
ENDBRANCH  15  20
ENDBRANCH   5  14
BRANCH   6  28
ATOM     28  C   UNL     1      35.610 -18.482 -21.834  0.00  0.00    +0.033 C 
ATOM     29  C   UNL     1      34.683 -19.072 -22.919  0.00  0.00    +0.006 C 
ATOM     30  C   UNL     1      37.024 -18.281 -22.422  0.00  0.00    +0.006 C 
ATOM     31  C   UNL     1      35.062 -17.083 -21.478  0.00  0.00    +0.006 C 
ENDBRANCH   6  28
TORSDOF 5
ENDMDL
MODEL 5
REMARK VINA RESULT:      -9.9      4.679     13.174
REMARK  Name = 5326866
REMARK  5 active torsions:
REMARK  status: ('A' for Active; 'I' for Inactive)
REMARK    1  A    between atoms: N_5  and  C_14
REMARK    2  A    between atoms: C_6  and  C_28
REMARK    3  A    between atoms: C_15  and  C_20
REMARK    4  A    between atoms: C_20  and  O_21
REMARK    5  A    between atoms: O_21  and  C_23
REMARK                            x       y       z     vdW  Elec       q    Type
REMARK                         _______ _______ _______ _____ _____    ______ ____
ROOT
ATOM      1  O   UNL     1      31.733  -9.861 -22.557  0.00  0.00    -0.252 OA
ATOM      2  N   UNL     1      31.013  -5.854 -21.467  0.00  0.00    -0.239 N 
ATOM      3  N   UNL     1      31.295  -7.112 -21.849  0.00  0.00    -0.166 NA
ATOM      4  N   UNL     1      33.028  -8.022 -23.216  0.00  0.00    -0.252 N 
ATOM      5  N   UNL     1      33.607 -10.140 -23.927  0.00  0.00    -0.268 N 
ATOM      6  C   UNL     1      31.890  -4.998 -21.971  0.00  0.00    +0.045 C 
ATOM      7  C   UNL     1      32.797  -5.620 -22.707  0.00  0.00    +0.048 C 
ATOM      8  C   UNL     1      32.384  -6.964 -22.606  0.00  0.00    +0.154 C 
ATOM      9  C   UNL     1      32.688  -9.395 -23.169  0.00  0.00    +0.309 C 
ATOM     10  H   UNL     1      30.256  -5.603 -20.890  0.00  0.00    +0.174 HD
ATOM     11  H   UNL     1      33.824  -7.793 -23.749  0.00  0.00    +0.158 HD
ATOM     12  H   UNL     1      34.324  -9.625 -24.363  0.00  0.00    +0.156 HD
ENDROOT
BRANCH   5  14
ATOM     13 CL   UNL     1      33.694 -15.976 -24.864  0.00  0.00    -0.082 Cl
ATOM     14  C   UNL     1      33.629 -11.538 -24.142  0.00  0.00    +0.051 C 
ATOM     15  C   UNL     1      33.905 -13.763 -23.288  0.00  0.00    +0.033 C 
ATOM     16  C   UNL     1      33.882 -12.384 -23.075  0.00  0.00    +0.015 C 
ATOM     17  C   UNL     1      33.400 -12.031 -25.416  0.00  0.00    +0.016 C 
ATOM     18  C   UNL     1      33.675 -14.276 -24.564  0.00  0.00    +0.057 C 
ATOM     19  C   UNL     1      33.422 -13.409 -25.628  0.00  0.00    +0.012 C 
BRANCH  15  20
ATOM     20  C   UNL     1      34.179 -14.656 -22.121  0.00  0.00    +0.233 C 
BRANCH  20  21
ATOM     21  O   UNL     1      35.383 -15.374 -22.352  0.00  0.00    -0.469 OA
BRANCH  21  23
ATOM     22  N   UNL     1      35.467 -18.347 -20.245  0.00  0.00    -0.239 NA
ATOM     23  C   UNL     1      35.392 -16.697 -21.993  0.00  0.00    +0.158 C 
ATOM     24  C   UNL     1      35.343 -17.686 -22.958  0.00  0.00    +0.040 C 
ATOM     25  C   UNL     1      35.453 -17.062 -20.666  0.00  0.00    +0.136 C 
ATOM     26  C   UNL     1      35.356 -19.019 -22.565  0.00  0.00    +0.024 C 
ATOM     27  C   UNL     1      35.417 -19.295 -21.208  0.00  0.00    +0.099 C 
ENDBRANCH  21  23
ENDBRANCH  20  21
ENDBRANCH  15  20
ENDBRANCH   5  14
BRANCH   6  28
ATOM     28  C   UNL     1      31.746  -3.490 -21.654  0.00  0.00    +0.033 C 
ATOM     29  C   UNL     1      32.137  -2.654 -22.892  0.00  0.00    +0.006 C 
ATOM     30  C   UNL     1      32.663  -3.112 -20.470  0.00  0.00    +0.006 C 
ATOM     31  C   UNL     1      30.309  -3.081 -21.264  0.00  0.00    +0.006 C 
ENDBRANCH   6  28
TORSDOF 5
ENDMDL
MODEL 6
REMARK VINA RESULT:      -9.9      4.606     10.521
REMARK  Name = 5326866
REMARK  5 active torsions:
REMARK  status: ('A' for Active; 'I' for Inactive)
REMARK    1  A    between atoms: N_5  and  C_14
REMARK    2  A    between atoms: C_6  and  C_28
REMARK    3  A    between atoms: C_15  and  C_20
REMARK    4  A    between atoms: C_20  and  O_21
REMARK    5  A    between atoms: O_21  and  C_23
REMARK                            x       y       z     vdW  Elec       q    Type
REMARK                         _______ _______ _______ _____ _____    ______ ____
ROOT
ATOM      1  O   UNL     1      33.941 -22.349 -17.349  0.00  0.00    -0.252 OA
ATOM      2  N   UNL     1      35.688 -20.248 -20.557  0.00  0.00    -0.239 N 
ATOM      3  N   UNL     1      35.073 -20.898 -19.554  0.00  0.00    -0.166 NA
ATOM      4  N   UNL     1      32.773 -21.087 -18.941  0.00  0.00    -0.252 N 
ATOM      5  N   UNL     1      31.612 -22.165 -17.263  0.00  0.00    -0.268 N 
ATOM      6  C   UNL     1      34.812 -19.609 -21.318  0.00  0.00    +0.045 C 
ATOM      7  C   UNL     1      33.577 -19.790 -20.878  0.00  0.00    +0.048 C 
ATOM      8  C   UNL     1      33.783 -20.614 -19.754  0.00  0.00    +0.154 C 
ATOM      9  C   UNL     1      32.886 -21.916 -17.799  0.00  0.00    +0.309 C 
ATOM     10  H   UNL     1      36.662 -20.248 -20.706  0.00  0.00    +0.174 HD
ATOM     11  H   UNL     1      31.859 -20.815 -19.187  0.00  0.00    +0.158 HD
ATOM     12  H   UNL     1      30.856 -21.747 -17.735  0.00  0.00    +0.156 HD
ENDROOT
BRANCH   5  14
ATOM     13 CL   UNL     1      30.192 -25.416 -12.535  0.00  0.00    -0.082 Cl
ATOM     14  C   UNL     1      31.281 -22.942 -16.128  0.00  0.00    +0.051 C 
ATOM     15  C   UNL     1      31.937 -24.004 -14.079  0.00  0.00    +0.033 C 
ATOM     16  C   UNL     1      32.264 -23.237 -15.198  0.00  0.00    +0.015 C 
ATOM     17  C   UNL     1      29.981 -23.393 -15.971  0.00  0.00    +0.016 C 
ATOM     18  C   UNL     1      30.632 -24.466 -13.907  0.00  0.00    +0.057 C 
ATOM     19  C   UNL     1      29.655 -24.160 -14.853  0.00  0.00    +0.012 C 
BRANCH  15  20
ATOM     20  C   UNL     1      33.015 -24.309 -13.089  0.00  0.00    +0.233 C 
BRANCH  20  21
ATOM     21  O   UNL     1      34.272 -24.318 -13.751  0.00  0.00    -0.469 OA
BRANCH  21  23
ATOM     22  N   UNL     1      37.574 -22.960 -13.020  0.00  0.00    -0.239 NA
ATOM     23  C   UNL     1      35.353 -23.882 -13.031  0.00  0.00    +0.158 C 
ATOM     24  C   UNL     1      35.335 -23.918 -11.648  0.00  0.00    +0.040 C 
ATOM     25  C   UNL     1      36.475 -23.403 -13.671  0.00  0.00    +0.136 C 
ATOM     26  C   UNL     1      36.446 -23.471 -10.943  0.00  0.00    +0.024 C 
ATOM     27  C   UNL     1      37.531 -23.005 -11.670  0.00  0.00    +0.099 C 
ENDBRANCH  21  23
ENDBRANCH  20  21
ENDBRANCH  15  20
ENDBRANCH   5  14
BRANCH   6  28
ATOM     28  C   UNL     1      35.314 -18.793 -22.533  0.00  0.00    +0.033 C 
ATOM     29  C   UNL     1      35.051 -19.577 -23.837  0.00  0.00    +0.006 C 
ATOM     30  C   UNL     1      36.828 -18.523 -22.395  0.00  0.00    +0.006 C 
ATOM     31  C   UNL     1      34.619 -17.422 -22.678  0.00  0.00    +0.006 C 
ENDBRANCH   6  28
TORSDOF 5
ENDMDL
MODEL 7
REMARK VINA RESULT:      -9.7      3.389     10.537
REMARK  Name = 5326866
REMARK  5 active torsions:
REMARK  status: ('A' for Active; 'I' for Inactive)
REMARK    1  A    between atoms: N_5  and  C_14
REMARK    2  A    between atoms: C_6  and  C_28
REMARK    3  A    between atoms: C_15  and  C_20
REMARK    4  A    between atoms: C_20  and  O_21
REMARK    5  A    between atoms: O_21  and  C_23
REMARK                            x       y       z     vdW  Elec       q    Type
REMARK                         _______ _______ _______ _____ _____    ______ ____
ROOT
ATOM      1  O   UNL     1      35.239 -16.560 -20.700  0.00  0.00    -0.252 OA
ATOM      2  N   UNL     1      34.215 -13.400 -23.295  0.00  0.00    -0.239 N 
ATOM      3  N   UNL     1      34.532 -14.450 -22.516  0.00  0.00    -0.166 NA
ATOM      4  N   UNL     1      34.643 -16.794 -22.955  0.00  0.00    -0.252 N 
ATOM      5  N   UNL     1      35.173 -18.666 -21.713  0.00  0.00    -0.268 N 
ATOM      6  C   UNL     1      33.915 -13.794 -24.524  0.00  0.00    +0.045 C 
ATOM      7  C   UNL     1      34.012 -15.109 -24.641  0.00  0.00    +0.048 C 
ATOM      8  C   UNL     1      34.406 -15.491 -23.343  0.00  0.00    +0.154 C 
ATOM      9  C   UNL     1      35.041 -17.268 -21.682  0.00  0.00    +0.309 C 
ATOM     10  H   UNL     1      34.207 -12.464 -22.991  0.00  0.00    +0.174 HD
ATOM     11  H   UNL     1      34.521 -17.480 -23.651  0.00  0.00    +0.158 HD
ATOM     12  H   UNL     1      34.980 -19.098 -22.576  0.00  0.00    +0.156 HD
ENDROOT
BRANCH   5  14
ATOM     13 CL   UNL     1      36.782 -22.250 -17.296  0.00  0.00    -0.082 Cl
ATOM     14  C   UNL     1      35.550 -19.529 -20.658  0.00  0.00    +0.051 C 
ATOM     15  C   UNL     1      35.068 -21.403 -19.238  0.00  0.00    +0.033 C 
ATOM     16  C   UNL     1      34.696 -20.552 -20.280  0.00  0.00    +0.015 C 
ATOM     17  C   UNL     1      36.764 -19.331 -20.021  0.00  0.00    +0.016 C 
ATOM     18  C   UNL     1      36.288 -21.217 -18.588  0.00  0.00    +0.057 C 
ATOM     19  C   UNL     1      37.136 -20.181 -18.980  0.00  0.00    +0.012 C 
BRANCH  15  20
ATOM     20  C   UNL     1      34.131 -22.500 -18.850  0.00  0.00    +0.233 C 
BRANCH  20  21
ATOM     21  O   UNL     1      33.051 -21.953 -18.105  0.00  0.00    -0.469 OA
BRANCH  21  23
ATOM     22  N   UNL     1      33.460 -23.782 -14.979  0.00  0.00    -0.239 NA
ATOM     23  C   UNL     1      32.729 -22.582 -16.931  0.00  0.00    +0.158 C 
ATOM     24  C   UNL     1      31.411 -22.663 -16.518  0.00  0.00    +0.040 C 
ATOM     25  C   UNL     1      33.710 -23.146 -16.146  0.00  0.00    +0.136 C 
ATOM     26  C   UNL     1      31.113 -23.309 -15.323  0.00  0.00    +0.024 C 
ATOM     27  C   UNL     1      32.164 -23.847 -14.597  0.00  0.00    +0.099 C 
ENDBRANCH  21  23
ENDBRANCH  20  21
ENDBRANCH  15  20
ENDBRANCH   5  14
BRANCH   6  28
ATOM     28  C   UNL     1      33.517 -12.738 -25.584  0.00  0.00    +0.033 C 
ATOM     29  C   UNL     1      34.424 -12.874 -26.825  0.00  0.00    +0.006 C 
ATOM     30  C   UNL     1      33.666 -11.319 -24.992  0.00  0.00    +0.006 C 
ATOM     31  C   UNL     1      32.058 -12.878 -26.068  0.00  0.00    +0.006 C 
ENDBRANCH   6  28
TORSDOF 5
ENDMDL
MODEL 8
REMARK VINA RESULT:      -9.5      6.731     13.998
REMARK  Name = 5326866
REMARK  5 active torsions:
REMARK  status: ('A' for Active; 'I' for Inactive)
REMARK    1  A    between atoms: N_5  and  C_14
REMARK    2  A    between atoms: C_6  and  C_28
REMARK    3  A    between atoms: C_15  and  C_20
REMARK    4  A    between atoms: C_20  and  O_21
REMARK    5  A    between atoms: O_21  and  C_23
REMARK                            x       y       z     vdW  Elec       q    Type
REMARK                         _______ _______ _______ _____ _____    ______ ____
ROOT
ATOM      1  O   UNL     1      32.804  -8.243 -20.607  0.00  0.00    -0.252 OA
ATOM      2  N   UNL     1      32.054  -4.186 -21.469  0.00  0.00    -0.239 N 
ATOM      3  N   UNL     1      32.260  -5.496 -21.248  0.00  0.00    -0.166 NA
ATOM      4  N   UNL     1      31.602  -7.448 -22.455  0.00  0.00    -0.252 N 
ATOM      5  N   UNL     1      31.899  -9.720 -22.177  0.00  0.00    -0.268 N 
ATOM      6  C   UNL     1      31.349  -3.997 -22.575  0.00  0.00    +0.045 C 
ATOM      7  C   UNL     1      31.046  -5.149 -23.151  0.00  0.00    +0.048 C 
ATOM      8  C   UNL     1      31.642  -6.079 -22.278  0.00  0.00    +0.154 C 
ATOM      9  C   UNL     1      32.170  -8.452 -21.635  0.00  0.00    +0.309 C 
ATOM     10  H   UNL     1      32.383  -3.464 -20.886  0.00  0.00    +0.174 HD
ATOM     11  H   UNL     1      31.119  -7.765 -23.253  0.00  0.00    +0.158 HD
ATOM     12  H   UNL     1      31.377  -9.730 -23.011  0.00  0.00    +0.156 HD
ENDROOT
BRANCH   5  14
ATOM     13 CL   UNL     1      33.476 -14.998 -20.034  0.00  0.00    -0.082 Cl
ATOM     14  C   UNL     1      32.283 -10.983 -21.671  0.00  0.00    +0.051 C 
ATOM     15  C   UNL     1      33.630 -12.962 -21.839  0.00  0.00    +0.033 C 
ATOM     16  C   UNL     1      33.252 -11.715 -22.338  0.00  0.00    +0.015 C 
ATOM     17  C   UNL     1      31.680 -11.465 -20.520  0.00  0.00    +0.016 C 
ATOM     18  C   UNL     1      33.033 -13.460 -20.681  0.00  0.00    +0.057 C 
ATOM     19  C   UNL     1      32.058 -12.711 -20.022  0.00  0.00    +0.012 C 
BRANCH  15  20
ATOM     20  C   UNL     1      34.678 -13.733 -22.575  0.00  0.00    +0.233 C 
BRANCH  20  21
ATOM     21  O   UNL     1      34.136 -14.212 -23.798  0.00  0.00    -0.469 OA
BRANCH  21  23
ATOM     22  N   UNL     1      33.362 -17.464 -25.251  0.00  0.00    -0.239 NA
ATOM     23  C   UNL     1      34.116 -15.571 -23.973  0.00  0.00    +0.158 C 
ATOM     24  C   UNL     1      34.790 -16.402 -23.095  0.00  0.00    +0.040 C 
ATOM     25  C   UNL     1      33.423 -16.133 -25.023  0.00  0.00    +0.136 C 
ATOM     26  C   UNL     1      34.750 -17.777 -23.296  0.00  0.00    +0.024 C 
ATOM     27  C   UNL     1      34.029 -18.253 -24.379  0.00  0.00    +0.099 C 
ENDBRANCH  21  23
ENDBRANCH  20  21
ENDBRANCH  15  20
ENDBRANCH   5  14
BRANCH   6  28
ATOM     28  C   UNL     1      30.997  -2.554 -23.013  0.00  0.00    +0.033 C 
ATOM     29  C   UNL     1      32.286  -1.786 -23.373  0.00  0.00    +0.006 C 
ATOM     30  C   UNL     1      30.266  -1.821 -21.867  0.00  0.00    +0.006 C 
ATOM     31  C   UNL     1      30.073  -2.499 -24.250  0.00  0.00    +0.006 C 
ENDBRANCH   6  28
TORSDOF 5
ENDMDL
MODEL 9
REMARK VINA RESULT:      -9.2      5.017      8.546
REMARK  Name = 5326866
REMARK  5 active torsions:
REMARK  status: ('A' for Active; 'I' for Inactive)
REMARK    1  A    between atoms: N_5  and  C_14
REMARK    2  A    between atoms: C_6  and  C_28
REMARK    3  A    between atoms: C_15  and  C_20
REMARK    4  A    between atoms: C_20  and  O_21
REMARK    5  A    between atoms: O_21  and  C_23
REMARK                            x       y       z     vdW  Elec       q    Type
REMARK                         _______ _______ _______ _____ _____    ______ ____
ROOT
ATOM      1  O   UNL     1      34.601 -12.788 -21.252  0.00  0.00    -0.252 OA
ATOM      2  N   UNL     1      35.207 -16.843 -20.278  0.00  0.00    -0.239 N 
ATOM      3  N   UNL     1      35.007 -15.567 -20.651  0.00  0.00    -0.166 NA
ATOM      4  N   UNL     1      34.600 -14.565 -22.780  0.00  0.00    -0.252 N 
ATOM      5  N   UNL     1      34.242 -12.412 -23.532  0.00  0.00    -0.268 N 
ATOM      6  C   UNL     1      35.160 -17.656 -21.323  0.00  0.00    +0.045 C 
ATOM      7  C   UNL     1      34.930 -16.985 -22.440  0.00  0.00    +0.048 C 
ATOM      8  C   UNL     1      34.839 -15.659 -21.973  0.00  0.00    +0.154 C 
ATOM      9  C   UNL     1      34.492 -13.206 -22.400  0.00  0.00    +0.309 C 
ATOM     10  H   UNL     1      35.366 -17.134 -19.351  0.00  0.00    +0.174 HD
ATOM     11  H   UNL     1      34.490 -14.754 -23.740  0.00  0.00    +0.158 HD
ATOM     12  H   UNL     1      34.180 -12.892 -24.389  0.00  0.00    +0.156 HD
ENDROOT
BRANCH   5  14
ATOM     13 CL   UNL     1      33.551  -6.548 -23.807  0.00  0.00    -0.082 Cl
ATOM     14  C   UNL     1      34.069 -11.010 -23.591  0.00  0.00    +0.051 C 
ATOM     15  C   UNL     1      32.808  -9.049 -23.021  0.00  0.00    +0.033 C 
ATOM     16  C   UNL     1      32.979 -10.433 -22.960  0.00  0.00    +0.015 C 
ATOM     17  C   UNL     1      34.992 -10.242 -24.283  0.00  0.00    +0.016 C 
ATOM     18  C   UNL     1      33.729  -8.263 -23.712  0.00  0.00    +0.057 C 
ATOM     19  C   UNL     1      34.821  -8.860 -24.343  0.00  0.00    +0.012 C 
BRANCH  15  20
ATOM     20  C   UNL     1      31.625  -8.450 -22.332  0.00  0.00    +0.233 C 
BRANCH  20  21
ATOM     21  O   UNL     1      32.072  -7.620 -21.268  0.00  0.00    -0.469 OA
BRANCH  21  23
ATOM     22  N   UNL     1      30.112  -4.624 -21.950  0.00  0.00    -0.239 NA
ATOM     23  C   UNL     1      31.727  -6.296 -21.331  0.00  0.00    +0.158 C 
ATOM     24  C   UNL     1      32.595  -5.322 -20.870  0.00  0.00    +0.040 C 
ATOM     25  C   UNL     1      30.513  -5.912 -21.857  0.00  0.00    +0.136 C 
ATOM     26  C   UNL     1      32.219  -3.986 -20.949  0.00  0.00    +0.024 C 
ATOM     27  C   UNL     1      30.978  -3.692 -21.492  0.00  0.00    +0.099 C 
ENDBRANCH  21  23
ENDBRANCH  20  21
ENDBRANCH  15  20
ENDBRANCH   5  14
BRANCH   6  28
ATOM     28  C   UNL     1      35.368 -19.175 -21.113  0.00  0.00    +0.033 C 
ATOM     29  C   UNL     1      36.723 -19.428 -20.419  0.00  0.00    +0.006 C 
ATOM     30  C   UNL     1      35.346 -19.902 -22.476  0.00  0.00    +0.006 C 
ATOM     31  C   UNL     1      34.278 -19.826 -20.234  0.00  0.00    +0.006 C 
ENDBRANCH   6  28
TORSDOF 5
ENDMDL
