MODEL 1
REMARK VINA RESULT:     -12.1      0.000      0.000
REMARK  Name = 10267580
REMARK  2 active torsions:
REMARK  status: ('A' for Active; 'I' for Inactive)
REMARK    1  A    between atoms: N_1  and  C_21
REMARK    2  A    between atoms: C_7  and  C_14
REMARK                            x       y       z     vdW  Elec       q    Type
REMARK                         _______ _______ _______ _____ _____    ______ ____
ROOT
ATOM      1  N   UNL     1      32.578 -22.190 -18.141  0.00  0.00    -0.290 N 
ATOM      2  N   UNL     1      34.111 -23.077 -16.592  0.00  0.00    -0.327 NA
ATOM      3  N   UNL     1      33.358 -23.936 -14.471  0.00  0.00    -0.342 NA
ATOM      4  C   UNL     1      31.763 -23.041 -16.022  0.00  0.00    +0.143 C 
ATOM      5  C   UNL     1      32.828 -22.787 -16.881  0.00  0.00    +0.184 C 
ATOM      6  C   UNL     1      32.087 -23.635 -14.791  0.00  0.00    +0.133 C 
ATOM      7  C   UNL     1      34.300 -23.641 -15.388  0.00  0.00    +0.165 C 
ATOM      8  C   UNL     1      30.430 -22.729 -16.346  0.00  0.00    -0.011 C 
ATOM      9  C   UNL     1      31.046 -23.904 -13.906  0.00  0.00    +0.029 C 
ATOM     10  C   UNL     1      29.411 -23.009 -15.441  0.00  0.00    -0.004 C 
ATOM     11  C   UNL     1      29.720 -23.597 -14.220  0.00  0.00    +0.002 C 
ATOM     12  H   UNL     1      31.666 -22.299 -18.496  0.00  0.00    +0.154 HD
ENDROOT
BRANCH   7  14
ATOM     13  N   UNL     1      35.862 -25.252 -14.664  0.00  0.00    -0.398 NA
ATOM     14  C   UNL     1      35.658 -23.967 -15.038  0.00  0.00    +0.197 C 
ATOM     15  C   UNL     1      36.662 -23.010 -15.091  0.00  0.00    +0.098 C 
ATOM     16  C   UNL     1      37.128 -25.589 -14.328  0.00  0.00    +0.110 C 
ATOM     17  C   UNL     1      37.952 -23.395 -14.738  0.00  0.00    -0.016 C 
ATOM     18  C   UNL     1      38.197 -24.707 -14.349  0.00  0.00    +0.023 C 
ATOM     19  C   UNL     1      37.355 -27.005 -13.916  0.00  0.00    +0.066 C 
ENDBRANCH   7  14
BRANCH   1  21
ATOM     20  N   UNL     1      35.236 -20.004 -20.556  0.00  0.00    -0.242 NA
ATOM     21  C   UNL     1      33.452 -21.471 -18.935  0.00  0.00    +0.053 C 
ATOM     22  C   UNL     1      32.984 -20.491 -19.825  0.00  0.00    +0.035 C 
ATOM     23  C   UNL     1      34.837 -21.697 -18.878  0.00  0.00    +0.035 C 
ATOM     24  C   UNL     1      33.900 -19.798 -20.599  0.00  0.00    +0.100 C 
ATOM     25  C   UNL     1      35.671 -20.950 -19.695  0.00  0.00    +0.100 C 
ENDBRANCH   1  21
TORSDOF 2
ENDMDL
MODEL 2
REMARK VINA RESULT:     -11.9      1.564      6.761
REMARK  Name = 10267580
REMARK  2 active torsions:
REMARK  status: ('A' for Active; 'I' for Inactive)
REMARK    1  A    between atoms: N_1  and  C_21
REMARK    2  A    between atoms: C_7  and  C_14
REMARK                            x       y       z     vdW  Elec       q    Type
REMARK                         _______ _______ _______ _____ _____    ______ ____
ROOT
ATOM      1  N   UNL     1      35.764 -23.232 -16.208  0.00  0.00    -0.290 N 
ATOM      2  N   UNL     1      33.412 -23.221 -16.150  0.00  0.00    -0.327 NA
ATOM      3  N   UNL     1      32.147 -22.033 -17.821  0.00  0.00    -0.342 NA
ATOM      4  C   UNL     1      34.543 -22.020 -17.916  0.00  0.00    +0.143 C 
ATOM      5  C   UNL     1      34.534 -22.813 -16.772  0.00  0.00    +0.184 C 
ATOM      6  C   UNL     1      33.287 -21.643 -18.419  0.00  0.00    +0.133 C 
ATOM      7  C   UNL     1      32.272 -22.801 -16.720  0.00  0.00    +0.165 C 
ATOM      8  C   UNL     1      35.729 -21.605 -18.548  0.00  0.00    -0.011 C 
ATOM      9  C   UNL     1      33.256 -20.848 -19.561  0.00  0.00    +0.029 C 
ATOM     10  C   UNL     1      35.668 -20.810 -19.689  0.00  0.00    -0.004 C 
ATOM     11  C   UNL     1      34.430 -20.432 -20.195  0.00  0.00    +0.002 C 
ATOM     12  H   UNL     1      36.537 -23.246 -16.819  0.00  0.00    +0.154 HD
ENDROOT
BRANCH   7  14
ATOM     13  N   UNL     1      29.924 -22.639 -16.577  0.00  0.00    -0.398 NA
ATOM     14  C   UNL     1      31.047 -23.214 -16.086  0.00  0.00    +0.197 C 
ATOM     15  C   UNL     1      31.052 -24.138 -15.050  0.00  0.00    +0.098 C 
ATOM     16  C   UNL     1      28.757 -23.007 -16.001  0.00  0.00    +0.110 C 
ATOM     17  C   UNL     1      29.831 -24.490 -14.483  0.00  0.00    -0.016 C 
ATOM     18  C   UNL     1      28.658 -23.919 -14.962  0.00  0.00    +0.023 C 
ATOM     19  C   UNL     1      27.518 -22.375 -16.540  0.00  0.00    +0.066 C 
ENDBRANCH   7  14
BRANCH   1  21
ATOM     20  N   UNL     1      36.535 -24.423 -12.249  0.00  0.00    -0.242 NA
ATOM     21  C   UNL     1      36.018 -23.623 -14.906  0.00  0.00    +0.053 C 
ATOM     22  C   UNL     1      36.028 -24.981 -14.546  0.00  0.00    +0.035 C 
ATOM     23  C   UNL     1      36.274 -22.677 -13.901  0.00  0.00    +0.035 C 
ATOM     24  C   UNL     1      36.287 -25.321 -13.229  0.00  0.00    +0.100 C 
ATOM     25  C   UNL     1      36.522 -23.121 -12.612  0.00  0.00    +0.100 C 
ENDBRANCH   1  21
TORSDOF 2
ENDMDL
MODEL 3
REMARK VINA RESULT:     -11.4      1.170      1.488
REMARK  Name = 10267580
REMARK  2 active torsions:
REMARK  status: ('A' for Active; 'I' for Inactive)
REMARK    1  A    between atoms: N_1  and  C_21
REMARK    2  A    between atoms: C_7  and  C_14
REMARK                            x       y       z     vdW  Elec       q    Type
REMARK                         _______ _______ _______ _____ _____    ______ ____
ROOT
ATOM      1  N   UNL     1      32.647 -22.519 -17.765  0.00  0.00    -0.290 N 
ATOM      2  N   UNL     1      34.017 -23.256 -15.999  0.00  0.00    -0.327 NA
ATOM      3  N   UNL     1      33.052 -23.973 -13.911  0.00  0.00    -0.342 NA
ATOM      4  C   UNL     1      31.621 -23.229 -15.686  0.00  0.00    +0.143 C 
ATOM      5  C   UNL     1      32.769 -23.016 -16.443  0.00  0.00    +0.184 C 
ATOM      6  C   UNL     1      31.819 -23.723 -14.386  0.00  0.00    +0.133 C 
ATOM      7  C   UNL     1      34.083 -23.726 -14.743  0.00  0.00    +0.165 C 
ATOM      8  C   UNL     1      30.327 -22.970 -16.172  0.00  0.00    -0.011 C 
ATOM      9  C   UNL     1      30.693 -23.947 -13.598  0.00  0.00    +0.029 C 
ATOM     10  C   UNL     1      29.220 -23.204 -15.361  0.00  0.00    -0.004 C 
ATOM     11  C   UNL     1      29.404 -23.693 -14.073  0.00  0.00    +0.002 C 
ATOM     12  H   UNL     1      31.780 -22.673 -18.205  0.00  0.00    +0.154 HD
ENDROOT
BRANCH   7  14
ATOM     13  N   UNL     1      35.745 -23.282 -13.130  0.00  0.00    -0.398 NA
ATOM     14  C   UNL     1      35.400 -23.996 -14.227  0.00  0.00    +0.197 C 
ATOM     15  C   UNL     1      36.232 -24.928 -14.835  0.00  0.00    +0.098 C 
ATOM     16  C   UNL     1      36.978 -23.513 -12.623  0.00  0.00    +0.110 C 
ATOM     17  C   UNL     1      37.491 -25.137 -14.284  0.00  0.00    -0.016 C 
ATOM     18  C   UNL     1      37.878 -24.420 -13.157  0.00  0.00    +0.023 C 
ATOM     19  C   UNL     1      37.360 -22.727 -11.414  0.00  0.00    +0.066 C 
ENDBRANCH   7  14
BRANCH   1  21
ATOM     20  N   UNL     1      35.520 -20.461 -20.043  0.00  0.00    -0.242 NA
ATOM     21  C   UNL     1      33.592 -21.843 -18.513  0.00  0.00    +0.053 C 
ATOM     22  C   UNL     1      33.215 -20.840 -19.421  0.00  0.00    +0.035 C 
ATOM     23  C   UNL     1      34.960 -22.135 -18.392  0.00  0.00    +0.035 C 
ATOM     24  C   UNL     1      34.199 -20.191 -20.149  0.00  0.00    +0.100 C 
ATOM     25  C   UNL     1      35.867 -21.429 -19.166  0.00  0.00    +0.100 C 
ENDBRANCH   1  21
TORSDOF 2
ENDMDL
MODEL 4
REMARK VINA RESULT:     -11.1      2.137      6.153
REMARK  Name = 10267580
REMARK  2 active torsions:
REMARK  status: ('A' for Active; 'I' for Inactive)
REMARK    1  A    between atoms: N_1  and  C_21
REMARK    2  A    between atoms: C_7  and  C_14
REMARK                            x       y       z     vdW  Elec       q    Type
REMARK                         _______ _______ _______ _____ _____    ______ ____
ROOT
ATOM      1  N   UNL     1      32.973 -24.526 -13.215  0.00  0.00    -0.290 N 
ATOM      2  N   UNL     1      34.260 -23.462 -14.872  0.00  0.00    -0.327 NA
ATOM      3  N   UNL     1      36.553 -22.855 -14.448  0.00  0.00    -0.342 NA
ATOM      4  C   UNL     1      35.275 -23.938 -12.731  0.00  0.00    +0.143 C 
ATOM      5  C   UNL     1      34.206 -23.957 -13.621  0.00  0.00    +0.184 C 
ATOM      6  C   UNL     1      36.465 -23.360 -13.204  0.00  0.00    +0.133 C 
ATOM      7  C   UNL     1      35.447 -22.934 -15.214  0.00  0.00    +0.165 C 
ATOM      8  C   UNL     1      35.194 -24.462 -11.429  0.00  0.00    -0.011 C 
ATOM      9  C   UNL     1      37.557 -23.322 -12.341  0.00  0.00    +0.029 C 
ATOM     10  C   UNL     1      36.302 -24.410 -10.588  0.00  0.00    -0.004 C 
ATOM     11  C   UNL     1      37.484 -23.840 -11.045  0.00  0.00    +0.002 C 
ATOM     12  H   UNL     1      33.022 -25.178 -12.478  0.00  0.00    +0.154 HD
ENDROOT
BRANCH   7  14
ATOM     13  N   UNL     1      34.409 -22.441 -17.273  0.00  0.00    -0.398 NA
ATOM     14  C   UNL     1      35.549 -22.392 -16.544  0.00  0.00    +0.197 C 
ATOM     15  C   UNL     1      36.745 -21.867 -17.015  0.00  0.00    +0.098 C 
ATOM     16  C   UNL     1      34.474 -21.940 -18.528  0.00  0.00    +0.110 C 
ATOM     17  C   UNL     1      36.771 -21.362 -18.310  0.00  0.00    -0.016 C 
ATOM     18  C   UNL     1      35.619 -21.395 -19.087  0.00  0.00    +0.023 C 
ATOM     19  C   UNL     1      33.219 -21.993 -19.332  0.00  0.00    +0.066 C 
ENDBRANCH   7  14
BRANCH   1  21
ATOM     20  N   UNL     1      29.131 -23.776 -14.750  0.00  0.00    -0.242 NA
ATOM     21  C   UNL     1      31.710 -24.278 -13.719  0.00  0.00    +0.053 C 
ATOM     22  C   UNL     1      30.795 -25.324 -13.927  0.00  0.00    +0.035 C 
ATOM     23  C   UNL     1      31.299 -22.976 -14.042  0.00  0.00    +0.035 C 
ATOM     24  C   UNL     1      29.542 -25.025 -14.435  0.00  0.00    +0.100 C 
ATOM     25  C   UNL     1      30.023 -22.781 -14.545  0.00  0.00    +0.100 C 
ENDBRANCH   1  21
TORSDOF 2
ENDMDL
MODEL 5
REMARK VINA RESULT:     -10.8      1.593      6.333
REMARK  Name = 10267580
REMARK  2 active torsions:
REMARK  status: ('A' for Active; 'I' for Inactive)
REMARK    1  A    between atoms: N_1  and  C_21
REMARK    2  A    between atoms: C_7  and  C_14
REMARK                            x       y       z     vdW  Elec       q    Type
REMARK                         _______ _______ _______ _____ _____    ______ ____
ROOT
ATOM      1  N   UNL     1      32.827 -24.503 -14.240  0.00  0.00    -0.290 N 
ATOM      2  N   UNL     1      33.712 -23.239 -16.016  0.00  0.00    -0.327 NA
ATOM      3  N   UNL     1      36.066 -22.739 -16.114  0.00  0.00    -0.342 NA
ATOM      4  C   UNL     1      35.204 -24.031 -14.287  0.00  0.00    +0.143 C 
ATOM      5  C   UNL     1      33.946 -23.905 -14.869  0.00  0.00    +0.184 C 
ATOM      6  C   UNL     1      36.266 -23.412 -14.967  0.00  0.00    +0.133 C 
ATOM      7  C   UNL     1      34.802 -22.689 -16.576  0.00  0.00    +0.165 C 
ATOM      8  C   UNL     1      35.424 -24.731 -13.088  0.00  0.00    -0.011 C 
ATOM      9  C   UNL     1      37.540 -23.516 -14.415  0.00  0.00    +0.029 C 
ATOM     10  C   UNL     1      36.708 -24.818 -12.559  0.00  0.00    -0.004 C 
ATOM     11  C   UNL     1      37.767 -24.210 -13.223  0.00  0.00    +0.002 C 
ATOM     12  H   UNL     1      33.023 -25.254 -13.633  0.00  0.00    +0.154 HD
ENDROOT
BRANCH   7  14
ATOM     13  N   UNL     1      35.700 -21.368 -18.310  0.00  0.00    -0.398 NA
ATOM     14  C   UNL     1      34.596 -21.967 -17.805  0.00  0.00    +0.197 C 
ATOM     15  C   UNL     1      33.344 -21.909 -18.402  0.00  0.00    +0.098 C 
ATOM     16  C   UNL     1      35.539 -20.680 -19.463  0.00  0.00    +0.110 C 
ATOM     17  C   UNL     1      33.219 -21.193 -19.588  0.00  0.00    -0.016 C 
ATOM     18  C   UNL     1      34.332 -20.565 -20.135  0.00  0.00    +0.023 C 
ATOM     19  C   UNL     1      36.754 -20.019 -20.022  0.00  0.00    +0.066 C 
ENDBRANCH   7  14
BRANCH   1  21
ATOM     20  N   UNL     1      28.769 -23.473 -14.630  0.00  0.00    -0.242 NA
ATOM     21  C   UNL     1      31.492 -24.165 -14.368  0.00  0.00    +0.053 C 
ATOM     22  C   UNL     1      31.076 -22.825 -14.307  0.00  0.00    +0.035 C 
ATOM     23  C   UNL     1      30.510 -25.148 -14.563  0.00  0.00    +0.035 C 
ATOM     24  C   UNL     1      29.727 -22.537 -14.441  0.00  0.00    +0.100 C 
ATOM     25  C   UNL     1      29.186 -24.757 -14.686  0.00  0.00    +0.100 C 
ENDBRANCH   1  21
TORSDOF 2
ENDMDL
MODEL 6
REMARK VINA RESULT:     -10.3      1.409      5.432
REMARK  Name = 10267580
REMARK  2 active torsions:
REMARK  status: ('A' for Active; 'I' for Inactive)
REMARK    1  A    between atoms: N_1  and  C_21
REMARK    2  A    between atoms: C_7  and  C_14
REMARK                            x       y       z     vdW  Elec       q    Type
REMARK                         _______ _______ _______ _____ _____    ______ ____
ROOT
ATOM      1  N   UNL     1      36.373 -22.394 -16.379  0.00  0.00    -0.290 N 
ATOM      2  N   UNL     1      34.477 -23.249 -15.280  0.00  0.00    -0.327 NA
ATOM      3  N   UNL     1      34.711 -24.823 -13.471  0.00  0.00    -0.342 NA
ATOM      4  C   UNL     1      36.669 -23.975 -14.565  0.00  0.00    +0.143 C 
ATOM      5  C   UNL     1      35.820 -23.231 -15.379  0.00  0.00    +0.184 C 
ATOM      6  C   UNL     1      36.049 -24.781 -13.596  0.00  0.00    +0.133 C 
ATOM      7  C   UNL     1      33.998 -24.056 -14.318  0.00  0.00    +0.165 C 
ATOM      8  C   UNL     1      38.069 -23.940 -14.688  0.00  0.00    -0.011 C 
ATOM      9  C   UNL     1      36.867 -25.541 -12.763  0.00  0.00    +0.029 C 
ATOM     10  C   UNL     1      38.862 -24.710 -13.842  0.00  0.00    -0.004 C 
ATOM     11  C   UNL     1      38.259 -25.511 -12.879  0.00  0.00    +0.002 C 
ATOM     12  H   UNL     1      37.305 -22.108 -16.235  0.00  0.00    +0.154 HD
ENDROOT
BRANCH   7  14
ATOM     13  N   UNL     1      31.872 -23.430 -15.124  0.00  0.00    -0.398 NA
ATOM     14  C   UNL     1      32.566 -24.106 -14.178  0.00  0.00    +0.197 C 
ATOM     15  C   UNL     1      31.971 -24.805 -13.136  0.00  0.00    +0.098 C 
ATOM     16  C   UNL     1      30.524 -23.457 -15.018  0.00  0.00    +0.110 C 
ATOM     17  C   UNL     1      30.582 -24.809 -13.062  0.00  0.00    -0.016 C 
ATOM     18  C   UNL     1      29.838 -24.125 -14.016  0.00  0.00    +0.023 C 
ATOM     19  C   UNL     1      29.758 -22.713 -16.060  0.00  0.00    +0.066 C 
ENDBRANCH   7  14
BRANCH   1  21
ATOM     20  N   UNL     1      34.545 -20.982 -19.893  0.00  0.00    -0.242 NA
ATOM     21  C   UNL     1      35.772 -21.930 -17.534  0.00  0.00    +0.053 C 
ATOM     22  C   UNL     1      36.491 -21.169 -18.470  0.00  0.00    +0.035 C 
ATOM     23  C   UNL     1      34.423 -22.204 -17.811  0.00  0.00    +0.035 C 
ATOM     24  C   UNL     1      35.843 -20.727 -19.612  0.00  0.00    +0.100 C 
ATOM     25  C   UNL     1      33.867 -21.716 -18.982  0.00  0.00    +0.100 C 
ENDBRANCH   1  21
TORSDOF 2
ENDMDL
