MODEL 1
REMARK VINA RESULT:     -12.0      0.000      0.000
REMARK  Name = 23586145
REMARK  7 active torsions:
REMARK  status: ('A' for Active; 'I' for Inactive)
REMARK    1  A    between atoms: C_5  and  O_24
REMARK    2  A    between atoms: C_7  and  N_10
REMARK    3  A    between atoms: N_10  and  C_12
REMARK    4  A    between atoms: C_15  and  S_18
REMARK    5  A    between atoms: S_18  and  N_21
REMARK    6  A    between atoms: O_24  and  C_25
REMARK    7  A    between atoms: C_25  and  C_26
REMARK                            x       y       z     vdW  Elec       q    Type
REMARK                         _______ _______ _______ _____ _____    ______ ____
ROOT
ATOM      1  N   UNL     1      32.314 -23.360 -14.023  0.00  0.00    -0.299 NA
ATOM      2  N   UNL     1      31.404 -22.815 -16.182  0.00  0.00    -0.106 N 
ATOM      3  N   UNL     1      30.189 -22.538 -16.725  0.00  0.00    -0.139 NA
ATOM      4  N   UNL     1      29.970 -22.936 -14.493  0.00  0.00    -0.145 NA
ATOM      5  C   UNL     1      33.458 -23.407 -14.627  0.00  0.00    +0.291 C 
ATOM      6  C   UNL     1      33.734 -23.170 -16.061  0.00  0.00    +0.105 C 
ATOM      7  C   UNL     1      32.657 -22.873 -16.810  0.00  0.00    +0.142 C 
ATOM      8  C   UNL     1      31.243 -23.056 -14.812  0.00  0.00    +0.178 C 
ATOM      9  C   UNL     1      29.380 -22.625 -15.675  0.00  0.00    +0.230 C 
ENDROOT
BRANCH   7  10
ATOM     10  N   UNL     1      32.704 -22.621 -18.151  0.00  0.00    -0.299 N 
ATOM     11  H   UNL     1      32.094 -23.155 -18.709  0.00  0.00    +0.153 HD
BRANCH  10  12
ATOM     12  C   UNL     1      33.510 -21.703 -18.835  0.00  0.00    +0.049 C 
ATOM     13  C   UNL     1      32.930 -20.695 -19.615  0.00  0.00    +0.016 C 
ATOM     14  C   UNL     1      34.905 -21.783 -18.746  0.00  0.00    +0.016 C 
ATOM     15  C   UNL     1      35.123 -19.867 -20.203  0.00  0.00    +0.122 C 
ATOM     16  C   UNL     1      33.734 -19.780 -20.296  0.00  0.00    +0.021 C 
ATOM     17  C   UNL     1      35.709 -20.868 -19.427  0.00  0.00    +0.021 C 
BRANCH  15  18
ATOM     18  S   UNL     1      36.128 -18.722 -21.055  0.00  0.00    +0.057 S 
ATOM     19  O   UNL     1      37.501 -18.885 -20.597  0.00  0.00    -0.153 OA
ATOM     20  O   UNL     1      35.826 -18.810 -22.477  0.00  0.00    -0.153 OA
BRANCH  18  21
ATOM     21  N   UNL     1      35.518 -17.243 -20.455  0.00  0.00    -0.203 NA
ATOM     22  H   UNL     1      35.329 -17.335 -19.456  0.00  0.00    +0.144 HD
ATOM     23  H   UNL     1      34.655 -17.008 -20.944  0.00  0.00    +0.144 HD
ENDBRANCH  18  21
ENDBRANCH  15  18
ENDBRANCH  10  12
ENDBRANCH   7  10
BRANCH   5  24
ATOM     24  O   UNL     1      34.560 -23.695 -13.942  0.00  0.00    -0.451 OA
BRANCH  24  25
ATOM     25  C   UNL     1      35.713 -22.968 -14.321  0.00  0.00    +0.208 C 
BRANCH  25  26
ATOM     26  C   UNL     1      36.943 -23.689 -13.771  0.00  0.00    +0.044 C 
ATOM     27  C   UNL     1      36.977 -23.609 -12.238  0.00  0.00    +0.004 C 
ATOM     28  C   UNL     1      36.971 -25.148 -14.242  0.00  0.00    +0.004 C 
ATOM     29  C   UNL     1      38.170 -24.368 -11.661  0.00  0.00    +0.000 C 
ATOM     30  C   UNL     1      38.164 -25.906 -13.661  0.00  0.00    +0.000 C 
ATOM     31  C   UNL     1      38.200 -25.816 -12.139  0.00  0.00    +0.000 C 
ENDBRANCH  25  26
ENDBRANCH  24  25
ENDBRANCH   5  24
TORSDOF 7
ENDMDL
MODEL 2
REMARK VINA RESULT:     -11.7      3.445      7.185
REMARK  Name = 23586145
REMARK  7 active torsions:
REMARK  status: ('A' for Active; 'I' for Inactive)
REMARK    1  A    between atoms: C_5  and  O_24
REMARK    2  A    between atoms: C_7  and  N_10
REMARK    3  A    between atoms: N_10  and  C_12
REMARK    4  A    between atoms: C_15  and  S_18
REMARK    5  A    between atoms: S_18  and  N_21
REMARK    6  A    between atoms: O_24  and  C_25
REMARK    7  A    between atoms: C_25  and  C_26
REMARK                            x       y       z     vdW  Elec       q    Type
REMARK                         _______ _______ _______ _____ _____    ______ ____
ROOT
ATOM      1  N   UNL     1      31.390 -23.312 -15.845  0.00  0.00    -0.299 NA
ATOM      2  N   UNL     1      32.153 -24.348 -13.813  0.00  0.00    -0.106 N 
ATOM      3  N   UNL     1      31.612 -24.954 -12.724  0.00  0.00    -0.139 NA
ATOM      4  N   UNL     1      29.960 -24.288 -14.144  0.00  0.00    -0.145 NA
ATOM      5  C   UNL     1      32.644 -23.112 -16.097  0.00  0.00    +0.291 C 
ATOM      6  C   UNL     1      33.806 -23.493 -15.265  0.00  0.00    +0.105 C 
ATOM      7  C   UNL     1      33.504 -24.118 -14.113  0.00  0.00    +0.142 C 
ATOM      8  C   UNL     1      31.120 -23.949 -14.670  0.00  0.00    +0.178 C 
ATOM      9  C   UNL     1      30.309 -24.888 -12.977  0.00  0.00    +0.230 C 
ENDROOT
BRANCH   7  10
ATOM     10  N   UNL     1      34.434 -24.549 -13.210  0.00  0.00    -0.299 N 
ATOM     11  H   UNL     1      34.101 -24.716 -12.299  0.00  0.00    +0.153 HD
BRANCH  10  12
ATOM     12  C   UNL     1      35.799 -24.782 -13.413  0.00  0.00    +0.049 C 
ATOM     13  C   UNL     1      36.224 -25.811 -14.262  0.00  0.00    +0.016 C 
ATOM     14  C   UNL     1      36.756 -23.987 -12.769  0.00  0.00    +0.016 C 
ATOM     15  C   UNL     1      38.531 -25.247 -13.818  0.00  0.00    +0.122 C 
ATOM     16  C   UNL     1      37.585 -26.042 -14.464  0.00  0.00    +0.021 C 
ATOM     17  C   UNL     1      38.117 -24.219 -12.970  0.00  0.00    +0.021 C 
BRANCH  15  18
ATOM     18  S   UNL     1      40.234 -25.537 -14.070  0.00  0.00    +0.057 S 
ATOM     19  O   UNL     1      40.957 -24.305 -13.787  0.00  0.00    -0.153 OA
ATOM     20  O   UNL     1      40.601 -26.766 -13.381  0.00  0.00    -0.153 OA
BRANCH  18  21
ATOM     21  N   UNL     1      40.269 -25.822 -15.755  0.00  0.00    -0.203 NA
ATOM     22  H   UNL     1      39.372 -26.207 -16.052  0.00  0.00    +0.144 HD
ATOM     23  H   UNL     1      41.012 -26.484 -15.972  0.00  0.00    +0.144 HD
ENDBRANCH  18  21
ENDBRANCH  15  18
ENDBRANCH  10  12
ENDBRANCH   7  10
BRANCH   5  24
ATOM     24  O   UNL     1      33.007 -22.499 -17.220  0.00  0.00    -0.451 OA
BRANCH  24  25
ATOM     25  C   UNL     1      34.315 -22.792 -17.672  0.00  0.00    +0.208 C 
BRANCH  25  26
ATOM     26  C   UNL     1      34.582 -21.985 -18.941  0.00  0.00    +0.044 C 
ATOM     27  C   UNL     1      33.398 -21.058 -19.251  0.00  0.00    +0.004 C 
ATOM     28  C   UNL     1      35.884 -21.184 -18.811  0.00  0.00    +0.004 C 
ATOM     29  C   UNL     1      33.662 -20.201 -20.488  0.00  0.00    +0.000 C 
ATOM     30  C   UNL     1      36.144 -20.327 -20.049  0.00  0.00    +0.000 C 
ATOM     31  C   UNL     1      34.962 -19.414 -20.359  0.00  0.00    +0.000 C 
ENDBRANCH  25  26
ENDBRANCH  24  25
ENDBRANCH   5  24
TORSDOF 7
ENDMDL
MODEL 3
REMARK VINA RESULT:     -11.6      5.072     10.615
REMARK  Name = 23586145
REMARK  7 active torsions:
REMARK  status: ('A' for Active; 'I' for Inactive)
REMARK    1  A    between atoms: C_5  and  O_24
REMARK    2  A    between atoms: C_7  and  N_10
REMARK    3  A    between atoms: N_10  and  C_12
REMARK    4  A    between atoms: C_15  and  S_18
REMARK    5  A    between atoms: S_18  and  N_21
REMARK    6  A    between atoms: O_24  and  C_25
REMARK    7  A    between atoms: C_25  and  C_26
REMARK                            x       y       z     vdW  Elec       q    Type
REMARK                         _______ _______ _______ _____ _____    ______ ____
ROOT
ATOM      1  N   UNL     1      34.084 -15.631 -23.893  0.00  0.00    -0.299 NA
ATOM      2  N   UNL     1      34.751 -17.851 -23.251  0.00  0.00    -0.106 N 
ATOM      3  N   UNL     1      34.574 -19.125 -23.689  0.00  0.00    -0.139 NA
ATOM      4  N   UNL     1      33.479 -17.672 -25.060  0.00  0.00    -0.145 NA
ATOM      5  C   UNL     1      34.759 -15.236 -22.862  0.00  0.00    +0.291 C 
ATOM      6  C   UNL     1      35.510 -16.071 -21.899  0.00  0.00    +0.105 C 
ATOM      7  C   UNL     1      35.475 -17.394 -22.139  0.00  0.00    +0.142 C 
ATOM      8  C   UNL     1      34.070 -16.978 -24.108  0.00  0.00    +0.178 C 
ATOM      9  C   UNL     1      33.812 -18.954 -24.764  0.00  0.00    +0.230 C 
ENDROOT
BRANCH   7  10
ATOM     10  N   UNL     1      36.104 -18.328 -21.368  0.00  0.00    -0.299 N 
ATOM     11  H   UNL     1      37.086 -18.267 -21.335  0.00  0.00    +0.153 HD
BRANCH  10  12
ATOM     12  C   UNL     1      35.533 -19.364 -20.619  0.00  0.00    +0.049 C 
ATOM     13  C   UNL     1      34.143 -19.534 -20.588  0.00  0.00    +0.016 C 
ATOM     14  C   UNL     1      36.345 -20.243 -19.891  0.00  0.00    +0.016 C 
ATOM     15  C   UNL     1      34.391 -21.436 -19.120  0.00  0.00    +0.122 C 
ATOM     16  C   UNL     1      33.575 -20.566 -19.842  0.00  0.00    +0.021 C 
ATOM     17  C   UNL     1      35.777 -21.275 -19.144  0.00  0.00    +0.021 C 
BRANCH  15  18
ATOM     18  S   UNL     1      33.679 -22.728 -18.185  0.00  0.00    +0.057 S 
ATOM     19  O   UNL     1      32.363 -22.299 -17.736  0.00  0.00    -0.153 OA
ATOM     20  O   UNL     1      33.819 -23.970 -18.932  0.00  0.00    -0.153 OA
BRANCH  18  21
ATOM     21  N   UNL     1      34.733 -22.776 -16.841  0.00  0.00    -0.203 NA
ATOM     22  H   UNL     1      34.601 -21.936 -16.277  0.00  0.00    +0.144 HD
ATOM     23  H   UNL     1      35.698 -22.818 -17.167  0.00  0.00    +0.144 HD
ENDBRANCH  18  21
ENDBRANCH  15  18
ENDBRANCH  10  12
ENDBRANCH   7  10
BRANCH   5  24
ATOM     24  O   UNL     1      34.832 -13.941 -22.571  0.00  0.00    -0.451 OA
BRANCH  24  25
ATOM     25  C   UNL     1      33.912 -13.115 -23.259  0.00  0.00    +0.208 C 
BRANCH  25  26
ATOM     26  C   UNL     1      32.814 -12.696 -22.282  0.00  0.00    +0.044 C 
ATOM     27  C   UNL     1      33.058 -13.310 -20.897  0.00  0.00    +0.004 C 
ATOM     28  C   UNL     1      32.722 -11.167 -22.194  0.00  0.00    +0.004 C 
ATOM     29  C   UNL     1      32.001 -12.863 -19.888  0.00  0.00    +0.000 C 
ATOM     30  C   UNL     1      31.666 -10.723 -21.182  0.00  0.00    +0.000 C 
ATOM     31  C   UNL     1      31.907 -11.343 -19.810  0.00  0.00    +0.000 C 
ENDBRANCH  25  26
ENDBRANCH  24  25
ENDBRANCH   5  24
TORSDOF 7
ENDMDL
MODEL 4
REMARK VINA RESULT:     -11.6      3.414      7.233
REMARK  Name = 23586145
REMARK  7 active torsions:
REMARK  status: ('A' for Active; 'I' for Inactive)
REMARK    1  A    between atoms: C_5  and  O_24
REMARK    2  A    between atoms: C_7  and  N_10
REMARK    3  A    between atoms: N_10  and  C_12
REMARK    4  A    between atoms: C_15  and  S_18
REMARK    5  A    between atoms: S_18  and  N_21
REMARK    6  A    between atoms: O_24  and  C_25
REMARK    7  A    between atoms: C_25  and  C_26
REMARK                            x       y       z     vdW  Elec       q    Type
REMARK                         _______ _______ _______ _____ _____    ______ ____
ROOT
ATOM      1  N   UNL     1      32.007 -22.432 -17.529  0.00  0.00    -0.299 NA
ATOM      2  N   UNL     1      32.282 -23.311 -15.307  0.00  0.00    -0.106 N 
ATOM      3  N   UNL     1      31.506 -23.583 -14.226  0.00  0.00    -0.139 NA
ATOM      4  N   UNL     1      30.225 -22.733 -15.907  0.00  0.00    -0.145 NA
ATOM      5  C   UNL     1      33.283 -22.606 -17.649  0.00  0.00    +0.291 C 
ATOM      6  C   UNL     1      34.222 -23.145 -16.642  0.00  0.00    +0.105 C 
ATOM      7  C   UNL     1      33.664 -23.489 -15.467  0.00  0.00    +0.142 C 
ATOM      8  C   UNL     1      31.474 -22.791 -16.326  0.00  0.00    +0.178 C 
ATOM      9  C   UNL     1      30.297 -23.219 -14.642  0.00  0.00    +0.230 C 
ENDROOT
BRANCH   7  10
ATOM     10  N   UNL     1      34.361 -24.005 -14.412  0.00  0.00    -0.299 N 
ATOM     11  H   UNL     1      33.845 -24.143 -13.584  0.00  0.00    +0.153 HD
BRANCH  10  12
ATOM     12  C   UNL     1      35.713 -24.361 -14.354  0.00  0.00    +0.049 C 
ATOM     13  C   UNL     1      36.703 -23.374 -14.274  0.00  0.00    +0.016 C 
ATOM     14  C   UNL     1      36.092 -25.709 -14.376  0.00  0.00    +0.016 C 
ATOM     15  C   UNL     1      38.419 -25.075 -14.239  0.00  0.00    +0.122 C 
ATOM     16  C   UNL     1      38.051 -23.730 -14.217  0.00  0.00    +0.021 C 
ATOM     17  C   UNL     1      37.439 -26.065 -14.318  0.00  0.00    +0.021 C 
BRANCH  15  18
ATOM     18  S   UNL     1      40.106 -25.520 -14.168  0.00  0.00    +0.057 S 
ATOM     19  O   UNL     1      40.872 -24.351 -13.759  0.00  0.00    -0.153 OA
ATOM     20  O   UNL     1      40.225 -26.761 -13.416  0.00  0.00    -0.153 OA
BRANCH  18  21
ATOM     21  N   UNL     1      40.427 -25.843 -15.815  0.00  0.00    -0.203 NA
ATOM     22  H   UNL     1      41.168 -25.224 -16.143  0.00  0.00    +0.144 HD
ATOM     23  H   UNL     1      39.582 -25.683 -16.363  0.00  0.00    +0.144 HD
ENDBRANCH  18  21
ENDBRANCH  15  18
ENDBRANCH  10  12
ENDBRANCH   7  10
BRANCH   5  24
ATOM     24  O   UNL     1      33.894 -22.285 -18.786  0.00  0.00    -0.451 OA
BRANCH  24  25
ATOM     25  C   UNL     1      35.231 -21.844 -18.649  0.00  0.00    +0.208 C 
BRANCH  25  26
ATOM     26  C   UNL     1      35.561 -20.926 -19.825  0.00  0.00    +0.044 C 
ATOM     27  C   UNL     1      34.340 -20.080 -20.210  0.00  0.00    +0.004 C 
ATOM     28  C   UNL     1      36.763 -20.032 -19.494  0.00  0.00    +0.004 C 
ATOM     29  C   UNL     1      34.660 -19.115 -21.351  0.00  0.00    +0.000 C 
ATOM     30  C   UNL     1      37.079 -19.067 -20.635  0.00  0.00    +0.000 C 
ATOM     31  C   UNL     1      35.861 -18.234 -21.021  0.00  0.00    +0.000 C 
ENDBRANCH  25  26
ENDBRANCH  24  25
ENDBRANCH   5  24
TORSDOF 7
ENDMDL
MODEL 5
REMARK VINA RESULT:     -11.1      5.674     11.018
REMARK  Name = 23586145
REMARK  7 active torsions:
REMARK  status: ('A' for Active; 'I' for Inactive)
REMARK    1  A    between atoms: C_5  and  O_24
REMARK    2  A    between atoms: C_7  and  N_10
REMARK    3  A    between atoms: N_10  and  C_12
REMARK    4  A    between atoms: C_15  and  S_18
REMARK    5  A    between atoms: S_18  and  N_21
REMARK    6  A    between atoms: O_24  and  C_25
REMARK    7  A    between atoms: C_25  and  C_26
REMARK                            x       y       z     vdW  Elec       q    Type
REMARK                         _______ _______ _______ _____ _____    ______ ____
ROOT
ATOM      1  N   UNL     1      33.882 -14.396 -22.420  0.00  0.00    -0.299 NA
ATOM      2  N   UNL     1      34.866 -16.531 -22.930  0.00  0.00    -0.106 N 
ATOM      3  N   UNL     1      35.059 -17.319 -24.020  0.00  0.00    -0.139 NA
ATOM      4  N   UNL     1      33.977 -15.409 -24.625  0.00  0.00    -0.145 NA
ATOM      5  C   UNL     1      34.235 -14.636 -21.199  0.00  0.00    +0.291 C 
ATOM      6  C   UNL     1      34.938 -15.829 -20.678  0.00  0.00    +0.105 C 
ATOM      7  C   UNL     1      35.236 -16.764 -21.597  0.00  0.00    +0.142 C 
ATOM      8  C   UNL     1      34.200 -15.365 -23.327  0.00  0.00    +0.178 C 
ATOM      9  C   UNL     1      34.511 -16.601 -24.994  0.00  0.00    +0.230 C 
ENDROOT
BRANCH   7  10
ATOM     10  N   UNL     1      35.883 -17.934 -21.317  0.00  0.00    -0.299 N 
ATOM     11  H   UNL     1      36.809 -18.000 -21.642  0.00  0.00    +0.153 HD
BRANCH  10  12
ATOM     12  C   UNL     1      35.397 -19.051 -20.629  0.00  0.00    +0.049 C 
ATOM     13  C   UNL     1      34.024 -19.328 -20.604  0.00  0.00    +0.016 C 
ATOM     14  C   UNL     1      36.278 -19.907 -19.956  0.00  0.00    +0.016 C 
ATOM     15  C   UNL     1      34.426 -21.288 -19.250  0.00  0.00    +0.122 C 
ATOM     16  C   UNL     1      33.541 -20.442 -19.918  0.00  0.00    +0.021 C 
ATOM     17  C   UNL     1      35.795 -21.021 -19.269  0.00  0.00    +0.021 C 
BRANCH  15  18
ATOM     18  S   UNL     1      33.820 -22.683 -18.391  0.00  0.00    +0.057 S 
ATOM     19  O   UNL     1      32.500 -22.362 -17.868  0.00  0.00    -0.153 OA
ATOM     20  O   UNL     1      34.000 -23.858 -19.232  0.00  0.00    -0.153 OA
BRANCH  18  21
ATOM     21  N   UNL     1      34.924 -22.766 -17.090  0.00  0.00    -0.203 NA
ATOM     22  H   UNL     1      35.724 -22.163 -17.284  0.00  0.00    +0.144 HD
ATOM     23  H   UNL     1      35.244 -23.728 -16.977  0.00  0.00    +0.144 HD
ENDBRANCH  18  21
ENDBRANCH  15  18
ENDBRANCH  10  12
ENDBRANCH   7  10
BRANCH   5  24
ATOM     24  O   UNL     1      33.967 -13.751 -20.243  0.00  0.00    -0.451 OA
BRANCH  24  25
ATOM     25  C   UNL     1      32.649 -13.239 -20.247  0.00  0.00    +0.208 C 
BRANCH  25  26
ATOM     26  C   UNL     1      32.721 -11.717 -20.365  0.00  0.00    +0.044 C 
ATOM     27  C   UNL     1      32.201 -11.255 -21.734  0.00  0.00    +0.004 C 
ATOM     28  C   UNL     1      31.938 -11.047 -19.229  0.00  0.00    +0.004 C 
ATOM     29  C   UNL     1      32.215  -9.732 -21.857  0.00  0.00    +0.000 C 
ATOM     30  C   UNL     1      31.951  -9.525 -19.356  0.00  0.00    +0.000 C 
ATOM     31  C   UNL     1      31.443  -9.070 -20.720  0.00  0.00    +0.000 C 
ENDBRANCH  25  26
ENDBRANCH  24  25
ENDBRANCH   5  24
TORSDOF 7
ENDMDL
MODEL 6
REMARK VINA RESULT:     -10.8      1.967      5.544
REMARK  Name = 23586145
REMARK  7 active torsions:
REMARK  status: ('A' for Active; 'I' for Inactive)
REMARK    1  A    between atoms: C_5  and  O_24
REMARK    2  A    between atoms: C_7  and  N_10
REMARK    3  A    between atoms: N_10  and  C_12
REMARK    4  A    between atoms: C_15  and  S_18
REMARK    5  A    between atoms: S_18  and  N_21
REMARK    6  A    between atoms: O_24  and  C_25
REMARK    7  A    between atoms: C_25  and  C_26
REMARK                            x       y       z     vdW  Elec       q    Type
REMARK                         _______ _______ _______ _____ _____    ______ ____
ROOT
ATOM      1  N   UNL     1      33.152 -23.201 -13.703  0.00  0.00    -0.299 NA
ATOM      2  N   UNL     1      34.597 -23.243 -15.625  0.00  0.00    -0.106 N 
ATOM      3  N   UNL     1      35.928 -23.323 -15.885  0.00  0.00    -0.139 NA
ATOM      4  N   UNL     1      35.573 -23.362 -13.636  0.00  0.00    -0.145 NA
ATOM      5  C   UNL     1      32.183 -23.113 -14.556  0.00  0.00    +0.291 C 
ATOM      6  C   UNL     1      32.278 -23.079 -16.032  0.00  0.00    +0.105 C 
ATOM      7  C   UNL     1      33.527 -23.147 -16.527  0.00  0.00    +0.142 C 
ATOM      8  C   UNL     1      34.405 -23.268 -14.238  0.00  0.00    +0.178 C 
ATOM      9  C   UNL     1      36.455 -23.391 -14.667  0.00  0.00    +0.230 C 
ENDROOT
BRANCH   7  10
ATOM     10  N   UNL     1      33.824 -23.131 -17.859  0.00  0.00    -0.299 N 
ATOM     11  H   UNL     1      33.639 -23.964 -18.350  0.00  0.00    +0.153 HD
BRANCH  10  12
ATOM     12  C   UNL     1      34.359 -22.083 -18.618  0.00  0.00    +0.049 C 
ATOM     13  C   UNL     1      35.743 -21.879 -18.668  0.00  0.00    +0.016 C 
ATOM     14  C   UNL     1      33.515 -21.226 -19.335  0.00  0.00    +0.016 C 
ATOM     15  C   UNL     1      35.428 -19.986 -20.135  0.00  0.00    +0.122 C 
ATOM     16  C   UNL     1      36.275 -20.835 -19.424  0.00  0.00    +0.021 C 
ATOM     17  C   UNL     1      34.047 -20.181 -20.091  0.00  0.00    +0.021 C 
BRANCH  15  18
ATOM     18  S   UNL     1      36.094 -18.678 -21.081  0.00  0.00    +0.057 S 
ATOM     19  O   UNL     1      37.532 -18.636 -20.858  0.00  0.00    -0.153 OA
ATOM     20  O   UNL     1      35.575 -18.778 -22.438  0.00  0.00    -0.153 OA
BRANCH  18  21
ATOM     21  N   UNL     1      35.377 -17.327 -20.318  0.00  0.00    -0.203 NA
ATOM     22  H   UNL     1      35.223 -17.537 -19.332  0.00  0.00    +0.144 HD
ATOM     23  H   UNL     1      34.485 -17.119 -20.765  0.00  0.00    +0.144 HD
ENDBRANCH  18  21
ENDBRANCH  15  18
ENDBRANCH  10  12
ENDBRANCH   7  10
BRANCH   5  24
ATOM     24  O   UNL     1      30.926 -23.042 -14.130  0.00  0.00    -0.451 OA
BRANCH  24  25
ATOM     25  C   UNL     1      30.182 -24.240 -14.244  0.00  0.00    +0.208 C 
BRANCH  25  26
ATOM     26  C   UNL     1      28.833 -23.914 -14.885  0.00  0.00    +0.044 C 
ATOM     27  C   UNL     1      28.459 -22.446 -14.639  0.00  0.00    +0.004 C 
ATOM     28  C   UNL     1      28.856 -24.228 -16.386  0.00  0.00    +0.004 C 
ATOM     29  C   UNL     1      27.138 -22.081 -15.314  0.00  0.00    +0.000 C 
ATOM     30  C   UNL     1      27.535 -23.860 -17.059  0.00  0.00    +0.000 C 
ATOM     31  C   UNL     1      27.162 -22.403 -16.805  0.00  0.00    +0.000 C 
ENDBRANCH  25  26
ENDBRANCH  24  25
ENDBRANCH   5  24
TORSDOF 7
ENDMDL
MODEL 7
REMARK VINA RESULT:     -10.5      3.763      7.386
REMARK  Name = 23586145
REMARK  7 active torsions:
REMARK  status: ('A' for Active; 'I' for Inactive)
REMARK    1  A    between atoms: C_5  and  O_24
REMARK    2  A    between atoms: C_7  and  N_10
REMARK    3  A    between atoms: N_10  and  C_12
REMARK    4  A    between atoms: C_15  and  S_18
REMARK    5  A    between atoms: S_18  and  N_21
REMARK    6  A    between atoms: O_24  and  C_25
REMARK    7  A    between atoms: C_25  and  C_26
REMARK                            x       y       z     vdW  Elec       q    Type
REMARK                         _______ _______ _______ _____ _____    ______ ____
ROOT
ATOM      1  N   UNL     1      33.124 -21.644 -19.093  0.00  0.00    -0.299 NA
ATOM      2  N   UNL     1      35.429 -21.334 -18.477  0.00  0.00    -0.106 N 
ATOM      3  N   UNL     1      36.522 -20.682 -18.953  0.00  0.00    -0.139 NA
ATOM      4  N   UNL     1      34.744 -20.326 -20.331  0.00  0.00    -0.145 NA
ATOM      5  C   UNL     1      33.040 -22.372 -18.026  0.00  0.00    +0.291 C 
ATOM      6  C   UNL     1      34.112 -22.680 -17.054  0.00  0.00    +0.105 C 
ATOM      7  C   UNL     1      35.308 -22.130 -17.328  0.00  0.00    +0.142 C 
ATOM      8  C   UNL     1      34.351 -21.101 -19.340  0.00  0.00    +0.178 C 
ATOM      9  C   UNL     1      36.054 -20.103 -20.053  0.00  0.00    +0.230 C 
ENDROOT
BRANCH   7  10
ATOM     10  N   UNL     1      36.420 -22.294 -16.553  0.00  0.00    -0.299 N 
ATOM     11  H   UNL     1      37.254 -21.913 -16.914  0.00  0.00    +0.153 HD
BRANCH  10  12
ATOM     12  C   UNL     1      36.529 -22.935 -15.314  0.00  0.00    +0.049 C 
ATOM     13  C   UNL     1      35.481 -22.871 -14.388  0.00  0.00    +0.016 C 
ATOM     14  C   UNL     1      37.689 -23.648 -14.985  0.00  0.00    +0.016 C 
ATOM     15  C   UNL     1      36.749 -24.218 -12.834  0.00  0.00    +0.122 C 
ATOM     16  C   UNL     1      35.590 -23.510 -13.153  0.00  0.00    +0.021 C 
ATOM     17  C   UNL     1      37.799 -24.287 -13.750  0.00  0.00    +0.021 C 
BRANCH  15  18
ATOM     18  S   UNL     1      36.886 -25.018 -11.288  0.00  0.00    +0.057 S 
ATOM     19  O   UNL     1      37.169 -26.427 -11.523  0.00  0.00    -0.153 OA
ATOM     20  O   UNL     1      37.771 -24.235 -10.439  0.00  0.00    -0.153 OA
BRANCH  18  21
ATOM     21  N   UNL     1      35.288 -24.867 -10.702  0.00  0.00    -0.203 NA
ATOM     22  H   UNL     1      34.950 -25.780 -10.397  0.00  0.00    +0.144 HD
ATOM     23  H   UNL     1      34.686 -24.511 -11.444  0.00  0.00    +0.144 HD
ENDBRANCH  18  21
ENDBRANCH  15  18
ENDBRANCH  10  12
ENDBRANCH   7  10
BRANCH   5  24
ATOM     24  O   UNL     1      31.885 -22.945 -17.701  0.00  0.00    -0.451 OA
BRANCH  24  25
ATOM     25  C   UNL     1      31.303 -22.487 -16.496  0.00  0.00    +0.208 C 
BRANCH  25  26
ATOM     26  C   UNL     1      31.311 -23.634 -15.487  0.00  0.00    +0.044 C 
ATOM     27  C   UNL     1      31.940 -23.184 -14.161  0.00  0.00    +0.004 C 
ATOM     28  C   UNL     1      29.892 -24.171 -15.264  0.00  0.00    +0.004 C 
ATOM     29  C   UNL     1      31.914 -24.299 -13.118  0.00  0.00    +0.000 C 
ATOM     30  C   UNL     1      29.868 -25.284 -14.218  0.00  0.00    +0.000 C 
ATOM     31  C   UNL     1      30.501 -24.836 -12.906  0.00  0.00    +0.000 C 
ENDBRANCH  25  26
ENDBRANCH  24  25
ENDBRANCH   5  24
TORSDOF 7
ENDMDL
MODEL 8
REMARK VINA RESULT:     -10.4      3.187      7.764
REMARK  Name = 23586145
REMARK  7 active torsions:
REMARK  status: ('A' for Active; 'I' for Inactive)
REMARK    1  A    between atoms: C_5  and  O_24
REMARK    2  A    between atoms: C_7  and  N_10
REMARK    3  A    between atoms: N_10  and  C_12
REMARK    4  A    between atoms: C_15  and  S_18
REMARK    5  A    between atoms: S_18  and  N_21
REMARK    6  A    between atoms: O_24  and  C_25
REMARK    7  A    between atoms: C_25  and  C_26
REMARK                            x       y       z     vdW  Elec       q    Type
REMARK                         _______ _______ _______ _____ _____    ______ ____
ROOT
ATOM      1  N   UNL     1      32.011 -21.791 -18.043  0.00  0.00    -0.299 NA
ATOM      2  N   UNL     1      31.985 -23.327 -16.191  0.00  0.00    -0.106 N 
ATOM      3  N   UNL     1      31.097 -23.782 -15.270  0.00  0.00    -0.139 NA
ATOM      4  N   UNL     1      30.085 -22.277 -16.647  0.00  0.00    -0.145 NA
ATOM      5  C   UNL     1      33.256 -22.122 -18.171  0.00  0.00    +0.291 C 
ATOM      6  C   UNL     1      34.027 -23.080 -17.349  0.00  0.00    +0.105 C 
ATOM      7  C   UNL     1      33.337 -23.666 -16.355  0.00  0.00    +0.142 C 
ATOM      8  C   UNL     1      31.341 -22.404 -17.025  0.00  0.00    +0.178 C 
ATOM      9  C   UNL     1      29.988 -23.124 -15.591  0.00  0.00    +0.230 C 
ENDROOT
BRANCH   7  10
ATOM     10  N   UNL     1      33.869 -24.577 -15.489  0.00  0.00    -0.299 N 
ATOM     11  H   UNL     1      33.594 -25.512 -15.628  0.00  0.00    +0.153 HD
BRANCH  10  12
ATOM     12  C   UNL     1      34.753 -24.354 -14.427  0.00  0.00    +0.049 C 
ATOM     13  C   UNL     1      36.135 -24.458 -14.621  0.00  0.00    +0.016 C 
ATOM     14  C   UNL     1      34.264 -24.023 -13.156  0.00  0.00    +0.016 C 
ATOM     15  C   UNL     1      36.520 -23.906 -12.300  0.00  0.00    +0.122 C 
ATOM     16  C   UNL     1      37.015 -24.235 -13.562  0.00  0.00    +0.021 C 
ATOM     17  C   UNL     1      35.144 -23.800 -12.097  0.00  0.00    +0.021 C 
BRANCH  15  18
ATOM     18  S   UNL     1      37.622 -23.627 -10.975  0.00  0.00    +0.057 S 
ATOM     19  O   UNL     1      38.437 -24.821 -10.796  0.00  0.00    -0.153 OA
ATOM     20  O   UNL     1      38.265 -22.336 -11.172  0.00  0.00    -0.153 OA
BRANCH  18  21
ATOM     21  N   UNL     1      36.531 -23.502  -9.666  0.00  0.00    -0.203 NA
ATOM     22  H   UNL     1      37.035 -23.205  -8.831  0.00  0.00    +0.144 HD
ATOM     23  H   UNL     1      36.098 -24.409  -9.497  0.00  0.00    +0.144 HD
ENDBRANCH  18  21
ENDBRANCH  15  18
ENDBRANCH  10  12
ENDBRANCH   7  10
BRANCH   5  24
ATOM     24  O   UNL     1      33.992 -21.577 -19.135  0.00  0.00    -0.451 OA
BRANCH  24  25
ATOM     25  C   UNL     1      33.316 -20.646 -19.958  0.00  0.00    +0.208 C 
BRANCH  25  26
ATOM     26  C   UNL     1      34.308 -19.565 -20.383  0.00  0.00    +0.044 C 
ATOM     27  C   UNL     1      35.750 -20.016 -20.108  0.00  0.00    +0.004 C 
ATOM     28  C   UNL     1      34.121 -19.208 -21.863  0.00  0.00    +0.004 C 
ATOM     29  C   UNL     1      36.765 -18.973 -20.573  0.00  0.00    +0.000 C 
ATOM     30  C   UNL     1      35.138 -18.166 -22.325  0.00  0.00    +0.000 C 
ATOM     31  C   UNL     1      36.569 -18.614 -22.042  0.00  0.00    +0.000 C 
ENDBRANCH  25  26
ENDBRANCH  24  25
ENDBRANCH   5  24
TORSDOF 7
ENDMDL
MODEL 9
REMARK VINA RESULT:     -10.3      7.393     11.184
REMARK  Name = 23586145
REMARK  7 active torsions:
REMARK  status: ('A' for Active; 'I' for Inactive)
REMARK    1  A    between atoms: C_5  and  O_24
REMARK    2  A    between atoms: C_7  and  N_10
REMARK    3  A    between atoms: N_10  and  C_12
REMARK    4  A    between atoms: C_15  and  S_18
REMARK    5  A    between atoms: S_18  and  N_21
REMARK    6  A    between atoms: O_24  and  C_25
REMARK    7  A    between atoms: C_25  and  C_26
REMARK                            x       y       z     vdW  Elec       q    Type
REMARK                         _______ _______ _______ _____ _____    ______ ____
ROOT
ATOM      1  N   UNL     1      35.062 -15.682 -23.538  0.00  0.00    -0.299 NA
ATOM      2  N   UNL     1      33.348 -14.036 -23.908  0.00  0.00    -0.106 N 
ATOM      3  N   UNL     1      32.737 -13.434 -24.962  0.00  0.00    -0.139 NA
ATOM      4  N   UNL     1      34.297 -14.915 -25.711  0.00  0.00    -0.145 NA
ATOM      5  C   UNL     1      34.839 -15.488 -22.279  0.00  0.00    +0.291 C 
ATOM      6  C   UNL     1      33.862 -14.562 -21.665  0.00  0.00    +0.105 C 
ATOM      7  C   UNL     1      33.128 -13.846 -22.536  0.00  0.00    +0.142 C 
ATOM      8  C   UNL     1      34.301 -14.940 -24.393  0.00  0.00    +0.178 C 
ATOM      9  C   UNL     1      33.341 -13.996 -26.003  0.00  0.00    +0.230 C 
ENDROOT
BRANCH   7  10
ATOM     10  N   UNL     1      32.175 -12.940 -22.168  0.00  0.00    -0.299 N 
ATOM     11  H   UNL     1      31.257 -13.289 -22.097  0.00  0.00    +0.153 HD
BRANCH  10  12
ATOM     12  C   UNL     1      32.334 -11.579 -21.883  0.00  0.00    +0.049 C 
ATOM     13  C   UNL     1      33.035 -10.747 -22.764  0.00  0.00    +0.016 C 
ATOM     14  C   UNL     1      31.792 -11.033 -20.712  0.00  0.00    +0.016 C 
ATOM     15  C   UNL     1      32.651  -8.855 -21.310  0.00  0.00    +0.122 C 
ATOM     16  C   UNL     1      33.193  -9.391 -22.478  0.00  0.00    +0.021 C 
ATOM     17  C   UNL     1      31.950  -9.677 -20.426  0.00  0.00    +0.021 C 
BRANCH  15  18
ATOM     18  S   UNL     1      32.849  -7.158 -20.953  0.00  0.00    +0.057 S 
ATOM     19  O   UNL     1      33.862  -6.615 -21.847  0.00  0.00    -0.153 OA
ATOM     20  O   UNL     1      31.531  -6.541 -20.894  0.00  0.00    -0.153 OA
BRANCH  18  21
ATOM     21  N   UNL     1      33.492  -7.232 -19.371  0.00  0.00    -0.203 NA
ATOM     22  H   UNL     1      33.441  -6.308 -18.941  0.00  0.00    +0.144 HD
ATOM     23  H   UNL     1      34.464  -7.534 -19.413  0.00  0.00    +0.144 HD
ENDBRANCH  18  21
ENDBRANCH  15  18
ENDBRANCH  10  12
ENDBRANCH   7  10
BRANCH   5  24
ATOM     24  O   UNL     1      35.532 -16.165 -21.368  0.00  0.00    -0.451 OA
BRANCH  24  25
ATOM     25  C   UNL     1      35.983 -17.442 -21.780  0.00  0.00    +0.208 C 
BRANCH  25  26
ATOM     26  C   UNL     1      35.680 -18.444 -20.667  0.00  0.00    +0.044 C 
ATOM     27  C   UNL     1      34.462 -19.305 -21.032  0.00  0.00    +0.004 C 
ATOM     28  C   UNL     1      36.904 -19.323 -20.381  0.00  0.00    +0.004 C 
ATOM     29  C   UNL     1      34.170 -20.351 -19.957  0.00  0.00    +0.000 C 
ATOM     30  C   UNL     1      36.609 -20.370 -19.308  0.00  0.00    +0.000 C 
ATOM     31  C   UNL     1      35.393 -21.217 -19.670  0.00  0.00    +0.000 C 
ENDBRANCH  25  26
ENDBRANCH  24  25
ENDBRANCH   5  24
TORSDOF 7
ENDMDL
