MODEL 1
REMARK VINA RESULT:     -12.0      0.000      0.000
REMARK  Name = 24812719
REMARK  3 active torsions:
REMARK  status: ('A' for Active; 'I' for Inactive)
REMARK    1  A    between atoms: N_2  and  C_22
REMARK    2  A    between atoms: C_3  and  C_12
REMARK    3  A    between atoms: C_25  and  C_31
REMARK                            x       y       z     vdW  Elec       q    Type
REMARK                         _______ _______ _______ _____ _____    ______ ____
ROOT
ATOM      1  O   UNL     1      34.600 -15.457 -21.415  0.00  0.00    -0.269 OA
ATOM      2  N   UNL     1      33.861 -14.981 -23.600  0.00  0.00    -0.233 N 
ATOM      3  C   UNL     1      34.639 -17.259 -22.931  0.00  0.00    +0.046 C 
ATOM      4  C   UNL     1      34.309 -17.723 -24.154  0.00  0.00    -0.016 C 
ATOM      5  C   UNL     1      34.382 -15.809 -22.576  0.00  0.00    +0.256 C 
ATOM      6  C   UNL     1      33.533 -15.534 -24.833  0.00  0.00    +0.072 C 
ATOM      7  C   UNL     1      33.726 -16.823 -25.121  0.00  0.00    +0.012 C 
ATOM      8  C   UNL     1      34.496 -19.133 -24.649  0.00  0.00    +0.031 C 
ENDROOT
BRANCH   3  12
ATOM      9  N   UNL     1      36.948 -20.601 -19.014  0.00  0.00    -0.342 NA
ATOM     10  N   UNL     1      34.808 -21.612 -18.568  0.00  0.00    -0.170 NA
ATOM     11  N   UNL     1      36.722 -22.289 -17.400  0.00  0.00    -0.293 N 
ATOM     12  C   UNL     1      35.236 -18.135 -21.906  0.00  0.00    -0.017 C 
ATOM     13  C   UNL     1      34.442 -19.043 -21.212  0.00  0.00    +0.056 C 
ATOM     14  C   UNL     1      36.596 -18.059 -21.627  0.00  0.00    -0.022 C 
ATOM     15  C   UNL     1      35.017 -19.876 -20.237  0.00  0.00    +0.029 C 
ATOM     16  C   UNL     1      36.389 -19.809 -19.946  0.00  0.00    +0.124 C 
ATOM     17  C   UNL     1      37.160 -18.891 -20.656  0.00  0.00    +0.085 C 
ATOM     18  C   UNL     1      34.279 -20.805 -19.507  0.00  0.00    +0.110 C 
ATOM     19  C   UNL     1      36.127 -21.459 -18.377  0.00  0.00    +0.141 C 
ATOM     20  H   UNL     1      37.687 -22.220 -17.218  0.00  0.00    +0.155 HD
ATOM     21  H   UNL     1      36.172 -22.936 -16.903  0.00  0.00    +0.155 HD
ENDBRANCH   3  12
BRANCH   2  22
ATOM     22  C   UNL     1      33.646 -13.568 -23.350  0.00  0.00    +0.058 C 
ATOM     23  C   UNL     1      32.896 -13.161 -22.248  0.00  0.00    +0.019 C 
ATOM     24  C   UNL     1      34.188 -12.617 -24.214  0.00  0.00    +0.015 C 
ATOM     25  C   UNL     1      32.688 -11.803 -22.008  0.00  0.00    +0.073 C 
ATOM     26  C   UNL     1      33.981 -11.259 -23.975  0.00  0.00    +0.001 C 
ATOM     27  C   UNL     1      33.230 -10.851 -22.872  0.00  0.00    +0.004 C 
BRANCH  25  31
ATOM     28  F   UNL     1      32.280 -10.167 -20.311  0.00  0.00    -0.166 F 
ATOM     29  F   UNL     1      30.554 -11.216 -21.101  0.00  0.00    -0.166 F 
ATOM     30  F   UNL     1      31.948 -12.253 -19.794  0.00  0.00    -0.166 F 
ATOM     31  C   UNL     1      31.884 -11.367 -20.830  0.00  0.00    +0.419 C 
ENDBRANCH  25  31
ENDBRANCH   2  22
TORSDOF 3
ENDMDL
MODEL 2
REMARK VINA RESULT:     -11.9      3.884      8.574
REMARK  Name = 24812719
REMARK  3 active torsions:
REMARK  status: ('A' for Active; 'I' for Inactive)
REMARK    1  A    between atoms: N_2  and  C_22
REMARK    2  A    between atoms: C_3  and  C_12
REMARK    3  A    between atoms: C_25  and  C_31
REMARK                            x       y       z     vdW  Elec       q    Type
REMARK                         _______ _______ _______ _____ _____    ______ ____
ROOT
ATOM      1  O   UNL     1      34.697 -15.460 -21.112  0.00  0.00    -0.269 OA
ATOM      2  N   UNL     1      34.902 -17.197 -22.688  0.00  0.00    -0.233 N 
ATOM      3  C   UNL     1      34.020 -14.943 -23.308  0.00  0.00    +0.046 C 
ATOM      4  C   UNL     1      33.954 -15.331 -24.598  0.00  0.00    -0.016 C 
ATOM      5  C   UNL     1      34.557 -15.893 -22.257  0.00  0.00    +0.256 C 
ATOM      6  C   UNL     1      34.819 -17.520 -24.038  0.00  0.00    +0.072 C 
ATOM      7  C   UNL     1      34.383 -16.661 -24.962  0.00  0.00    +0.012 C 
ATOM      8  C   UNL     1      33.453 -14.502 -25.751  0.00  0.00    +0.031 C 
ENDROOT
BRANCH   3  12
ATOM      9  N   UNL     1      32.376  -9.802 -21.661  0.00  0.00    -0.342 NA
ATOM     10  N   UNL     1      33.904  -8.779 -23.217  0.00  0.00    -0.170 NA
ATOM     11  N   UNL     1      32.538  -7.468 -21.838  0.00  0.00    -0.293 N 
ATOM     12  C   UNL     1      33.595 -13.597 -22.882  0.00  0.00    -0.017 C 
ATOM     13  C   UNL     1      34.162 -12.467 -23.463  0.00  0.00    +0.056 C 
ATOM     14  C   UNL     1      32.625 -13.448 -21.897  0.00  0.00    -0.022 C 
ATOM     15  C   UNL     1      33.753 -11.186 -23.054  0.00  0.00    +0.029 C 
ATOM     16  C   UNL     1      32.774 -11.023 -22.060  0.00  0.00    +0.124 C 
ATOM     17  C   UNL     1      32.223 -12.171 -21.496  0.00  0.00    +0.085 C 
ATOM     18  C   UNL     1      34.280 -10.016 -23.594  0.00  0.00    +0.110 C 
ATOM     19  C   UNL     1      32.962  -8.747 -22.262  0.00  0.00    +0.141 C 
ATOM     20  H   UNL     1      31.849  -7.385 -21.140  0.00  0.00    +0.155 HD
ATOM     21  H   UNL     1      32.931  -6.661 -22.242  0.00  0.00    +0.155 HD
ENDBRANCH   3  12
BRANCH   2  22
ATOM     22  C   UNL     1      35.366 -18.179 -21.727  0.00  0.00    +0.058 C 
ATOM     23  C   UNL     1      34.472 -19.101 -21.184  0.00  0.00    +0.019 C 
ATOM     24  C   UNL     1      36.707 -18.199 -21.343  0.00  0.00    +0.015 C 
ATOM     25  C   UNL     1      34.918 -20.044 -20.259  0.00  0.00    +0.073 C 
ATOM     26  C   UNL     1      37.154 -19.142 -20.418  0.00  0.00    +0.001 C 
ATOM     27  C   UNL     1      36.259 -20.065 -19.875  0.00  0.00    +0.004 C 
BRANCH  25  31
ATOM     28  F   UNL     1      34.351 -22.329 -19.835  0.00  0.00    -0.166 F 
ATOM     29  F   UNL     1      33.769 -20.876 -18.334  0.00  0.00    -0.166 F 
ATOM     30  F   UNL     1      32.719 -20.948 -20.236  0.00  0.00    -0.166 F 
ATOM     31  C   UNL     1      33.962 -21.030 -19.677  0.00  0.00    +0.419 C 
ENDBRANCH  25  31
ENDBRANCH   2  22
TORSDOF 3
ENDMDL
MODEL 3
REMARK VINA RESULT:     -11.9      3.732      8.223
REMARK  Name = 24812719
REMARK  3 active torsions:
REMARK  status: ('A' for Active; 'I' for Inactive)
REMARK    1  A    between atoms: N_2  and  C_22
REMARK    2  A    between atoms: C_3  and  C_12
REMARK    3  A    between atoms: C_25  and  C_31
REMARK                            x       y       z     vdW  Elec       q    Type
REMARK                         _______ _______ _______ _____ _____    ______ ____
ROOT
ATOM      1  O   UNL     1      34.830 -15.498 -21.186  0.00  0.00    -0.269 OA
ATOM      2  N   UNL     1      34.885 -17.330 -22.665  0.00  0.00    -0.233 N 
ATOM      3  C   UNL     1      34.062 -15.080 -23.373  0.00  0.00    +0.046 C 
ATOM      4  C   UNL     1      33.915 -15.537 -24.633  0.00  0.00    -0.016 C 
ATOM      5  C   UNL     1      34.614 -15.990 -22.295  0.00  0.00    +0.256 C 
ATOM      6  C   UNL     1      34.720 -17.726 -23.988  0.00  0.00    +0.072 C 
ATOM      7  C   UNL     1      34.271 -16.903 -24.939  0.00  0.00    +0.012 C 
ATOM      8  C   UNL     1      33.388 -14.755 -25.807  0.00  0.00    +0.031 C 
ENDROOT
BRANCH   3  12
ATOM      9  N   UNL     1      32.748  -9.769 -21.989  0.00  0.00    -0.342 NA
ATOM     10  N   UNL     1      31.180 -10.553 -20.336  0.00  0.00    -0.170 NA
ATOM     11  N   UNL     1      31.512  -8.260 -20.685  0.00  0.00    -0.293 N 
ATOM     12  C   UNL     1      33.713 -13.694 -23.007  0.00  0.00    -0.017 C 
ATOM     13  C   UNL     1      32.771 -13.448 -22.013  0.00  0.00    +0.056 C 
ATOM     14  C   UNL     1      34.325 -12.625 -23.652  0.00  0.00    -0.022 C 
ATOM     15  C   UNL     1      32.444 -12.126 -21.668  0.00  0.00    +0.029 C 
ATOM     16  C   UNL     1      33.054 -11.038 -22.312  0.00  0.00    +0.124 C 
ATOM     17  C   UNL     1      33.994 -11.313 -23.303  0.00  0.00    +0.085 C 
ATOM     18  C   UNL     1      31.510 -11.811 -20.684  0.00  0.00    +0.110 C 
ATOM     19  C   UNL     1      31.828  -9.596 -21.019  0.00  0.00    +0.141 C 
ATOM     20  H   UNL     1      31.957  -7.518 -21.153  0.00  0.00    +0.155 HD
ATOM     21  H   UNL     1      30.848  -8.073 -19.983  0.00  0.00    +0.155 HD
ENDBRANCH   3  12
BRANCH   2  22
ATOM     22  C   UNL     1      35.359 -18.274 -21.671  0.00  0.00    +0.058 C 
ATOM     23  C   UNL     1      34.460 -19.129 -21.037  0.00  0.00    +0.019 C 
ATOM     24  C   UNL     1      36.715 -18.324 -21.348  0.00  0.00    +0.015 C 
ATOM     25  C   UNL     1      34.915 -20.036 -20.081  0.00  0.00    +0.073 C 
ATOM     26  C   UNL     1      37.171 -19.231 -20.391  0.00  0.00    +0.001 C 
ATOM     27  C   UNL     1      36.271 -20.087 -19.757  0.00  0.00    +0.004 C 
BRANCH  25  31
ATOM     28  F   UNL     1      32.722 -20.396 -19.194  0.00  0.00    -0.166 F 
ATOM     29  F   UNL     1      33.711 -22.104 -20.094  0.00  0.00    -0.166 F 
ATOM     30  F   UNL     1      34.387 -21.349 -18.170  0.00  0.00    -0.166 F 
ATOM     31  C   UNL     1      33.952 -20.951 -19.401  0.00  0.00    +0.419 C 
ENDBRANCH  25  31
ENDBRANCH   2  22
TORSDOF 3
ENDMDL
MODEL 4
REMARK VINA RESULT:     -11.5      1.820      2.358
REMARK  Name = 24812719
REMARK  3 active torsions:
REMARK  status: ('A' for Active; 'I' for Inactive)
REMARK    1  A    between atoms: N_2  and  C_22
REMARK    2  A    between atoms: C_3  and  C_12
REMARK    3  A    between atoms: C_25  and  C_31
REMARK                            x       y       z     vdW  Elec       q    Type
REMARK                         _______ _______ _______ _____ _____    ______ ____
ROOT
ATOM      1  O   UNL     1      34.653 -15.475 -21.352  0.00  0.00    -0.269 OA
ATOM      2  N   UNL     1      33.920 -14.990 -23.536  0.00  0.00    -0.233 N 
ATOM      3  C   UNL     1      34.685 -17.274 -22.872  0.00  0.00    +0.046 C 
ATOM      4  C   UNL     1      34.355 -17.733 -24.096  0.00  0.00    -0.016 C 
ATOM      5  C   UNL     1      34.435 -15.823 -22.513  0.00  0.00    +0.256 C 
ATOM      6  C   UNL     1      33.592 -15.538 -24.771  0.00  0.00    +0.072 C 
ATOM      7  C   UNL     1      33.779 -16.828 -25.063  0.00  0.00    +0.012 C 
ATOM      8  C   UNL     1      34.535 -19.142 -24.595  0.00  0.00    +0.031 C 
ENDROOT
BRANCH   3  12
ATOM      9  N   UNL     1      36.970 -20.637 -18.959  0.00  0.00    -0.342 NA
ATOM     10  N   UNL     1      34.828 -21.656 -18.537  0.00  0.00    -0.170 NA
ATOM     11  N   UNL     1      36.735 -22.337 -17.358  0.00  0.00    -0.293 N 
ATOM     12  C   UNL     1      35.276 -18.155 -21.848  0.00  0.00    -0.017 C 
ATOM     13  C   UNL     1      34.478 -19.070 -21.166  0.00  0.00    +0.056 C 
ATOM     14  C   UNL     1      36.633 -18.079 -21.557  0.00  0.00    -0.022 C 
ATOM     15  C   UNL     1      35.047 -19.908 -20.192  0.00  0.00    +0.029 C 
ATOM     16  C   UNL     1      36.417 -19.840 -19.890  0.00  0.00    +0.124 C 
ATOM     17  C   UNL     1      37.191 -18.916 -20.587  0.00  0.00    +0.085 C 
ATOM     18  C   UNL     1      34.305 -20.843 -19.474  0.00  0.00    +0.110 C 
ATOM     19  C   UNL     1      36.146 -21.501 -18.334  0.00  0.00    +0.141 C 
ATOM     20  H   UNL     1      37.698 -22.267 -17.168  0.00  0.00    +0.155 HD
ATOM     21  H   UNL     1      36.182 -22.988 -16.869  0.00  0.00    +0.155 HD
ENDBRANCH   3  12
BRANCH   2  22
ATOM     22  C   UNL     1      33.712 -13.577 -23.283  0.00  0.00    +0.058 C 
ATOM     23  C   UNL     1      34.385 -12.625 -24.047  0.00  0.00    +0.019 C 
ATOM     24  C   UNL     1      32.840 -13.171 -22.273  0.00  0.00    +0.015 C 
ATOM     25  C   UNL     1      34.186 -11.267 -23.803  0.00  0.00    +0.073 C 
ATOM     26  C   UNL     1      32.640 -11.812 -22.029  0.00  0.00    +0.001 C 
ATOM     27  C   UNL     1      33.314 -10.860 -22.793  0.00  0.00    +0.004 C 
BRANCH  25  31
ATOM     28  F   UNL     1      36.195 -10.036 -24.219  0.00  0.00    -0.166 F 
ATOM     29  F   UNL     1      34.995 -10.571 -25.944  0.00  0.00    -0.166 F 
ATOM     30  F   UNL     1      34.305  -9.023 -24.582  0.00  0.00    -0.166 F 
ATOM     31  C   UNL     1      34.907 -10.247 -24.620  0.00  0.00    +0.419 C 
ENDBRANCH  25  31
ENDBRANCH   2  22
TORSDOF 3
ENDMDL
MODEL 5
REMARK VINA RESULT:     -11.0      2.142      2.649
REMARK  Name = 24812719
REMARK  3 active torsions:
REMARK  status: ('A' for Active; 'I' for Inactive)
REMARK    1  A    between atoms: N_2  and  C_22
REMARK    2  A    between atoms: C_3  and  C_12
REMARK    3  A    between atoms: C_25  and  C_31
REMARK                            x       y       z     vdW  Elec       q    Type
REMARK                         _______ _______ _______ _____ _____    ______ ____
ROOT
ATOM      1  O   UNL     1      34.790 -16.364 -21.113  0.00  0.00    -0.269 OA
ATOM      2  N   UNL     1      34.255 -16.090 -23.390  0.00  0.00    -0.233 N 
ATOM      3  C   UNL     1      34.927 -18.302 -22.444  0.00  0.00    +0.046 C 
ATOM      4  C   UNL     1      34.698 -18.877 -23.642  0.00  0.00    -0.016 C 
ATOM      5  C   UNL     1      34.668 -16.822 -22.250  0.00  0.00    +0.256 C 
ATOM      6  C   UNL     1      34.027 -16.754 -24.590  0.00  0.00    +0.072 C 
ATOM      7  C   UNL     1      34.220 -18.067 -24.738  0.00  0.00    +0.012 C 
ATOM      8  C   UNL     1      34.901 -20.329 -23.985  0.00  0.00    +0.031 C 
ENDROOT
BRANCH   3  12
ATOM      9  N   UNL     1      36.818 -21.280 -18.039  0.00  0.00    -0.342 NA
ATOM     10  N   UNL     1      34.660 -22.319 -17.774  0.00  0.00    -0.170 NA
ATOM     11  N   UNL     1      36.434 -22.852 -16.339  0.00  0.00    -0.293 N 
ATOM     12  C   UNL     1      35.415 -19.083 -21.291  0.00  0.00    -0.017 C 
ATOM     13  C   UNL     1      34.562 -19.961 -20.629  0.00  0.00    +0.056 C 
ATOM     14  C   UNL     1      36.730 -18.947 -20.860  0.00  0.00    -0.022 C 
ATOM     15  C   UNL     1      35.033 -20.704 -19.533  0.00  0.00    +0.029 C 
ATOM     16  C   UNL     1      36.358 -20.575 -19.087  0.00  0.00    +0.124 C 
ATOM     17  C   UNL     1      37.189 -19.689 -19.768  0.00  0.00    +0.085 C 
ATOM     18  C   UNL     1      34.232 -21.598 -18.827  0.00  0.00    +0.110 C 
ATOM     19  C   UNL     1      35.944 -22.114 -17.440  0.00  0.00    +0.141 C 
ATOM     20  H   UNL     1      37.368 -22.742 -16.051  0.00  0.00    +0.155 HD
ATOM     21  H   UNL     1      35.842 -23.477 -15.863  0.00  0.00    +0.155 HD
ENDBRANCH   3  12
BRANCH   2  22
ATOM     22  C   UNL     1      34.046 -14.657 -23.294  0.00  0.00    +0.058 C 
ATOM     23  C   UNL     1      34.005 -13.879 -24.450  0.00  0.00    +0.019 C 
ATOM     24  C   UNL     1      33.889 -14.059 -22.044  0.00  0.00    +0.015 C 
ATOM     25  C   UNL     1      33.805 -12.503 -24.357  0.00  0.00    +0.073 C 
ATOM     26  C   UNL     1      33.688 -12.681 -21.951  0.00  0.00    +0.001 C 
ATOM     27  C   UNL     1      33.647 -11.903 -23.108  0.00  0.00    +0.004 C 
BRANCH  25  31
ATOM     28  F   UNL     1      32.609 -10.948 -25.728  0.00  0.00    -0.166 F 
ATOM     29  F   UNL     1      34.768 -10.748 -25.667  0.00  0.00    -0.166 F 
ATOM     30  F   UNL     1      33.863 -12.414 -26.733  0.00  0.00    -0.166 F 
ATOM     31  C   UNL     1      33.761 -11.669 -25.594  0.00  0.00    +0.419 C 
ENDBRANCH  25  31
ENDBRANCH   2  22
TORSDOF 3
ENDMDL
MODEL 6
REMARK VINA RESULT:     -10.8      4.056      8.644
REMARK  Name = 24812719
REMARK  3 active torsions:
REMARK  status: ('A' for Active; 'I' for Inactive)
REMARK    1  A    between atoms: N_2  and  C_22
REMARK    2  A    between atoms: C_3  and  C_12
REMARK    3  A    between atoms: C_25  and  C_31
REMARK                            x       y       z     vdW  Elec       q    Type
REMARK                         _______ _______ _______ _____ _____    ______ ____
ROOT
ATOM      1  O   UNL     1      33.841 -14.756 -22.145  0.00  0.00    -0.269 OA
ATOM      2  N   UNL     1      34.091 -15.691 -24.292  0.00  0.00    -0.233 N 
ATOM      3  C   UNL     1      33.350 -13.329 -23.954  0.00  0.00    +0.046 C 
ATOM      4  C   UNL     1      33.365 -13.141 -25.289  0.00  0.00    -0.016 C 
ATOM      5  C   UNL     1      33.768 -14.664 -23.372  0.00  0.00    +0.256 C 
ATOM      6  C   UNL     1      34.095 -15.418 -25.655  0.00  0.00    +0.072 C 
ATOM      7  C   UNL     1      33.765 -14.225 -26.155  0.00  0.00    +0.012 C 
ATOM      8  C   UNL     1      32.985 -11.876 -26.012  0.00  0.00    +0.031 C 
ENDROOT
BRANCH   3  12
ATOM      9  N   UNL     1      31.805  -9.239 -20.386  0.00  0.00    -0.342 NA
ATOM     10  N   UNL     1      33.053  -7.616 -21.655  0.00  0.00    -0.170 NA
ATOM     11  N   UNL     1      31.865  -6.985 -19.737  0.00  0.00    -0.293 N 
ATOM     12  C   UNL     1      32.951 -12.256 -23.025  0.00  0.00    -0.017 C 
ATOM     13  C   UNL     1      33.389 -10.951 -23.231  0.00  0.00    +0.056 C 
ATOM     14  C   UNL     1      32.132 -12.540 -21.938  0.00  0.00    -0.022 C 
ATOM     15  C   UNL     1      33.004  -9.932 -22.343  0.00  0.00    +0.029 C 
ATOM     16  C   UNL     1      32.178 -10.207 -21.241  0.00  0.00    +0.124 C 
ATOM     17  C   UNL     1      31.754 -11.521 -21.059  0.00  0.00    +0.085 C 
ATOM     18  C   UNL     1      33.409  -8.608 -22.492  0.00  0.00    +0.110 C 
ATOM     19  C   UNL     1      32.263  -7.997 -20.639  0.00  0.00    +0.141 C 
ATOM     20  H   UNL     1      31.285  -7.208 -18.974  0.00  0.00    +0.155 HD
ATOM     21  H   UNL     1      32.168  -6.058 -19.872  0.00  0.00    +0.155 HD
ENDBRANCH   3  12
BRANCH   2  22
ATOM     22  C   UNL     1      34.442 -17.013 -23.808  0.00  0.00    +0.058 C 
ATOM     23  C   UNL     1      35.292 -17.152 -22.711  0.00  0.00    +0.019 C 
ATOM     24  C   UNL     1      33.930 -18.145 -24.441  0.00  0.00    +0.015 C 
ATOM     25  C   UNL     1      35.629 -18.422 -22.247  0.00  0.00    +0.073 C 
ATOM     26  C   UNL     1      34.268 -19.417 -23.976  0.00  0.00    +0.001 C 
ATOM     27  C   UNL     1      35.118 -19.555 -22.880  0.00  0.00    +0.004 C 
BRANCH  25  31
ATOM     28  F   UNL     1      36.457 -19.793 -20.469  0.00  0.00    -0.166 F 
ATOM     29  F   UNL     1      37.861 -18.417 -21.386  0.00  0.00    -0.166 F 
ATOM     30  F   UNL     1      36.286 -17.657 -20.093  0.00  0.00    -0.166 F 
ATOM     31  C   UNL     1      36.540 -18.571 -21.075  0.00  0.00    +0.419 C 
ENDBRANCH  25  31
ENDBRANCH   2  22
TORSDOF 3
ENDMDL
MODEL 7
REMARK VINA RESULT:     -10.6      5.509     10.733
REMARK  Name = 24812719
REMARK  3 active torsions:
REMARK  status: ('A' for Active; 'I' for Inactive)
REMARK    1  A    between atoms: N_2  and  C_22
REMARK    2  A    between atoms: C_3  and  C_12
REMARK    3  A    between atoms: C_25  and  C_31
REMARK                            x       y       z     vdW  Elec       q    Type
REMARK                         _______ _______ _______ _____ _____    ______ ____
ROOT
ATOM      1  O   UNL     1      32.906  -9.832 -23.456  0.00  0.00    -0.269 OA
ATOM      2  N   UNL     1      32.629 -11.953 -22.471  0.00  0.00    -0.233 N 
ATOM      3  C   UNL     1      32.217  -9.839 -21.204  0.00  0.00    +0.046 C 
ATOM      4  C   UNL     1      31.799 -10.563 -20.145  0.00  0.00    -0.016 C 
ATOM      5  C   UNL     1      32.634 -10.537 -22.483  0.00  0.00    +0.256 C 
ATOM      6  C   UNL     1      32.173 -12.631 -21.346  0.00  0.00    +0.072 C 
ATOM      7  C   UNL     1      31.770 -12.004 -20.238  0.00  0.00    +0.012 C 
ATOM      8  C   UNL     1      31.349 -10.016 -18.817  0.00  0.00    +0.031 C 
ENDROOT
BRANCH   3  12
ATOM      9  N   UNL     1      32.428  -4.203 -21.033  0.00  0.00    -0.342 NA
ATOM     10  N   UNL     1      30.258  -4.057 -22.068  0.00  0.00    -0.170 NA
ATOM     11  N   UNL     1      31.439  -2.122 -21.478  0.00  0.00    -0.293 N 
ATOM     12  C   UNL     1      32.266  -8.366 -21.163  0.00  0.00    -0.017 C 
ATOM     13  C   UNL     1      31.205  -7.615 -21.660  0.00  0.00    +0.056 C 
ATOM     14  C   UNL     1      33.373  -7.717 -20.626  0.00  0.00    -0.022 C 
ATOM     15  C   UNL     1      31.257  -6.212 -21.617  0.00  0.00    +0.029 C 
ATOM     16  C   UNL     1      32.369  -5.545 -21.078  0.00  0.00    +0.124 C 
ATOM     17  C   UNL     1      33.416  -6.321 -20.587  0.00  0.00    +0.085 C 
ATOM     18  C   UNL     1      30.230  -5.403 -22.098  0.00  0.00    +0.110 C 
ATOM     19  C   UNL     1      31.370  -3.532 -21.530  0.00  0.00    +0.141 C 
ATOM     20  H   UNL     1      32.231  -1.683 -21.094  0.00  0.00    +0.155 HD
ATOM     21  H   UNL     1      30.695  -1.580 -21.826  0.00  0.00    +0.155 HD
ENDBRANCH   3  12
BRANCH   2  22
ATOM     22  C   UNL     1      33.074 -12.688 -23.640  0.00  0.00    +0.058 C 
ATOM     23  C   UNL     1      33.375 -14.045 -23.537  0.00  0.00    +0.019 C 
ATOM     24  C   UNL     1      33.202 -12.036 -24.866  0.00  0.00    +0.015 C 
ATOM     25  C   UNL     1      33.803 -14.751 -24.660  0.00  0.00    +0.073 C 
ATOM     26  C   UNL     1      33.631 -12.742 -25.990  0.00  0.00    +0.001 C 
ATOM     27  C   UNL     1      33.932 -14.100 -25.887  0.00  0.00    +0.004 C 
BRANCH  25  31
ATOM     28  F   UNL     1      34.329 -16.625 -23.268  0.00  0.00    -0.166 F 
ATOM     29  F   UNL     1      33.149 -17.020 -25.043  0.00  0.00    -0.166 F 
ATOM     30  F   UNL     1      35.261 -16.541 -25.231  0.00  0.00    -0.166 F 
ATOM     31  C   UNL     1      34.127 -16.204 -24.551  0.00  0.00    +0.419 C 
ENDBRANCH  25  31
ENDBRANCH   2  22
TORSDOF 3
ENDMDL
MODEL 8
REMARK VINA RESULT:     -10.5      4.882      9.248
REMARK  Name = 24812719
REMARK  3 active torsions:
REMARK  status: ('A' for Active; 'I' for Inactive)
REMARK    1  A    between atoms: N_2  and  C_22
REMARK    2  A    between atoms: C_3  and  C_12
REMARK    3  A    between atoms: C_25  and  C_31
REMARK                            x       y       z     vdW  Elec       q    Type
REMARK                         _______ _______ _______ _____ _____    ______ ____
ROOT
ATOM      1  O   UNL     1      33.545 -19.715 -20.345  0.00  0.00    -0.269 OA
ATOM      2  N   UNL     1      35.374 -20.712 -19.247  0.00  0.00    -0.233 N 
ATOM      3  C   UNL     1      35.679 -19.091 -21.124  0.00  0.00    +0.046 C 
ATOM      4  C   UNL     1      37.015 -19.147 -20.946  0.00  0.00    -0.016 C 
ATOM      5  C   UNL     1      34.759 -19.880 -20.214  0.00  0.00    +0.256 C 
ATOM      6  C   UNL     1      36.759 -20.708 -19.115  0.00  0.00    +0.072 C 
ATOM      7  C   UNL     1      37.557 -19.977 -19.896  0.00  0.00    +0.012 C 
ATOM      8  C   UNL     1      38.051 -18.418 -21.760  0.00  0.00    +0.031 C 
ENDROOT
BRANCH   3  12
ATOM      9  N   UNL     1      33.356 -15.932 -25.182  0.00  0.00    -0.342 NA
ATOM     10  N   UNL     1      33.818 -13.926 -23.930  0.00  0.00    -0.170 NA
ATOM     11  N   UNL     1      32.756 -13.822 -26.016  0.00  0.00    -0.293 N 
ATOM     12  C   UNL     1      35.073 -18.259 -22.180  0.00  0.00    -0.017 C 
ATOM     13  C   UNL     1      35.025 -16.876 -22.042  0.00  0.00    +0.056 C 
ATOM     14  C   UNL     1      34.546 -18.853 -23.321  0.00  0.00    -0.022 C 
ATOM     15  C   UNL     1      34.447 -16.088 -23.052  0.00  0.00    +0.029 C 
ATOM     16  C   UNL     1      33.911 -16.676 -24.210  0.00  0.00    +0.124 C 
ATOM     17  C   UNL     1      33.972 -18.063 -24.322  0.00  0.00    +0.085 C 
ATOM     18  C   UNL     1      34.368 -14.700 -22.976  0.00  0.00    +0.110 C 
ATOM     19  C   UNL     1      33.340 -14.598 -24.989  0.00  0.00    +0.141 C 
ATOM     20  H   UNL     1      32.389 -14.262 -26.816  0.00  0.00    +0.155 HD
ATOM     21  H   UNL     1      32.716 -12.842 -25.930  0.00  0.00    +0.155 HD
ENDBRANCH   3  12
BRANCH   2  22
ATOM     22  C   UNL     1      34.558 -21.543 -18.382  0.00  0.00    +0.058 C 
ATOM     23  C   UNL     1      35.126 -22.161 -17.269  0.00  0.00    +0.019 C 
ATOM     24  C   UNL     1      33.205 -21.725 -18.665  0.00  0.00    +0.015 C 
ATOM     25  C   UNL     1      34.342 -22.960 -16.439  0.00  0.00    +0.073 C 
ATOM     26  C   UNL     1      32.420 -22.524 -17.834  0.00  0.00    +0.001 C 
ATOM     27  C   UNL     1      32.989 -23.142 -16.721  0.00  0.00    +0.004 C 
BRANCH  25  31
ATOM     28  F   UNL     1      34.578 -24.928 -15.098  0.00  0.00    -0.166 F 
ATOM     29  F   UNL     1      36.316 -23.643 -15.272  0.00  0.00    -0.166 F 
ATOM     30  F   UNL     1      34.614 -23.008 -14.077  0.00  0.00    -0.166 F 
ATOM     31  C   UNL     1      34.950 -23.622 -15.248  0.00  0.00    +0.419 C 
ENDBRANCH  25  31
ENDBRANCH   2  22
TORSDOF 3
ENDMDL
MODEL 9
REMARK VINA RESULT:     -10.4      4.917     10.503
REMARK  Name = 24812719
REMARK  3 active torsions:
REMARK  status: ('A' for Active; 'I' for Inactive)
REMARK    1  A    between atoms: N_2  and  C_22
REMARK    2  A    between atoms: C_3  and  C_12
REMARK    3  A    between atoms: C_25  and  C_31
REMARK                            x       y       z     vdW  Elec       q    Type
REMARK                         _______ _______ _______ _____ _____    ______ ____
ROOT
ATOM      1  O   UNL     1      33.471 -11.048 -23.680  0.00  0.00    -0.269 OA
ATOM      2  N   UNL     1      32.842 -12.684 -22.108  0.00  0.00    -0.233 N 
ATOM      3  C   UNL     1      32.472 -10.247 -21.703  0.00  0.00    +0.046 C 
ATOM      4  C   UNL     1      31.836 -10.541 -20.551  0.00  0.00    -0.016 C 
ATOM      5  C   UNL     1      32.993 -11.361 -22.589  0.00  0.00    +0.256 C 
ATOM      6  C   UNL     1      32.164 -12.911 -20.915  0.00  0.00    +0.072 C 
ATOM      7  C   UNL     1      31.673 -11.923 -20.163  0.00  0.00    +0.012 C 
ATOM      8  C   UNL     1      31.260  -9.549 -19.576  0.00  0.00    +0.031 C 
ENDROOT
BRANCH   3  12
ATOM      9  N   UNL     1      33.235  -4.914 -23.386  0.00  0.00    -0.342 NA
ATOM     10  N   UNL     1      31.052  -4.889 -24.404  0.00  0.00    -0.170 NA
ATOM     11  N   UNL     1      32.436  -3.000 -24.484  0.00  0.00    -0.293 N 
ATOM     12  C   UNL     1      32.665  -8.853 -22.147  0.00  0.00    -0.017 C 
ATOM     13  C   UNL     1      31.664  -8.199 -22.859  0.00  0.00    +0.056 C 
ATOM     14  C   UNL     1      33.849  -8.184 -21.855  0.00  0.00    -0.022 C 
ATOM     15  C   UNL     1      31.853  -6.871 -23.277  0.00  0.00    +0.029 C 
ATOM     16  C   UNL     1      33.044  -6.185 -22.989  0.00  0.00    +0.124 C 
ATOM     17  C   UNL     1      34.029  -6.863 -22.276  0.00  0.00    +0.085 C 
ATOM     18  C   UNL     1      30.892  -6.161 -23.992  0.00  0.00    +0.110 C 
ATOM     19  C   UNL     1      32.228  -4.336 -24.072  0.00  0.00    +0.141 C 
ATOM     20  H   UNL     1      33.281  -2.545 -24.267  0.00  0.00    +0.155 HD
ATOM     21  H   UNL     1      31.735  -2.527 -24.987  0.00  0.00    +0.155 HD
ENDBRANCH   3  12
BRANCH   2  22
ATOM     22  C   UNL     1      33.371 -13.797 -22.873  0.00  0.00    +0.058 C 
ATOM     23  C   UNL     1      34.047 -14.830 -22.226  0.00  0.00    +0.019 C 
ATOM     24  C   UNL     1      33.205 -13.832 -24.257  0.00  0.00    +0.015 C 
ATOM     25  C   UNL     1      34.556 -15.899 -22.962  0.00  0.00    +0.073 C 
ATOM     26  C   UNL     1      33.713 -14.902 -24.994  0.00  0.00    +0.001 C 
ATOM     27  C   UNL     1      34.390 -15.936 -24.346  0.00  0.00    +0.004 C 
BRANCH  25  31
ATOM     28  F   UNL     1      34.540 -18.144 -22.132  0.00  0.00    -0.166 F 
ATOM     29  F   UNL     1      36.421 -17.397 -22.913  0.00  0.00    -0.166 F 
ATOM     30  F   UNL     1      35.672 -16.666 -21.007  0.00  0.00    -0.166 F 
ATOM     31  C   UNL     1      35.281 -17.005 -22.270  0.00  0.00    +0.419 C 
ENDBRANCH  25  31
ENDBRANCH   2  22
TORSDOF 3
ENDMDL
