MODEL 1
REMARK VINA RESULT:     -11.6      0.000      0.000
REMARK  Name = 11689883
REMARK  5 active torsions:
REMARK  status: ('A' for Active; 'I' for Inactive)
REMARK    1  A    between atoms: C_2  and  C_21
REMARK    2  A    between atoms: C_5  and  N_9
REMARK    3  A    between atoms: N_10  and  C_15
REMARK    4  A    between atoms: C_21  and  N_23
REMARK    5  A    between atoms: C_29  and  O_31
REMARK                            x       y       z     vdW  Elec       q    Type
REMARK                         _______ _______ _______ _____ _____    ______ ____
ROOT
ATOM      1  F   UNL     1      35.726 -16.954 -20.934  0.00  0.00    -0.203 F 
ATOM      2  C   UNL     1      34.819 -16.406 -23.053  0.00  0.00    -0.014 C 
ATOM      3  C   UNL     1      35.196 -17.344 -22.104  0.00  0.00    +0.147 C 
ATOM      4  C   UNL     1      34.268 -16.798 -24.266  0.00  0.00    -0.004 C 
ATOM      5  C   UNL     1      35.020 -18.702 -22.371  0.00  0.00    +0.079 C 
ATOM      6  C   UNL     1      34.093 -18.155 -24.534  0.00  0.00    +0.001 C 
ATOM      7  C   UNL     1      34.469 -19.108 -23.587  0.00  0.00    +0.017 C 
ENDROOT
BRANCH   5   9
ATOM      8  O   UNL     1      33.543 -19.741 -19.993  0.00  0.00    -0.252 OA
ATOM      9  N   UNL     1      35.396 -19.657 -21.426  0.00  0.00    -0.266 N 
ATOM     10  N   UNL     1      35.415 -21.091 -19.615  0.00  0.00    -0.267 N 
ATOM     11  C   UNL     1      34.665 -20.127 -20.306  0.00  0.00    +0.308 C 
ATOM     12  H   UNL     1      36.286 -20.058 -21.552  0.00  0.00    +0.156 HD
ATOM     13  H   UNL     1      36.303 -21.297 -19.989  0.00  0.00    +0.156 HD
BRANCH  10  15
ATOM     14  N   UNL     1      35.665 -22.604 -16.271  0.00  0.00    -0.247 NA
ATOM     15  C   UNL     1      35.053 -21.804 -18.448  0.00  0.00    +0.071 C 
ATOM     16  C   UNL     1      33.802 -22.373 -18.342  0.00  0.00    +0.018 C 
ATOM     17  C   UNL     1      35.946 -21.936 -17.412  0.00  0.00    +0.113 C 
ATOM     18  C   UNL     1      33.474 -23.069 -17.183  0.00  0.00    +0.016 C 
ATOM     19  C   UNL     1      34.433 -23.155 -16.186  0.00  0.00    +0.059 C 
ATOM     20  C   UNL     1      34.116 -23.894 -14.928  0.00  0.00    +0.052 C 
ENDBRANCH  10  15
ENDBRANCH   5   9
BRANCH   2  21
ATOM     21  C   UNL     1      35.006 -14.940 -22.767  0.00  0.00    -0.047 C 
BRANCH  21  23
ATOM     22  O   UNL     1      31.876 -10.995 -19.055  0.00  0.00    -0.226 OA
ATOM     23  N   UNL     1      33.791 -14.330 -22.225  0.00  0.00    +0.392 N 
ATOM     24  N   UNL     1      32.248 -12.290 -20.948  0.00  0.00    -0.250 N 
ATOM     25  C   UNL     1      33.940 -14.078 -20.785  0.00  0.00    -0.055 C 
ATOM     26  C   UNL     1      33.477 -13.083 -22.938  0.00  0.00    -0.055 C 
ATOM     27  C   UNL     1      32.660 -13.478 -20.204  0.00  0.00    +0.074 C 
ATOM     28  C   UNL     1      32.188 -12.458 -22.402  0.00  0.00    +0.074 C 
ATOM     29  C   UNL     1      31.827 -11.140 -20.276  0.00  0.00    +0.405 C 
ATOM     30  H   UNL     1      33.018 -14.982 -22.359  0.00  0.00    -0.079 HD
BRANCH  29  31
ATOM     31  O   UNL     1      31.345 -10.179 -21.124  0.00  0.00    -0.430 OA
ATOM     32  C   UNL     1      31.788  -8.840 -20.875  0.00  0.00    +0.257 C 
ENDBRANCH  29  31
ENDBRANCH  21  23
ENDBRANCH   2  21
TORSDOF 5
ENDMDL
MODEL 2
REMARK VINA RESULT:     -11.3      2.089      9.791
REMARK  Name = 11689883
REMARK  5 active torsions:
REMARK  status: ('A' for Active; 'I' for Inactive)
REMARK    1  A    between atoms: C_2  and  C_21
REMARK    2  A    between atoms: C_5  and  N_9
REMARK    3  A    between atoms: N_10  and  C_15
REMARK    4  A    between atoms: C_21  and  N_23
REMARK    5  A    between atoms: C_29  and  O_31
REMARK                            x       y       z     vdW  Elec       q    Type
REMARK                         _______ _______ _______ _____ _____    ______ ____
ROOT
ATOM      1  F   UNL     1      35.671 -16.004 -21.470  0.00  0.00    -0.203 F 
ATOM      2  C   UNL     1      35.150 -18.206 -22.174  0.00  0.00    -0.014 C 
ATOM      3  C   UNL     1      35.152 -16.835 -22.388  0.00  0.00    +0.147 C 
ATOM      4  C   UNL     1      34.618 -19.075 -23.116  0.00  0.00    -0.004 C 
ATOM      5  C   UNL     1      34.611 -16.322 -23.567  0.00  0.00    +0.079 C 
ATOM      6  C   UNL     1      34.077 -18.563 -24.295  0.00  0.00    +0.001 C 
ATOM      7  C   UNL     1      34.073 -17.187 -24.521  0.00  0.00    +0.017 C 
ENDROOT
BRANCH   5   9
ATOM      8  O   UNL     1      33.236 -14.129 -22.079  0.00  0.00    -0.252 OA
ATOM      9  N   UNL     1      34.607 -14.946 -23.795  0.00  0.00    -0.266 N 
ATOM     10  N   UNL     1      34.203 -12.677 -23.636  0.00  0.00    -0.267 N 
ATOM     11  C   UNL     1      33.939 -13.932 -23.065  0.00  0.00    +0.308 C 
ATOM     12  H   UNL     1      35.137 -14.638 -24.566  0.00  0.00    +0.156 HD
ATOM     13  H   UNL     1      34.789 -12.677 -24.428  0.00  0.00    +0.156 HD
BRANCH  10  15
ATOM     14  N   UNL     1      32.200 -10.147 -21.869  0.00  0.00    -0.247 NA
ATOM     15  C   UNL     1      33.732 -11.411 -23.215  0.00  0.00    +0.071 C 
ATOM     16  C   UNL     1      34.305 -10.257 -23.706  0.00  0.00    +0.018 C 
ATOM     17  C   UNL     1      32.699 -11.323 -22.312  0.00  0.00    +0.113 C 
ATOM     18  C   UNL     1      33.820  -9.028 -23.273  0.00  0.00    +0.016 C 
ATOM     19  C   UNL     1      32.775  -9.027 -22.363  0.00  0.00    +0.059 C 
ATOM     20  C   UNL     1      32.230  -7.726 -21.876  0.00  0.00    +0.052 C 
ENDBRANCH  10  15
ENDBRANCH   5   9
BRANCH   2  21
ATOM     21  C   UNL     1      35.733 -18.763 -20.903  0.00  0.00    -0.047 C 
BRANCH  21  23
ATOM     22  O   UNL     1      34.154 -23.281 -16.875  0.00  0.00    -0.226 OA
ATOM     23  N   UNL     1      35.120 -20.039 -20.535  0.00  0.00    +0.392 N 
ATOM     24  N   UNL     1      33.935 -21.943 -18.762  0.00  0.00    -0.250 N 
ATOM     25  C   UNL     1      35.942 -20.737 -19.536  0.00  0.00    -0.055 C 
ATOM     26  C   UNL     1      33.757 -19.829 -20.025  0.00  0.00    -0.055 C 
ATOM     27  C   UNL     1      35.328 -22.089 -19.177  0.00  0.00    +0.074 C 
ATOM     28  C   UNL     1      33.095 -21.162 -19.672  0.00  0.00    +0.074 C 
ATOM     29  C   UNL     1      33.452 -22.624 -17.642  0.00  0.00    +0.405 C 
ATOM     30  H   UNL     1      35.066 -20.621 -21.370  0.00  0.00    -0.079 HD
BRANCH  29  31
ATOM     31  O   UNL     1      32.099 -22.486 -17.483  0.00  0.00    -0.430 OA
ATOM     32  C   UNL     1      31.567 -22.896 -16.218  0.00  0.00    +0.257 C 
ENDBRANCH  29  31
ENDBRANCH  21  23
ENDBRANCH   2  21
TORSDOF 5
ENDMDL
MODEL 3
REMARK VINA RESULT:     -11.2      3.842     11.216
REMARK  Name = 11689883
REMARK  5 active torsions:
REMARK  status: ('A' for Active; 'I' for Inactive)
REMARK    1  A    between atoms: C_2  and  C_21
REMARK    2  A    between atoms: C_5  and  N_9
REMARK    3  A    between atoms: N_10  and  C_15
REMARK    4  A    between atoms: C_21  and  N_23
REMARK    5  A    between atoms: C_29  and  O_31
REMARK                            x       y       z     vdW  Elec       q    Type
REMARK                         _______ _______ _______ _____ _____    ______ ____
ROOT
ATOM      1  F   UNL     1      37.111 -20.859 -18.288  0.00  0.00    -0.203 F 
ATOM      2  C   UNL     1      35.584 -22.194 -17.063  0.00  0.00    -0.014 C 
ATOM      3  C   UNL     1      35.915 -21.460 -18.193  0.00  0.00    +0.147 C 
ATOM      4  C   UNL     1      34.351 -22.822 -16.954  0.00  0.00    -0.004 C 
ATOM      5  C   UNL     1      34.993 -21.351 -19.236  0.00  0.00    +0.079 C 
ATOM      6  C   UNL     1      33.430 -22.712 -17.995  0.00  0.00    +0.001 C 
ATOM      7  C   UNL     1      33.750 -21.976 -19.136  0.00  0.00    +0.017 C 
ENDROOT
BRANCH   5   9
ATOM      8  O   UNL     1      33.573 -19.049 -20.502  0.00  0.00    -0.252 OA
ATOM      9  N   UNL     1      35.312 -20.615 -20.377  0.00  0.00    -0.266 N 
ATOM     10  N   UNL     1      35.280 -19.077 -22.100  0.00  0.00    -0.267 N 
ATOM     11  C   UNL     1      34.611 -19.525 -20.950  0.00  0.00    +0.308 C 
ATOM     12  H   UNL     1      36.132 -20.889 -20.848  0.00  0.00    +0.156 HD
ATOM     13  H   UNL     1      36.105 -19.560 -22.337  0.00  0.00    +0.156 HD
BRANCH  10  15
ATOM     14  N   UNL     1      33.779 -17.296 -24.948  0.00  0.00    -0.247 NA
ATOM     15  C   UNL     1      34.915 -18.015 -22.962  0.00  0.00    +0.071 C 
ATOM     16  C   UNL     1      35.313 -16.725 -22.682  0.00  0.00    +0.018 C 
ATOM     17  C   UNL     1      34.161 -18.262 -24.084  0.00  0.00    +0.113 C 
ATOM     18  C   UNL     1      34.939 -15.702 -23.548  0.00  0.00    +0.016 C 
ATOM     19  C   UNL     1      34.180 -16.038 -24.657  0.00  0.00    +0.059 C 
ATOM     20  C   UNL     1      33.761 -14.966 -25.608  0.00  0.00    +0.052 C 
ENDBRANCH  10  15
ENDBRANCH   5   9
BRANCH   2  21
ATOM     21  C   UNL     1      36.576 -22.316 -15.937  0.00  0.00    -0.047 C 
BRANCH  21  23
ATOM     22  O   UNL     1      37.742 -26.191 -11.167  0.00  0.00    -0.226 OA
ATOM     23  N   UNL     1      36.304 -23.480 -15.095  0.00  0.00    +0.392 N 
ATOM     24  N   UNL     1      36.429 -25.056 -12.712  0.00  0.00    -0.250 N 
ATOM     25  C   UNL     1      37.560 -24.137 -14.702  0.00  0.00    -0.055 C 
ATOM     26  C   UNL     1      35.534 -23.088 -13.905  0.00  0.00    -0.055 C 
ATOM     27  C   UNL     1      37.281 -25.377 -13.855  0.00  0.00    +0.074 C 
ATOM     28  C   UNL     1      35.214 -24.306 -13.036  0.00  0.00    +0.074 C 
ATOM     29  C   UNL     1      36.723 -25.560 -11.443  0.00  0.00    +0.405 C 
ATOM     30  H   UNL     1      35.749 -24.144 -15.634  0.00  0.00    -0.079 HD
BRANCH  29  31
ATOM     31  O   UNL     1      35.746 -25.279 -10.525  0.00  0.00    -0.430 OA
ATOM     32  C   UNL     1      35.908 -24.064  -9.784  0.00  0.00    +0.257 C 
ENDBRANCH  29  31
ENDBRANCH  21  23
ENDBRANCH   2  21
TORSDOF 5
ENDMDL
MODEL 4
REMARK VINA RESULT:     -10.8      2.497      4.046
REMARK  Name = 11689883
REMARK  5 active torsions:
REMARK  status: ('A' for Active; 'I' for Inactive)
REMARK    1  A    between atoms: C_2  and  C_21
REMARK    2  A    between atoms: C_5  and  N_9
REMARK    3  A    between atoms: N_10  and  C_15
REMARK    4  A    between atoms: C_21  and  N_23
REMARK    5  A    between atoms: C_29  and  O_31
REMARK                            x       y       z     vdW  Elec       q    Type
REMARK                         _______ _______ _______ _____ _____    ______ ____
ROOT
ATOM      1  F   UNL     1      37.541 -19.451 -20.293  0.00  0.00    -0.203 F 
ATOM      2  C   UNL     1      35.430 -19.323 -21.363  0.00  0.00    -0.014 C 
ATOM      3  C   UNL     1      36.233 -19.755 -20.317  0.00  0.00    +0.147 C 
ATOM      4  C   UNL     1      34.077 -19.631 -21.398  0.00  0.00    -0.004 C 
ATOM      5  C   UNL     1      35.674 -20.510 -19.286  0.00  0.00    +0.079 C 
ATOM      6  C   UNL     1      33.517 -20.385 -20.368  0.00  0.00    +0.001 C 
ATOM      7  C   UNL     1      34.315 -20.826 -19.311  0.00  0.00    +0.017 C 
ENDROOT
BRANCH   5   9
ATOM      8  O   UNL     1      35.110 -22.538 -17.167  0.00  0.00    -0.252 OA
ATOM      9  N   UNL     1      36.470 -20.951 -18.229  0.00  0.00    -0.266 N 
ATOM     10  N   UNL     1      37.253 -22.062 -16.361  0.00  0.00    -0.267 N 
ATOM     11  C   UNL     1      36.168 -21.919 -17.239  0.00  0.00    +0.308 C 
ATOM     12  H   UNL     1      37.360 -20.536 -18.161  0.00  0.00    +0.156 HD
ATOM     13  H   UNL     1      38.037 -21.495 -16.547  0.00  0.00    +0.156 HD
BRANCH  10  15
ATOM     14  N   UNL     1      38.626 -24.570 -14.046  0.00  0.00    -0.247 NA
ATOM     15  C   UNL     1      37.361 -22.919 -15.240  0.00  0.00    +0.071 C 
ATOM     16  C   UNL     1      36.361 -22.950 -14.291  0.00  0.00    +0.018 C 
ATOM     17  C   UNL     1      38.462 -23.728 -15.091  0.00  0.00    +0.113 C 
ATOM     18  C   UNL     1      36.495 -23.803 -13.200  0.00  0.00    +0.016 C 
ATOM     19  C   UNL     1      37.636 -24.586 -13.126  0.00  0.00    +0.059 C 
ATOM     20  C   UNL     1      37.812 -25.513 -11.970  0.00  0.00    +0.052 C 
ENDBRANCH  10  15
ENDBRANCH   5   9
BRANCH   2  21
ATOM     21  C   UNL     1      36.030 -18.508 -22.476  0.00  0.00    -0.047 C 
BRANCH  21  23
ATOM     22  O   UNL     1      32.694 -13.218 -22.636  0.00  0.00    -0.226 OA
ATOM     23  N   UNL     1      35.832 -17.073 -22.270  0.00  0.00    +0.392 N 
ATOM     24  N   UNL     1      34.312 -14.689 -21.848  0.00  0.00    -0.250 N 
ATOM     25  C   UNL     1      35.029 -16.501 -23.360  0.00  0.00    -0.055 C 
ATOM     26  C   UNL     1      35.191 -16.823 -20.970  0.00  0.00    -0.055 C 
ATOM     27  C   UNL     1      34.851 -14.995 -23.171  0.00  0.00    +0.074 C 
ATOM     28  C   UNL     1      35.013 -15.323 -20.729  0.00  0.00    +0.074 C 
ATOM     29  C   UNL     1      33.286 -13.753 -21.699  0.00  0.00    +0.405 C 
ATOM     30  H   UNL     1      36.746 -16.620 -22.271  0.00  0.00    -0.079 HD
BRANCH  29  31
ATOM     31  O   UNL     1      33.002 -13.486 -20.386  0.00  0.00    -0.430 OA
ATOM     32  C   UNL     1      31.971 -12.520 -20.148  0.00  0.00    +0.257 C 
ENDBRANCH  29  31
ENDBRANCH  21  23
ENDBRANCH   2  21
TORSDOF 5
ENDMDL
MODEL 5
REMARK VINA RESULT:     -10.7      2.860      4.409
REMARK  Name = 11689883
REMARK  5 active torsions:
REMARK  status: ('A' for Active; 'I' for Inactive)
REMARK    1  A    between atoms: C_2  and  C_21
REMARK    2  A    between atoms: C_5  and  N_9
REMARK    3  A    between atoms: N_10  and  C_15
REMARK    4  A    between atoms: C_21  and  N_23
REMARK    5  A    between atoms: C_29  and  O_31
REMARK                            x       y       z     vdW  Elec       q    Type
REMARK                         _______ _______ _______ _____ _____    ______ ____
ROOT
ATOM      1  F   UNL     1      37.470 -19.346 -20.096  0.00  0.00    -0.203 F 
ATOM      2  C   UNL     1      35.343 -19.255 -21.136  0.00  0.00    -0.014 C 
ATOM      3  C   UNL     1      36.186 -19.735 -20.144  0.00  0.00    +0.147 C 
ATOM      4  C   UNL     1      34.013 -19.648 -21.195  0.00  0.00    -0.004 C 
ATOM      5  C   UNL     1      35.690 -20.626 -19.192  0.00  0.00    +0.079 C 
ATOM      6  C   UNL     1      33.517 -20.540 -20.244  0.00  0.00    +0.001 C 
ATOM      7  C   UNL     1      34.356 -21.029 -19.242  0.00  0.00    +0.017 C 
ENDROOT
BRANCH   5   9
ATOM      8  O   UNL     1      35.120 -22.546 -16.977  0.00  0.00    -0.252 OA
ATOM      9  N   UNL     1      36.527 -21.117 -18.189  0.00  0.00    -0.266 N 
ATOM     10  N   UNL     1      37.356 -22.255 -16.358  0.00  0.00    -0.267 N 
ATOM     11  C   UNL     1      36.220 -22.031 -17.151  0.00  0.00    +0.308 C 
ATOM     12  H   UNL     1      37.454 -20.785 -18.204  0.00  0.00    +0.156 HD
ATOM     13  H   UNL     1      38.171 -21.768 -16.622  0.00  0.00    +0.156 HD
BRANCH  10  15
ATOM     14  N   UNL     1      36.603 -23.801 -13.105  0.00  0.00    -0.247 NA
ATOM     15  C   UNL     1      37.476 -23.094 -15.225  0.00  0.00    +0.071 C 
ATOM     16  C   UNL     1      38.526 -23.983 -15.127  0.00  0.00    +0.018 C 
ATOM     17  C   UNL     1      36.547 -23.030 -14.214  0.00  0.00    +0.113 C 
ATOM     18  C   UNL     1      38.617 -24.795 -14.001  0.00  0.00    +0.016 C 
ATOM     19  C   UNL     1      37.640 -24.665 -13.028  0.00  0.00    +0.059 C 
ATOM     20  C   UNL     1      37.706 -25.521 -11.806  0.00  0.00    +0.052 C 
ENDBRANCH  10  15
ENDBRANCH   5   9
BRANCH   2  21
ATOM     21  C   UNL     1      35.874 -18.292 -22.164  0.00  0.00    -0.047 C 
BRANCH  21  23
ATOM     22  O   UNL     1      34.149 -12.458 -23.621  0.00  0.00    -0.226 OA
ATOM     23  N   UNL     1      34.897 -17.256 -22.497  0.00  0.00    +0.392 N 
ATOM     24  N   UNL     1      34.007 -14.778 -23.610  0.00  0.00    -0.250 N 
ATOM     25  C   UNL     1      35.258 -15.982 -21.859  0.00  0.00    -0.055 C 
ATOM     26  C   UNL     1      34.795 -17.092 -23.955  0.00  0.00    -0.055 C 
ATOM     27  C   UNL     1      34.220 -14.905 -22.171  0.00  0.00    +0.074 C 
ATOM     28  C   UNL     1      33.748 -16.036 -24.314  0.00  0.00    +0.074 C 
ATOM     29  C   UNL     1      33.933 -13.518 -24.209  0.00  0.00    +0.405 C 
ATOM     30  H   UNL     1      33.987 -17.548 -22.141  0.00  0.00    -0.079 HD
BRANCH  29  31
ATOM     31  O   UNL     1      33.589 -13.581 -25.533  0.00  0.00    -0.430 OA
ATOM     32  C   UNL     1      33.221 -12.342 -26.149  0.00  0.00    +0.257 C 
ENDBRANCH  29  31
ENDBRANCH  21  23
ENDBRANCH   2  21
TORSDOF 5
ENDMDL
MODEL 6
REMARK VINA RESULT:     -10.1      2.741      4.092
REMARK  Name = 11689883
REMARK  5 active torsions:
REMARK  status: ('A' for Active; 'I' for Inactive)
REMARK    1  A    between atoms: C_2  and  C_21
REMARK    2  A    between atoms: C_5  and  N_9
REMARK    3  A    between atoms: N_10  and  C_15
REMARK    4  A    between atoms: C_21  and  N_23
REMARK    5  A    between atoms: C_29  and  O_31
REMARK                            x       y       z     vdW  Elec       q    Type
REMARK                         _______ _______ _______ _____ _____    ______ ____
ROOT
ATOM      1  F   UNL     1      33.810 -20.420 -20.765  0.00  0.00    -0.203 F 
ATOM      2  C   UNL     1      35.364 -18.998 -21.851  0.00  0.00    -0.014 C 
ATOM      3  C   UNL     1      35.043 -19.893 -20.840  0.00  0.00    +0.147 C 
ATOM      4  C   UNL     1      36.636 -18.447 -21.939  0.00  0.00    -0.004 C 
ATOM      5  C   UNL     1      36.010 -20.243 -19.898  0.00  0.00    +0.079 C 
ATOM      6  C   UNL     1      37.603 -18.797 -20.997  0.00  0.00    +0.001 C 
ATOM      7  C   UNL     1      37.291 -19.695 -19.977  0.00  0.00    +0.017 C 
ENDROOT
BRANCH   5   9
ATOM      8  O   UNL     1      37.243 -20.591 -17.201  0.00  0.00    -0.252 OA
ATOM      9  N   UNL     1      35.700 -21.142 -18.877  0.00  0.00    -0.266 N 
ATOM     10  N   UNL     1      35.688 -22.309 -16.884  0.00  0.00    -0.267 N 
ATOM     11  C   UNL     1      36.310 -21.278 -17.605  0.00  0.00    +0.308 C 
ATOM     12  H   UNL     1      34.961 -21.764 -19.064  0.00  0.00    +0.156 HD
ATOM     13  H   UNL     1      34.950 -22.772 -17.341  0.00  0.00    +0.156 HD
BRANCH  10  15
ATOM     14  N   UNL     1      37.659 -23.387 -13.970  0.00  0.00    -0.247 NA
ATOM     15  C   UNL     1      35.992 -22.766 -15.579  0.00  0.00    +0.071 C 
ATOM     16  C   UNL     1      34.980 -23.027 -14.681  0.00  0.00    +0.018 C 
ATOM     17  C   UNL     1      37.300 -22.952 -15.198  0.00  0.00    +0.113 C 
ATOM     18  C   UNL     1      35.310 -23.475 -13.406  0.00  0.00    +0.016 C 
ATOM     19  C   UNL     1      36.652 -23.638 -13.104  0.00  0.00    +0.059 C 
ATOM     20  C   UNL     1      37.043 -24.117 -11.745  0.00  0.00    +0.052 C 
ENDBRANCH  10  15
ENDBRANCH   5   9
BRANCH   2  21
ATOM     21  C   UNL     1      34.323 -18.617 -22.869  0.00  0.00    -0.047 C 
BRANCH  21  23
ATOM     22  O   UNL     1      32.722 -13.201 -25.558  0.00  0.00    -0.226 OA
ATOM     23  N   UNL     1      34.609 -17.321 -23.483  0.00  0.00    +0.392 N 
ATOM     24  N   UNL     1      34.036 -14.639 -24.290  0.00  0.00    -0.250 N 
ATOM     25  C   UNL     1      33.682 -17.061 -24.594  0.00  0.00    -0.055 C 
ATOM     26  C   UNL     1      34.529 -16.247 -22.482  0.00  0.00    -0.055 C 
ATOM     27  C   UNL     1      34.001 -15.726 -25.265  0.00  0.00    +0.074 C 
ATOM     28  C   UNL     1      34.862 -14.891 -23.108  0.00  0.00    +0.074 C 
ATOM     29  C   UNL     1      33.417 -13.417 -24.566  0.00  0.00    +0.405 C 
ATOM     30  H   UNL     1      35.559 -17.345 -23.855  0.00  0.00    -0.079 HD
BRANCH  29  31
ATOM     31  O   UNL     1      33.668 -12.470 -23.609  0.00  0.00    -0.430 OA
ATOM     32  C   UNL     1      34.106 -11.192 -24.085  0.00  0.00    +0.257 C 
ENDBRANCH  29  31
ENDBRANCH  21  23
ENDBRANCH   2  21
TORSDOF 5
ENDMDL
MODEL 7
REMARK VINA RESULT:      -9.9      2.191     10.255
REMARK  Name = 11689883
REMARK  5 active torsions:
REMARK  status: ('A' for Active; 'I' for Inactive)
REMARK    1  A    between atoms: C_2  and  C_21
REMARK    2  A    between atoms: C_5  and  N_9
REMARK    3  A    between atoms: N_10  and  C_15
REMARK    4  A    between atoms: C_21  and  N_23
REMARK    5  A    between atoms: C_29  and  O_31
REMARK                            x       y       z     vdW  Elec       q    Type
REMARK                         _______ _______ _______ _____ _____    ______ ____
ROOT
ATOM      1  F   UNL     1      34.823 -14.998 -20.649  0.00  0.00    -0.203 F 
ATOM      2  C   UNL     1      35.341 -16.638 -22.278  0.00  0.00    -0.014 C 
ATOM      3  C   UNL     1      34.700 -15.467 -21.900  0.00  0.00    +0.147 C 
ATOM      4  C   UNL     1      35.223 -17.133 -23.570  0.00  0.00    -0.004 C 
ATOM      5  C   UNL     1      33.925 -14.776 -22.832  0.00  0.00    +0.079 C 
ATOM      6  C   UNL     1      34.448 -16.442 -24.501  0.00  0.00    +0.001 C 
ATOM      7  C   UNL     1      33.799 -15.264 -24.133  0.00  0.00    +0.017 C 
ENDROOT
BRANCH   5   9
ATOM      8  O   UNL     1      34.492 -11.946 -23.597  0.00  0.00    -0.252 OA
ATOM      9  N   UNL     1      33.274 -13.598 -22.466  0.00  0.00    -0.266 N 
ATOM     10  N   UNL     1      32.666 -11.380 -22.251  0.00  0.00    -0.267 N 
ATOM     11  C   UNL     1      33.573 -12.267 -22.850  0.00  0.00    +0.308 C 
ATOM     12  H   UNL     1      32.506 -13.704 -21.859  0.00  0.00    +0.156 HD
ATOM     13  H   UNL     1      31.979 -11.788 -21.674  0.00  0.00    +0.156 HD
BRANCH  10  15
ATOM     14  N   UNL     1      31.483  -7.917 -21.871  0.00  0.00    -0.247 NA
ATOM     15  C   UNL     1      32.615  -9.971 -22.374  0.00  0.00    +0.071 C 
ATOM     16  C   UNL     1      33.591  -9.299 -23.079  0.00  0.00    +0.018 C 
ATOM     17  C   UNL     1      31.592  -9.262 -21.791  0.00  0.00    +0.113 C 
ATOM     18  C   UNL     1      33.514  -7.914 -23.183  0.00  0.00    +0.016 C 
ATOM     19  C   UNL     1      32.449  -7.277 -22.567  0.00  0.00    +0.059 C 
ATOM     20  C   UNL     1      32.335  -5.791 -22.658  0.00  0.00    +0.052 C 
ENDBRANCH  10  15
ENDBRANCH   5   9
BRANCH   2  21
ATOM     21  C   UNL     1      36.179 -17.386 -21.276  0.00  0.00    -0.047 C 
BRANCH  21  23
ATOM     22  O   UNL     1      35.034 -22.477 -17.826  0.00  0.00    -0.226 OA
ATOM     23  N   UNL     1      35.694 -18.750 -21.069  0.00  0.00    +0.392 N 
ATOM     24  N   UNL     1      34.693 -20.955 -19.549  0.00  0.00    -0.250 N 
ATOM     25  C   UNL     1      36.575 -19.477 -20.144  0.00  0.00    -0.055 C 
ATOM     26  C   UNL     1      34.314 -18.735 -20.561  0.00  0.00    -0.055 C 
ATOM     27  C   UNL     1      36.096 -20.915 -19.954  0.00  0.00    +0.074 C 
ATOM     28  C   UNL     1      33.784 -20.159 -20.376  0.00  0.00    +0.074 C 
ATOM     29  C   UNL     1      34.274 -21.806 -18.523  0.00  0.00    +0.405 C 
ATOM     30  H   UNL     1      35.702 -19.233 -21.967  0.00  0.00    -0.079 HD
BRANCH  29  31
ATOM     31  O   UNL     1      32.913 -21.820 -18.372  0.00  0.00    -0.430 OA
ATOM     32  C   UNL     1      32.414 -22.504 -17.216  0.00  0.00    +0.257 C 
ENDBRANCH  29  31
ENDBRANCH  21  23
ENDBRANCH   2  21
TORSDOF 5
ENDMDL
MODEL 8
REMARK VINA RESULT:      -9.8      2.975     10.299
REMARK  Name = 11689883
REMARK  5 active torsions:
REMARK  status: ('A' for Active; 'I' for Inactive)
REMARK    1  A    between atoms: C_2  and  C_21
REMARK    2  A    between atoms: C_5  and  N_9
REMARK    3  A    between atoms: N_10  and  C_15
REMARK    4  A    between atoms: C_21  and  N_23
REMARK    5  A    between atoms: C_29  and  O_31
REMARK                            x       y       z     vdW  Elec       q    Type
REMARK                         _______ _______ _______ _____ _____    ______ ____
ROOT
ATOM      1  F   UNL     1      33.168 -20.517 -20.533  0.00  0.00    -0.203 F 
ATOM      2  C   UNL     1      34.776 -21.472 -19.078  0.00  0.00    -0.014 C 
ATOM      3  C   UNL     1      34.427 -20.568 -20.071  0.00  0.00    +0.147 C 
ATOM      4  C   UNL     1      36.075 -21.533 -18.593  0.00  0.00    -0.004 C 
ATOM      5  C   UNL     1      35.396 -19.709 -20.591  0.00  0.00    +0.079 C 
ATOM      6  C   UNL     1      37.044 -20.675 -19.112  0.00  0.00    +0.001 C 
ATOM      7  C   UNL     1      36.705 -19.762 -20.111  0.00  0.00    +0.017 C 
ENDROOT
BRANCH   5   9
ATOM      8  O   UNL     1      35.134 -16.736 -20.474  0.00  0.00    -0.252 OA
ATOM      9  N   UNL     1      35.059 -18.796 -21.590  0.00  0.00    -0.266 N 
ATOM     10  N   UNL     1      34.583 -16.852 -22.744  0.00  0.00    -0.267 N 
ATOM     11  C   UNL     1      34.944 -17.386 -21.497  0.00  0.00    +0.308 C 
ATOM     12  H   UNL     1      34.877 -19.180 -22.478  0.00  0.00    +0.156 HD
ATOM     13  H   UNL     1      34.466 -17.501 -23.475  0.00  0.00    +0.156 HD
BRANCH  10  15
ATOM     14  N   UNL     1      34.524 -13.185 -22.451  0.00  0.00    -0.247 NA
ATOM     15  C   UNL     1      34.367 -15.495 -23.080  0.00  0.00    +0.071 C 
ATOM     16  C   UNL     1      33.814 -15.160 -24.298  0.00  0.00    +0.018 C 
ATOM     17  C   UNL     1      34.705 -14.500 -22.194  0.00  0.00    +0.113 C 
ATOM     18  C   UNL     1      33.614 -13.817 -24.600  0.00  0.00    +0.016 C 
ATOM     19  C   UNL     1      33.982 -12.877 -23.650  0.00  0.00    +0.059 C 
ATOM     20  C   UNL     1      33.780 -11.427 -23.941  0.00  0.00    +0.052 C 
ENDBRANCH  10  15
ENDBRANCH   5   9
BRANCH   2  21
ATOM     21  C   UNL     1      33.734 -22.400 -18.515  0.00  0.00    -0.047 C 
BRANCH  21  23
ATOM     22  O   UNL     1      32.623 -24.777 -12.836  0.00  0.00    -0.226 OA
ATOM     23  N   UNL     1      33.685 -22.343 -17.054  0.00  0.00    +0.392 N 
ATOM     24  N   UNL     1      33.670 -23.421 -14.406  0.00  0.00    -0.250 N 
ATOM     25  C   UNL     1      32.504 -23.059 -16.549  0.00  0.00    -0.055 C 
ATOM     26  C   UNL     1      34.915 -22.904 -16.475  0.00  0.00    -0.055 C 
ATOM     27  C   UNL     1      32.427 -22.970 -15.026  0.00  0.00    +0.074 C 
ATOM     28  C   UNL     1      34.889 -22.816 -14.948  0.00  0.00    +0.074 C 
ATOM     29  C   UNL     1      33.644 -24.267 -13.295  0.00  0.00    +0.405 C 
ATOM     30  H   UNL     1      33.613 -21.366 -16.774  0.00  0.00    -0.079 HD
BRANCH  29  31
ATOM     31  O   UNL     1      34.888 -24.472 -12.759  0.00  0.00    -0.430 OA
ATOM     32  C   UNL     1      35.126 -23.884 -11.475  0.00  0.00    +0.257 C 
ENDBRANCH  29  31
ENDBRANCH  21  23
ENDBRANCH   2  21
TORSDOF 5
ENDMDL
MODEL 9
REMARK VINA RESULT:      -9.7      4.649     12.963
REMARK  Name = 11689883
REMARK  5 active torsions:
REMARK  status: ('A' for Active; 'I' for Inactive)
REMARK    1  A    between atoms: C_2  and  C_21
REMARK    2  A    between atoms: C_5  and  N_9
REMARK    3  A    between atoms: N_10  and  C_15
REMARK    4  A    between atoms: C_21  and  N_23
REMARK    5  A    between atoms: C_29  and  O_31
REMARK                            x       y       z     vdW  Elec       q    Type
REMARK                         _______ _______ _______ _____ _____    ______ ____
ROOT
ATOM      1  F   UNL     1      32.759  -9.942 -23.088  0.00  0.00    -0.203 F 
ATOM      2  C   UNL     1      31.984 -10.974 -21.100  0.00  0.00    -0.014 C 
ATOM      3  C   UNL     1      32.406  -9.850 -21.796  0.00  0.00    +0.147 C 
ATOM      4  C   UNL     1      31.615 -10.890 -19.764  0.00  0.00    -0.004 C 
ATOM      5  C   UNL     1      32.462  -8.618 -21.143  0.00  0.00    +0.079 C 
ATOM      6  C   UNL     1      31.672  -9.659 -19.112  0.00  0.00    +0.001 C 
ATOM      7  C   UNL     1      32.095  -8.523 -19.801  0.00  0.00    +0.017 C 
ENDROOT
BRANCH   5   9
ATOM      8  O   UNL     1      31.129  -7.081 -23.329  0.00  0.00    -0.252 OA
ATOM      9  N   UNL     1      32.886  -7.480 -21.830  0.00  0.00    -0.266 N 
ATOM     10  N   UNL     1      33.004  -5.684 -23.278  0.00  0.00    -0.267 N 
ATOM     11  C   UNL     1      32.223  -6.775 -22.866  0.00  0.00    +0.308 C 
ATOM     12  H   UNL     1      33.761  -7.118 -21.561  0.00  0.00    +0.156 HD
ATOM     13  H   UNL     1      33.863  -5.566 -22.811  0.00  0.00    +0.156 HD
BRANCH  10  15
ATOM     14  N   UNL     1      31.497  -2.770 -24.943  0.00  0.00    -0.247 NA
ATOM     15  C   UNL     1      32.709  -4.732 -24.282  0.00  0.00    +0.071 C 
ATOM     16  C   UNL     1      33.306  -4.821 -25.522  0.00  0.00    +0.018 C 
ATOM     17  C   UNL     1      31.824  -3.711 -24.029  0.00  0.00    +0.113 C 
ATOM     18  C   UNL     1      32.996  -3.871 -26.489  0.00  0.00    +0.016 C 
ATOM     19  C   UNL     1      32.093  -2.875 -26.152  0.00  0.00    +0.059 C 
ATOM     20  C   UNL     1      31.736  -1.838 -27.165  0.00  0.00    +0.052 C 
ENDBRANCH  10  15
ENDBRANCH   5   9
BRANCH   2  21
ATOM     21  C   UNL     1      31.921 -12.304 -21.801  0.00  0.00    -0.047 C 
BRANCH  21  23
ATOM     22  O   UNL     1      35.435 -17.254 -20.291  0.00  0.00    -0.226 OA
ATOM     23  N   UNL     1      33.183 -13.036 -21.697  0.00  0.00    +0.392 N 
ATOM     24  N   UNL     1      34.837 -15.359 -21.496  0.00  0.00    -0.250 N 
ATOM     25  C   UNL     1      33.228 -13.811 -20.448  0.00  0.00    -0.055 C 
ATOM     26  C   UNL     1      33.366 -13.918 -22.859  0.00  0.00    -0.055 C 
ATOM     27  C   UNL     1      34.561 -14.547 -20.314  0.00  0.00    +0.074 C 
ATOM     28  C   UNL     1      34.701 -14.660 -22.776  0.00  0.00    +0.074 C 
ATOM     29  C   UNL     1      35.319 -16.664 -21.364  0.00  0.00    +0.405 C 
ATOM     30  H   UNL     1      33.946 -12.359 -21.682  0.00  0.00    -0.079 HD
BRANCH  29  31
ATOM     31  O   UNL     1      35.657 -17.226 -22.567  0.00  0.00    -0.430 OA
ATOM     32  C   UNL     1      35.227 -18.576 -22.775  0.00  0.00    +0.257 C 
ENDBRANCH  29  31
ENDBRANCH  21  23
ENDBRANCH   2  21
TORSDOF 5
ENDMDL
