MODEL 1
REMARK VINA RESULT:     -11.5      0.000      0.000
REMARK  Name = 5243
REMARK  7 active torsions:
REMARK  status: ('A' for Active; 'I' for Inactive)
REMARK    1  A    between atoms: C_1  and  C_3
REMARK    2  A    between atoms: C_1  and  C_8
REMARK    3  A    between atoms: C_1  and  C_19
REMARK    4  A    between atoms: C_13  and  O_14
REMARK    5  A    between atoms: O_14  and  S_15
REMARK    6  A    between atoms: C_24  and  O_25
REMARK    7  A    between atoms: O_25  and  S_26
REMARK                            x       y       z     vdW  Elec       q    Type
REMARK                         _______ _______ _______ _____ _____    ______ ____
ROOT
ATOM      1  C   UNL     1      34.839 -23.066 -15.064  0.00  0.00    +0.085 C 
ENDROOT
BRANCH   1   3
ATOM      2  N   UNL     1      33.449 -24.405 -13.603  0.00  0.00    -0.248 NA
ATOM      3  C   UNL     1      33.449 -23.618 -14.675  0.00  0.00    +0.067 C 
ATOM      4  C   UNL     1      32.391 -23.254 -15.448  0.00  0.00    +0.015 C 
ATOM      5  C   UNL     1      31.155 -23.768 -15.070  0.00  0.00    +0.003 C 
ATOM      6  C   UNL     1      32.231 -24.887 -13.267  0.00  0.00    +0.098 C 
ATOM      7  C   UNL     1      31.065 -24.601 -13.961  0.00  0.00    +0.021 C 
ENDBRANCH   1   3
BRANCH   1   8
ATOM      8  C   UNL     1      34.966 -22.571 -16.466  0.00  0.00    -0.013 C 
ATOM      9  C   UNL     1      36.142 -21.950 -16.883  0.00  0.00    -0.000 C 
ATOM     10  C   UNL     1      33.906 -22.730 -17.359  0.00  0.00    -0.000 C 
ATOM     11  C   UNL     1      36.260 -21.487 -18.192  0.00  0.00    +0.040 C 
ATOM     12  C   UNL     1      34.024 -22.267 -18.670  0.00  0.00    +0.040 C 
ATOM     13  C   UNL     1      35.201 -21.645 -19.087  0.00  0.00    +0.176 C 
BRANCH  13  14
ATOM     14  O   UNL     1      35.316 -21.193 -20.365  0.00  0.00    -0.322 OA
BRANCH  14  15
ATOM     15  S   UNL     1      34.763 -19.688 -20.731  0.00  0.00    +0.282 S 
ATOM     16  O   UNL     1      34.900 -19.606 -22.355  0.00  0.00    -0.105 OA
ATOM     17  O   UNL     1      33.353 -19.610 -20.397  0.00  0.00    -0.012 OA
ATOM     18  O   UNL     1      35.695 -18.728 -20.168  0.00  0.00    -0.105 OA
ENDBRANCH  14  15
ENDBRANCH  13  14
ENDBRANCH   1   8
BRANCH   1  19
ATOM     19  C   UNL     1      35.992 -23.969 -14.569  0.00  0.00    -0.013 C 
ATOM     20  C   UNL     1      36.928 -23.416 -13.737  0.00  0.00    -0.000 C 
ATOM     21  C   UNL     1      36.016 -25.270 -14.990  0.00  0.00    -0.000 C 
ATOM     22  C   UNL     1      37.970 -24.230 -13.291  0.00  0.00    +0.040 C 
ATOM     23  C   UNL     1      37.058 -26.084 -14.544  0.00  0.00    +0.040 C 
ATOM     24  C   UNL     1      38.035 -25.564 -13.694  0.00  0.00    +0.176 C 
BRANCH  24  25
ATOM     25  O   UNL     1      39.051 -26.357 -13.259  0.00  0.00    -0.322 OA
BRANCH  25  26
ATOM     26  S   UNL     1      40.561 -26.124 -13.868  0.00  0.00    +0.282 S 
ATOM     27  O   UNL     1      40.950 -24.617 -13.376  0.00  0.00    -0.105 OA
ATOM     28  O   UNL     1      41.476 -27.052 -13.230  0.00  0.00    -0.012 OA
ATOM     29  O   UNL     1      40.452 -26.094 -15.314  0.00  0.00    -0.105 OA
ENDBRANCH  25  26
ENDBRANCH  24  25
ENDBRANCH   1  19
TORSDOF 7
ENDMDL
MODEL 2
REMARK VINA RESULT:     -11.5      2.067      7.489
REMARK  Name = 5243
REMARK  7 active torsions:
REMARK  status: ('A' for Active; 'I' for Inactive)
REMARK    1  A    between atoms: C_1  and  C_3
REMARK    2  A    between atoms: C_1  and  C_8
REMARK    3  A    between atoms: C_1  and  C_19
REMARK    4  A    between atoms: C_13  and  O_14
REMARK    5  A    between atoms: O_14  and  S_15
REMARK    6  A    between atoms: C_24  and  O_25
REMARK    7  A    between atoms: O_25  and  S_26
REMARK                            x       y       z     vdW  Elec       q    Type
REMARK                         _______ _______ _______ _____ _____    ______ ____
ROOT
ATOM      1  C   UNL     1      33.842 -23.265 -16.687  0.00  0.00    +0.085 C 
ENDROOT
BRANCH   1   3
ATOM      2  N   UNL     1      31.437 -23.039 -16.844  0.00  0.00    -0.248 NA
ATOM      3  C   UNL     1      32.470 -23.051 -16.009  0.00  0.00    +0.067 C 
ATOM      4  C   UNL     1      32.458 -22.898 -14.657  0.00  0.00    +0.015 C 
ATOM      5  C   UNL     1      31.208 -22.707 -14.078  0.00  0.00    +0.003 C 
ATOM      6  C   UNL     1      30.239 -22.849 -16.246  0.00  0.00    +0.098 C 
ATOM      7  C   UNL     1      30.073 -22.680 -14.880  0.00  0.00    +0.021 C 
ENDBRANCH   1   3
BRANCH   1   8
ATOM      8  C   UNL     1      34.997 -23.449 -15.762  0.00  0.00    -0.013 C 
ATOM      9  C   UNL     1      35.161 -24.655 -15.081  0.00  0.00    -0.000 C 
ATOM     10  C   UNL     1      35.913 -22.413 -15.577  0.00  0.00    -0.000 C 
ATOM     11  C   UNL     1      36.241 -24.825 -14.216  0.00  0.00    +0.040 C 
ATOM     12  C   UNL     1      36.994 -22.584 -14.711  0.00  0.00    +0.040 C 
ATOM     13  C   UNL     1      37.158 -23.791 -14.030  0.00  0.00    +0.176 C 
BRANCH  13  14
ATOM     14  O   UNL     1      38.211 -23.958 -13.185  0.00  0.00    -0.322 OA
BRANCH  14  15
ATOM     15  S   UNL     1      37.969 -23.789 -11.567  0.00  0.00    +0.282 S 
ATOM     16  O   UNL     1      36.625 -22.868 -11.467  0.00  0.00    -0.105 OA
ATOM     17  O   UNL     1      37.663 -25.088 -10.998  0.00  0.00    -0.012 OA
ATOM     18  O   UNL     1      39.071 -23.006 -11.037  0.00  0.00    -0.105 OA
ENDBRANCH  14  15
ENDBRANCH  13  14
ENDBRANCH   1   8
BRANCH   1  19
ATOM     19  C   UNL     1      34.078 -22.288 -17.862  0.00  0.00    -0.013 C 
ATOM     20  C   UNL     1      35.361 -22.115 -18.305  0.00  0.00    -0.000 C 
ATOM     21  C   UNL     1      32.992 -21.649 -18.395  0.00  0.00    -0.000 C 
ATOM     22  C   UNL     1      35.575 -21.233 -19.365  0.00  0.00    +0.040 C 
ATOM     23  C   UNL     1      33.206 -20.767 -19.454  0.00  0.00    +0.040 C 
ATOM     24  C   UNL     1      34.497 -20.559 -19.940  0.00  0.00    +0.176 C 
BRANCH  24  25
ATOM     25  O   UNL     1      34.706 -19.698 -20.973  0.00  0.00    -0.322 OA
BRANCH  25  26
ATOM     26  S   UNL     1      35.910 -18.584 -20.851  0.00  0.00    +0.282 S 
ATOM     27  O   UNL     1      35.152 -17.251 -20.293  0.00  0.00    -0.105 OA
ATOM     28  O   UNL     1      36.854 -19.018 -19.837  0.00  0.00    -0.012 OA
ATOM     29  O   UNL     1      36.375 -18.290 -22.193  0.00  0.00    -0.105 OA
ENDBRANCH  25  26
ENDBRANCH  24  25
ENDBRANCH   1  19
TORSDOF 7
ENDMDL
MODEL 3
REMARK VINA RESULT:     -11.0      4.097      6.994
REMARK  Name = 5243
REMARK  7 active torsions:
REMARK  status: ('A' for Active; 'I' for Inactive)
REMARK    1  A    between atoms: C_1  and  C_3
REMARK    2  A    between atoms: C_1  and  C_8
REMARK    3  A    between atoms: C_1  and  C_19
REMARK    4  A    between atoms: C_13  and  O_14
REMARK    5  A    between atoms: O_14  and  S_15
REMARK    6  A    between atoms: C_24  and  O_25
REMARK    7  A    between atoms: O_25  and  S_26
REMARK                            x       y       z     vdW  Elec       q    Type
REMARK                         _______ _______ _______ _____ _____    ______ ____
ROOT
ATOM      1  C   UNL     1      34.544 -22.854 -15.207  0.00  0.00    +0.085 C 
ENDROOT
BRANCH   1   3
ATOM      2  N   UNL     1      35.353 -25.135 -15.290  0.00  0.00    -0.248 NA
ATOM      3  C   UNL     1      35.446 -23.976 -14.645  0.00  0.00    +0.067 C 
ATOM      4  C   UNL     1      36.225 -23.674 -13.572  0.00  0.00    +0.015 C 
ATOM      5  C   UNL     1      37.024 -24.706 -13.090  0.00  0.00    +0.003 C 
ATOM      6  C   UNL     1      36.143 -26.113 -14.793  0.00  0.00    +0.098 C 
ATOM      7  C   UNL     1      36.988 -25.951 -13.707  0.00  0.00    +0.021 C 
ENDBRANCH   1   3
BRANCH   1   8
ATOM      8  C   UNL     1      33.076 -23.079 -15.073  0.00  0.00    -0.013 C 
ATOM      9  C   UNL     1      32.466 -22.979 -13.823  0.00  0.00    -0.000 C 
ATOM     10  C   UNL     1      32.313 -23.390 -16.199  0.00  0.00    -0.000 C 
ATOM     11  C   UNL     1      31.094 -23.190 -13.698  0.00  0.00    +0.040 C 
ATOM     12  C   UNL     1      30.939 -23.601 -16.073  0.00  0.00    +0.040 C 
ATOM     13  C   UNL     1      30.330 -23.501 -14.822  0.00  0.00    +0.176 C 
BRANCH  13  14
ATOM     14  O   UNL     1      28.990 -23.707 -14.700  0.00  0.00    -0.322 OA
BRANCH  14  15
ATOM     15  S   UNL     1      27.975 -23.029 -15.802  0.00  0.00    +0.282 S 
ATOM     16  O   UNL     1      27.709 -24.228 -16.877  0.00  0.00    -0.105 OA
ATOM     17  O   UNL     1      26.714 -22.722 -15.155  0.00  0.00    -0.012 OA
ATOM     18  O   UNL     1      28.710 -21.984 -16.491  0.00  0.00    -0.105 OA
ENDBRANCH  14  15
ENDBRANCH  13  14
ENDBRANCH   1   8
BRANCH   1  19
ATOM     19  C   UNL     1      35.018 -22.356 -16.592  0.00  0.00    -0.013 C 
ATOM     20  C   UNL     1      36.282 -21.840 -16.691  0.00  0.00    -0.000 C 
ATOM     21  C   UNL     1      34.148 -22.455 -17.643  0.00  0.00    -0.000 C 
ATOM     22  C   UNL     1      36.709 -21.390 -17.940  0.00  0.00    +0.040 C 
ATOM     23  C   UNL     1      34.575 -22.004 -18.892  0.00  0.00    +0.040 C 
ATOM     24  C   UNL     1      35.856 -21.472 -19.041  0.00  0.00    +0.176 C 
BRANCH  24  25
ATOM     25  O   UNL     1      36.273 -21.031 -20.259  0.00  0.00    -0.322 OA
BRANCH  25  26
ATOM     26  S   UNL     1      36.133 -19.433 -20.619  0.00  0.00    +0.282 S 
ATOM     27  O   UNL     1      35.776 -19.421 -22.212  0.00  0.00    -0.105 OA
ATOM     28  O   UNL     1      34.996 -18.885 -19.903  0.00  0.00    -0.012 OA
ATOM     29  O   UNL     1      37.444 -18.830 -20.464  0.00  0.00    -0.105 OA
ENDBRANCH  25  26
ENDBRANCH  24  25
ENDBRANCH   1  19
TORSDOF 7
ENDMDL
MODEL 4
REMARK VINA RESULT:     -10.7      4.201      5.794
REMARK  Name = 5243
REMARK  7 active torsions:
REMARK  status: ('A' for Active; 'I' for Inactive)
REMARK    1  A    between atoms: C_1  and  C_3
REMARK    2  A    between atoms: C_1  and  C_8
REMARK    3  A    between atoms: C_1  and  C_19
REMARK    4  A    between atoms: C_13  and  O_14
REMARK    5  A    between atoms: O_14  and  S_15
REMARK    6  A    between atoms: C_24  and  O_25
REMARK    7  A    between atoms: O_25  and  S_26
REMARK                            x       y       z     vdW  Elec       q    Type
REMARK                         _______ _______ _______ _____ _____    ______ ____
ROOT
ATOM      1  C   UNL     1      34.080 -23.242 -16.740  0.00  0.00    +0.085 C 
ENDROOT
BRANCH   1   3
ATOM      2  N   UNL     1      35.785 -22.161 -18.075  0.00  0.00    -0.248 NA
ATOM      3  C   UNL     1      34.476 -22.283 -17.885  0.00  0.00    +0.067 C 
ATOM      4  C   UNL     1      33.469 -21.673 -18.566  0.00  0.00    +0.015 C 
ATOM      5  C   UNL     1      33.858 -20.816 -19.590  0.00  0.00    +0.003 C 
ATOM      6  C   UNL     1      36.126 -21.319 -19.077  0.00  0.00    +0.098 C 
ATOM      7  C   UNL     1      35.210 -20.630 -19.857  0.00  0.00    +0.021 C 
ENDBRANCH   1   3
BRANCH   1   8
ATOM      8  C   UNL     1      32.727 -23.022 -16.153  0.00  0.00    -0.013 C 
ATOM      9  C   UNL     1      32.549 -23.077 -14.771  0.00  0.00    -0.000 C 
ATOM     10  C   UNL     1      31.640 -22.762 -16.987  0.00  0.00    -0.000 C 
ATOM     11  C   UNL     1      31.283 -22.872 -14.223  0.00  0.00    +0.040 C 
ATOM     12  C   UNL     1      30.373 -22.556 -16.438  0.00  0.00    +0.040 C 
ATOM     13  C   UNL     1      30.195 -22.611 -15.055  0.00  0.00    +0.176 C 
BRANCH  13  14
ATOM     14  O   UNL     1      28.961 -22.412 -14.520  0.00  0.00    -0.322 OA
BRANCH  14  15
ATOM     15  S   UNL     1      27.635 -22.637 -15.467  0.00  0.00    +0.282 S 
ATOM     16  O   UNL     1      26.384 -22.296 -14.476  0.00  0.00    -0.105 OA
ATOM     17  O   UNL     1      27.643 -21.651 -16.531  0.00  0.00    -0.012 OA
ATOM     18  O   UNL     1      27.560 -24.051 -15.789  0.00  0.00    -0.105 OA
ENDBRANCH  14  15
ENDBRANCH  13  14
ENDBRANCH   1   8
BRANCH   1  19
ATOM     19  C   UNL     1      35.224 -23.446 -15.720  0.00  0.00    -0.013 C 
ATOM     20  C   UNL     1      35.270 -24.630 -15.034  0.00  0.00    -0.000 C 
ATOM     21  C   UNL     1      36.129 -22.433 -15.557  0.00  0.00    -0.000 C 
ATOM     22  C   UNL     1      36.301 -24.814 -14.113  0.00  0.00    +0.040 C 
ATOM     23  C   UNL     1      37.160 -22.617 -14.636  0.00  0.00    +0.040 C 
ATOM     24  C   UNL     1      37.247 -23.808 -13.914  0.00  0.00    +0.176 C 
BRANCH  24  25
ATOM     25  O   UNL     1      38.253 -23.988 -13.015  0.00  0.00    -0.322 OA
BRANCH  25  26
ATOM     26  S   UNL     1      37.988 -23.608 -11.437  0.00  0.00    +0.282 S 
ATOM     27  O   UNL     1      36.713 -22.591 -11.489  0.00  0.00    -0.105 OA
ATOM     28  O   UNL     1      37.575 -24.805 -10.727  0.00  0.00    -0.012 OA
ATOM     29  O   UNL     1      39.132 -22.848 -10.969  0.00  0.00    -0.105 OA
ENDBRANCH  25  26
ENDBRANCH  24  25
ENDBRANCH   1  19
TORSDOF 7
ENDMDL
MODEL 5
REMARK VINA RESULT:     -10.5      3.525      8.171
REMARK  Name = 5243
REMARK  7 active torsions:
REMARK  status: ('A' for Active; 'I' for Inactive)
REMARK    1  A    between atoms: C_1  and  C_3
REMARK    2  A    between atoms: C_1  and  C_8
REMARK    3  A    between atoms: C_1  and  C_19
REMARK    4  A    between atoms: C_13  and  O_14
REMARK    5  A    between atoms: O_14  and  S_15
REMARK    6  A    between atoms: C_24  and  O_25
REMARK    7  A    between atoms: O_25  and  S_26
REMARK                            x       y       z     vdW  Elec       q    Type
REMARK                         _______ _______ _______ _____ _____    ______ ____
ROOT
ATOM      1  C   UNL     1      35.052 -22.692 -15.580  0.00  0.00    +0.085 C 
ENDROOT
BRANCH   1   3
ATOM      2  N   UNL     1      34.304 -22.445 -17.869  0.00  0.00    -0.248 NA
ATOM      3  C   UNL     1      35.302 -22.206 -17.025  0.00  0.00    +0.067 C 
ATOM      4  C   UNL     1      36.491 -21.597 -17.283  0.00  0.00    +0.015 C 
ATOM      5  C   UNL     1      36.686 -21.172 -18.593  0.00  0.00    +0.003 C 
ATOM      6  C   UNL     1      34.529 -22.019 -19.132  0.00  0.00    +0.098 C 
ATOM      7  C   UNL     1      35.691 -21.383 -19.541  0.00  0.00    +0.021 C 
ENDBRANCH   1   3
BRANCH   1   8
ATOM      8  C   UNL     1      36.067 -23.637 -15.033  0.00  0.00    -0.013 C 
ATOM      9  C   UNL     1      37.261 -23.149 -14.504  0.00  0.00    -0.000 C 
ATOM     10  C   UNL     1      35.821 -25.011 -15.051  0.00  0.00    -0.000 C 
ATOM     11  C   UNL     1      38.211 -24.034 -13.993  0.00  0.00    +0.040 C 
ATOM     12  C   UNL     1      36.771 -25.896 -14.539  0.00  0.00    +0.040 C 
ATOM     13  C   UNL     1      37.966 -25.407 -14.010  0.00  0.00    +0.176 C 
BRANCH  13  14
ATOM     14  O   UNL     1      38.893 -26.270 -13.512  0.00  0.00    -0.322 OA
BRANCH  14  15
ATOM     15  S   UNL     1      40.468 -26.086 -13.948  0.00  0.00    +0.282 S 
ATOM     16  O   UNL     1      40.843 -24.582 -13.437  0.00  0.00    -0.105 OA
ATOM     17  O   UNL     1      41.278 -27.027 -13.198  0.00  0.00    -0.012 OA
ATOM     18  O   UNL     1      40.524 -26.077 -15.399  0.00  0.00    -0.105 OA
ENDBRANCH  14  15
ENDBRANCH  13  14
ENDBRANCH   1   8
BRANCH   1  19
ATOM     19  C   UNL     1      33.576 -23.086 -15.338  0.00  0.00    -0.013 C 
ATOM     20  C   UNL     1      32.828 -23.469 -16.418  0.00  0.00    -0.000 C 
ATOM     21  C   UNL     1      33.098 -23.030 -14.057  0.00  0.00    -0.000 C 
ATOM     22  C   UNL     1      31.497 -23.823 -16.200  0.00  0.00    +0.040 C 
ATOM     23  C   UNL     1      31.766 -23.384 -13.839  0.00  0.00    +0.040 C 
ATOM     24  C   UNL     1      30.965 -23.782 -14.911  0.00  0.00    +0.176 C 
BRANCH  24  25
ATOM     25  O   UNL     1      29.666 -24.127 -14.699  0.00  0.00    -0.322 OA
BRANCH  25  26
ATOM     26  S   UNL     1      28.502 -23.480 -15.664  0.00  0.00    +0.282 S 
ATOM     27  O   UNL     1      29.286 -22.311 -16.491  0.00  0.00    -0.105 OA
ATOM     28  O   UNL     1      28.066 -24.485 -16.616  0.00  0.00    -0.012 OA
ATOM     29  O   UNL     1      27.531 -22.828 -14.805  0.00  0.00    -0.105 OA
ENDBRANCH  25  26
ENDBRANCH  24  25
ENDBRANCH   1  19
TORSDOF 7
ENDMDL
