MODEL 1
REMARK VINA RESULT:     -12.4      0.000      0.000
REMARK  Name = 119057475
REMARK  5 active torsions:
REMARK  status: ('A' for Active; 'I' for Inactive)
REMARK    1  A    between atoms: N_1  and  C_22
REMARK    2  A    between atoms: C_2  and  N_8
REMARK    3  A    between atoms: N_8  and  C_11
REMARK    4  A    between atoms: C_11  and  C_16
REMARK    5  A    between atoms: C_22  and  C_26
REMARK                            x       y       z     vdW  Elec       q    Type
REMARK                         _______ _______ _______ _____ _____    ______ ____
ROOT
ATOM      1  N   UNL     1      36.008 -19.164 -21.624  0.00  0.00    +0.387 N 
ATOM      2  C   UNL     1      35.474 -20.640 -19.154  0.00  0.00    -0.066 C 
ATOM      3  C   UNL     1      34.627 -19.387 -21.174  0.00  0.00    -0.079 C 
ATOM      4  C   UNL     1      36.929 -19.064 -20.483  0.00  0.00    -0.079 C 
ATOM      5  C   UNL     1      34.517 -20.671 -20.347  0.00  0.00    -0.044 C 
ATOM      6  C   UNL     1      36.897 -20.337 -19.633  0.00  0.00    -0.044 C 
ATOM      7  H   UNL     1      36.289 -19.968 -22.185  0.00  0.00    -0.080 HD
ENDROOT
BRANCH   2   8
ATOM      8  N   UNL     1      35.424 -21.908 -18.431  0.00  0.00    +0.389 N 
ATOM      9  H   UNL     1      35.448 -21.722 -17.428  0.00  0.00    -0.084 HD
ATOM     10  H   UNL     1      36.228 -22.473 -18.705  0.00  0.00    -0.084 HD
BRANCH   8  11
ATOM     11  C   UNL     1      34.208 -22.640 -18.752  0.00  0.00    -0.032 C 
BRANCH  11  16
ATOM     12  O   UNL     1      33.408 -23.929 -14.138  0.00  0.00    -0.467 OA
ATOM     13  O   UNL     1      30.675 -23.101 -14.487  0.00  0.00    -0.453 OA
ATOM     14  N   UNL     1      32.031 -22.365 -17.696  0.00  0.00    -0.151 NA
ATOM     15  N   UNL     1      31.174 -22.477 -16.643  0.00  0.00    -0.107 NA
ATOM     16  C   UNL     1      33.306 -22.782 -17.555  0.00  0.00    +0.062 C 
ATOM     17  C   UNL     1      33.796 -23.314 -16.380  0.00  0.00    +0.056 C 
ATOM     18  C   UNL     1      32.926 -23.416 -15.308  0.00  0.00    +0.194 C 
ATOM     19  C   UNL     1      31.616 -23.004 -15.482  0.00  0.00    +0.278 C 
ATOM     20  C   UNL     1      32.518 -23.690 -13.043  0.00  0.00    +0.253 C 
ATOM     21  C   UNL     1      31.090 -23.993 -13.450  0.00  0.00    +0.254 C 
ENDBRANCH  11  16
ENDBRANCH   8  11
ENDBRANCH   2   8
BRANCH   1  22
ATOM     22  C   UNL     1      36.088 -17.962 -22.454  0.00  0.00    -0.071 C 
BRANCH  22  26
ATOM     23  F   UNL     1      35.189 -16.390 -19.715  0.00  0.00    -0.204 F 
ATOM     24  O   UNL     1      33.652 -15.272 -26.429  0.00  0.00    -0.270 OA
ATOM     25  N   UNL     1      34.154 -15.562 -24.189  0.00  0.00    -0.255 N 
ATOM     26  C   UNL     1      34.723 -17.305 -22.599  0.00  0.00    +0.025 C 
ATOM     27  C   UNL     1      34.372 -17.011 -24.087  0.00  0.00    +0.101 C 
ATOM     28  C   UNL     1      34.666 -15.935 -21.981  0.00  0.00    +0.018 C 
ATOM     29  C   UNL     1      34.334 -14.992 -22.937  0.00  0.00    +0.052 C 
ATOM     30  C   UNL     1      34.198 -13.640 -22.695  0.00  0.00    +0.014 C 
ATOM     31  C   UNL     1      34.874 -15.518 -20.680  0.00  0.00    +0.137 C 
ATOM     32  C   UNL     1      33.823 -14.819 -25.300  0.00  0.00    +0.253 C 
ATOM     33  C   UNL     1      34.410 -13.212 -21.388  0.00  0.00    +0.004 C 
ATOM     34  C   UNL     1      34.746 -14.149 -20.388  0.00  0.00    +0.029 C 
ATOM     35  C   UNL     1      33.845 -12.798 -23.834  0.00  0.00    +0.006 C 
ATOM     36  C   UNL     1      33.670 -13.343 -25.050  0.00  0.00    +0.058 C 
ENDBRANCH  22  26
ENDBRANCH   1  22
TORSDOF 5
ENDMDL
MODEL 2
REMARK VINA RESULT:     -12.2      2.832      4.516
REMARK  Name = 119057475
REMARK  5 active torsions:
REMARK  status: ('A' for Active; 'I' for Inactive)
REMARK    1  A    between atoms: N_1  and  C_22
REMARK    2  A    between atoms: C_2  and  N_8
REMARK    3  A    between atoms: N_8  and  C_11
REMARK    4  A    between atoms: C_11  and  C_16
REMARK    5  A    between atoms: C_22  and  C_26
REMARK                            x       y       z     vdW  Elec       q    Type
REMARK                         _______ _______ _______ _____ _____    ______ ____
ROOT
ATOM      1  N   UNL     1      34.520 -15.133 -21.670  0.00  0.00    +0.387 N 
ATOM      2  C   UNL     1      35.609 -17.842 -21.860  0.00  0.00    -0.066 C 
ATOM      3  C   UNL     1      35.121 -15.777 -20.494  0.00  0.00    -0.079 C 
ATOM      4  C   UNL     1      35.155 -15.594 -22.913  0.00  0.00    -0.079 C 
ATOM      5  C   UNL     1      34.987 -17.301 -20.571  0.00  0.00    -0.044 C 
ATOM      6  C   UNL     1      35.022 -17.111 -23.071  0.00  0.00    -0.044 C 
ATOM      7  H   UNL     1      33.535 -15.397 -21.703  0.00  0.00    -0.080 HD
ENDROOT
BRANCH   2   8
ATOM      8  N   UNL     1      35.389 -19.283 -21.962  0.00  0.00    +0.389 N 
ATOM      9  H   UNL     1      36.151 -19.771 -21.489  0.00  0.00    -0.084 HD
ATOM     10  H   UNL     1      35.361 -19.541 -22.948  0.00  0.00    -0.084 HD
BRANCH   8  11
ATOM     11  C   UNL     1      34.126 -19.659 -21.346  0.00  0.00    -0.032 C 
BRANCH  11  16
ATOM     12  O   UNL     1      32.405 -22.360 -17.694  0.00  0.00    -0.467 OA
ATOM     13  O   UNL     1      35.130 -22.920 -16.958  0.00  0.00    -0.453 OA
ATOM     14  N   UNL     1      35.601 -20.855 -19.819  0.00  0.00    -0.151 NA
ATOM     15  N   UNL     1      35.836 -21.658 -18.746  0.00  0.00    -0.107 NA
ATOM     16  C   UNL     1      34.328 -20.557 -20.154  0.00  0.00    +0.062 C 
ATOM     17  C   UNL     1      33.238 -21.041 -19.460  0.00  0.00    +0.056 C 
ATOM     18  C   UNL     1      33.481 -21.867 -18.376  0.00  0.00    +0.194 C 
ATOM     19  C   UNL     1      34.794 -22.140 -18.037  0.00  0.00    +0.278 C 
ATOM     20  C   UNL     1      32.774 -23.429 -16.816  0.00  0.00    +0.253 C 
ATOM     21  C   UNL     1      34.034 -23.072 -16.053  0.00  0.00    +0.254 C 
ENDBRANCH  11  16
ENDBRANCH   8  11
ENDBRANCH   2   8
BRANCH   1  22
ATOM     22  C   UNL     1      34.611 -13.677 -21.559  0.00  0.00    -0.071 C 
BRANCH  22  26
ATOM     23  F   UNL     1      31.624 -13.503 -20.206  0.00  0.00    -0.204 F 
ATOM     24  O   UNL     1      34.869  -9.417 -24.839  0.00  0.00    -0.270 OA
ATOM     25  N   UNL     1      33.752 -10.706 -23.276  0.00  0.00    -0.255 N 
ATOM     26  C   UNL     1      33.609 -12.995 -22.480  0.00  0.00    +0.025 C 
ATOM     27  C   UNL     1      34.307 -12.047 -23.501  0.00  0.00    +0.101 C 
ATOM     28  C   UNL     1      32.691 -12.055 -21.749  0.00  0.00    +0.018 C 
ATOM     29  C   UNL     1      32.817 -10.772 -22.253  0.00  0.00    +0.052 C 
ATOM     30  C   UNL     1      32.112  -9.676 -21.800  0.00  0.00    +0.014 C 
ATOM     31  C   UNL     1      31.793 -12.280 -20.723  0.00  0.00    +0.137 C 
ATOM     32  C   UNL     1      34.053  -9.531 -23.929  0.00  0.00    +0.253 C 
ATOM     33  C   UNL     1      31.208  -9.894 -20.765  0.00  0.00    +0.004 C 
ATOM     34  C   UNL     1      31.051 -11.191 -20.232  0.00  0.00    +0.029 C 
ATOM     35  C   UNL     1      32.386  -8.400 -22.455  0.00  0.00    +0.006 C 
ATOM     36  C   UNL     1      33.289  -8.328 -23.447  0.00  0.00    +0.058 C 
ENDBRANCH  22  26
ENDBRANCH   1  22
TORSDOF 5
ENDMDL
MODEL 3
REMARK VINA RESULT:     -12.1      2.424      2.833
REMARK  Name = 119057475
REMARK  5 active torsions:
REMARK  status: ('A' for Active; 'I' for Inactive)
REMARK    1  A    between atoms: N_1  and  C_22
REMARK    2  A    between atoms: C_2  and  N_8
REMARK    3  A    between atoms: N_8  and  C_11
REMARK    4  A    between atoms: C_11  and  C_16
REMARK    5  A    between atoms: C_22  and  C_26
REMARK                            x       y       z     vdW  Elec       q    Type
REMARK                         _______ _______ _______ _____ _____    ______ ____
ROOT
ATOM      1  N   UNL     1      36.193 -19.069 -21.716  0.00  0.00    +0.387 N 
ATOM      2  C   UNL     1      35.802 -20.380 -19.129  0.00  0.00    -0.066 C 
ATOM      3  C   UNL     1      34.838 -19.346 -21.219  0.00  0.00    -0.079 C 
ATOM      4  C   UNL     1      37.126 -18.821 -20.607  0.00  0.00    -0.079 C 
ATOM      5  C   UNL     1      34.828 -20.567 -20.294  0.00  0.00    -0.044 C 
ATOM      6  C   UNL     1      37.193 -20.024 -19.662  0.00  0.00    -0.044 C 
ATOM      7  H   UNL     1      36.517 -19.894 -22.220  0.00  0.00    -0.080 HD
ENDROOT
BRANCH   2   8
ATOM      8  N   UNL     1      35.849 -21.590 -18.311  0.00  0.00    +0.389 N 
ATOM      9  H   UNL     1      36.132 -22.377 -18.895  0.00  0.00    -0.084 HD
ATOM     10  H   UNL     1      34.923 -21.755 -17.916  0.00  0.00    -0.084 HD
BRANCH   8  11
ATOM     11  C   UNL     1      36.801 -21.440 -17.220  0.00  0.00    -0.032 C 
BRANCH  11  16
ATOM     12  O   UNL     1      38.578 -24.185 -13.629  0.00  0.00    -0.467 OA
ATOM     13  O   UNL     1      36.043 -25.544 -13.550  0.00  0.00    -0.453 OA
ATOM     14  N   UNL     1      35.463 -23.157 -16.126  0.00  0.00    -0.151 NA
ATOM     15  N   UNL     1      35.286 -24.157 -15.221  0.00  0.00    -0.107 NA
ATOM     16  C   UNL     1      36.658 -22.534 -16.197  0.00  0.00    +0.062 C 
ATOM     17  C   UNL     1      37.721 -22.859 -15.379  0.00  0.00    +0.056 C 
ATOM     18  C   UNL     1      37.534 -23.869 -14.450  0.00  0.00    +0.194 C 
ATOM     19  C   UNL     1      36.307 -24.509 -14.412  0.00  0.00    +0.278 C 
ATOM     20  C   UNL     1      38.164 -25.004 -12.530  0.00  0.00    +0.253 C 
ATOM     21  C   UNL     1      37.243 -26.107 -13.014  0.00  0.00    +0.254 C 
ENDBRANCH  11  16
ENDBRANCH   8  11
ENDBRANCH   2   8
BRANCH   1  22
ATOM     22  C   UNL     1      36.179 -17.933 -22.636  0.00  0.00    -0.071 C 
BRANCH  22  26
ATOM     23  F   UNL     1      35.282 -16.500 -19.821  0.00  0.00    -0.204 F 
ATOM     24  O   UNL     1      33.565 -15.182 -26.455  0.00  0.00    -0.270 OA
ATOM     25  N   UNL     1      34.125 -15.539 -24.238  0.00  0.00    -0.255 N 
ATOM     26  C   UNL     1      34.788 -17.321 -22.728  0.00  0.00    +0.025 C 
ATOM     27  C   UNL     1      34.396 -16.982 -24.197  0.00  0.00    +0.101 C 
ATOM     28  C   UNL     1      34.696 -15.978 -22.057  0.00  0.00    +0.018 C 
ATOM     29  C   UNL     1      34.310 -15.011 -22.969  0.00  0.00    +0.052 C 
ATOM     30  C   UNL     1      34.131 -13.676 -22.671  0.00  0.00    +0.014 C 
ATOM     31  C   UNL     1      34.917 -15.604 -20.745  0.00  0.00    +0.137 C 
ATOM     32  C   UNL     1      33.744 -14.767 -25.313  0.00  0.00    +0.253 C 
ATOM     33  C   UNL     1      34.356 -13.290 -21.353  0.00  0.00    +0.004 C 
ATOM     34  C   UNL     1      34.746 -14.253 -20.397  0.00  0.00    +0.029 C 
ATOM     35  C   UNL     1      33.725 -12.804 -23.770  0.00  0.00    +0.006 C 
ATOM     36  C   UNL     1      33.544 -13.308 -25.002  0.00  0.00    +0.058 C 
ENDBRANCH  22  26
ENDBRANCH   1  22
TORSDOF 5
ENDMDL
MODEL 4
REMARK VINA RESULT:     -12.1      2.661     10.778
REMARK  Name = 119057475
REMARK  5 active torsions:
REMARK  status: ('A' for Active; 'I' for Inactive)
REMARK    1  A    between atoms: N_1  and  C_22
REMARK    2  A    between atoms: C_2  and  N_8
REMARK    3  A    between atoms: N_8  and  C_11
REMARK    4  A    between atoms: C_11  and  C_16
REMARK    5  A    between atoms: C_22  and  C_26
REMARK                            x       y       z     vdW  Elec       q    Type
REMARK                         _______ _______ _______ _____ _____    ______ ____
ROOT
ATOM      1  N   UNL     1      35.646 -21.019 -20.086  0.00  0.00    +0.387 N 
ATOM      2  C   UNL     1      35.524 -18.187 -20.815  0.00  0.00    -0.066 C 
ATOM      3  C   UNL     1      36.717 -20.099 -19.678  0.00  0.00    -0.079 C 
ATOM      4  C   UNL     1      34.352 -20.327 -20.169  0.00  0.00    -0.079 C 
ATOM      5  C   UNL     1      36.851 -18.935 -20.664  0.00  0.00    -0.044 C 
ATOM      6  C   UNL     1      34.406 -19.171 -21.172  0.00  0.00    -0.044 C 
ATOM      7  H   UNL     1      35.874 -21.371 -21.016  0.00  0.00    -0.080 HD
ENDROOT
BRANCH   2   8
ATOM      8  N   UNL     1      35.645 -17.141 -21.828  0.00  0.00    +0.389 N 
ATOM      9  H   UNL     1      36.630 -17.017 -22.063  0.00  0.00    -0.084 HD
ATOM     10  H   UNL     1      35.257 -16.276 -21.452  0.00  0.00    -0.084 HD
BRANCH   8  11
ATOM     11  C   UNL     1      34.908 -17.499 -23.031  0.00  0.00    -0.032 C 
BRANCH  11  16
ATOM     12  O   UNL     1      34.028 -12.738 -23.423  0.00  0.00    -0.467 OA
ATOM     13  O   UNL     1      33.445 -13.179 -26.206  0.00  0.00    -0.453 OA
ATOM     14  N   UNL     1      34.285 -16.473 -25.150  0.00  0.00    -0.151 NA
ATOM     15  N   UNL     1      33.932 -15.408 -25.921  0.00  0.00    -0.107 NA
ATOM     16  C   UNL     1      34.528 -16.286 -23.837  0.00  0.00    +0.062 C 
ATOM     17  C   UNL     1      34.446 -15.050 -23.228  0.00  0.00    +0.056 C 
ATOM     18  C   UNL     1      34.098 -13.966 -24.017  0.00  0.00    +0.194 C 
ATOM     19  C   UNL     1      33.830 -14.186 -25.357  0.00  0.00    +0.278 C 
ATOM     20  C   UNL     1      33.974 -11.681 -24.387  0.00  0.00    +0.253 C 
ATOM     21  C   UNL     1      32.993 -12.026 -25.491  0.00  0.00    +0.254 C 
ENDBRANCH  11  16
ENDBRANCH   8  11
ENDBRANCH   2   8
BRANCH   1  22
ATOM     22  C   UNL     1      35.563 -22.151 -19.164  0.00  0.00    -0.071 C 
BRANCH  22  26
ATOM     23  F   UNL     1      32.432 -21.855 -18.220  0.00  0.00    -0.204 F 
ATOM     24  O   UNL     1      38.246 -23.285 -14.637  0.00  0.00    -0.270 OA
ATOM     25  N   UNL     1      36.276 -22.856 -15.771  0.00  0.00    -0.255 N 
ATOM     26  C   UNL     1      35.447 -21.674 -17.723  0.00  0.00    +0.025 C 
ATOM     27  C   UNL     1      36.719 -22.015 -16.891  0.00  0.00    +0.101 C 
ATOM     28  C   UNL     1      34.366 -22.386 -16.958  0.00  0.00    +0.018 C 
ATOM     29  C   UNL     1      34.903 -23.033 -15.859  0.00  0.00    +0.052 C 
ATOM     30  C   UNL     1      34.176 -23.777 -14.951  0.00  0.00    +0.014 C 
ATOM     31  C   UNL     1      33.004 -22.469 -17.178  0.00  0.00    +0.137 C 
ATOM     32  C   UNL     1      37.031 -23.411 -14.762  0.00  0.00    +0.253 C 
ATOM     33  C   UNL     1      32.805 -23.868 -15.168  0.00  0.00    +0.004 C 
ATOM     34  C   UNL     1      32.225 -23.216 -16.277  0.00  0.00    +0.029 C 
ATOM     35  C   UNL     1      34.922 -24.390 -13.855  0.00  0.00    +0.006 C 
ATOM     36  C   UNL     1      36.252 -24.223 -13.764  0.00  0.00    +0.058 C 
ENDBRANCH  22  26
ENDBRANCH   1  22
TORSDOF 5
ENDMDL
MODEL 5
REMARK VINA RESULT:     -12.0      2.775      3.822
REMARK  Name = 119057475
REMARK  5 active torsions:
REMARK  status: ('A' for Active; 'I' for Inactive)
REMARK    1  A    between atoms: N_1  and  C_22
REMARK    2  A    between atoms: C_2  and  N_8
REMARK    3  A    between atoms: N_8  and  C_11
REMARK    4  A    between atoms: C_11  and  C_16
REMARK    5  A    between atoms: C_22  and  C_26
REMARK                            x       y       z     vdW  Elec       q    Type
REMARK                         _______ _______ _______ _____ _____    ______ ____
ROOT
ATOM      1  N   UNL     1      34.317 -19.967 -20.128  0.00  0.00    +0.387 N 
ATOM      2  C   UNL     1      34.977 -22.178 -18.328  0.00  0.00    -0.066 C 
ATOM      3  C   UNL     1      35.647 -20.592 -20.172  0.00  0.00    -0.079 C 
ATOM      4  C   UNL     1      33.287 -20.937 -19.732  0.00  0.00    -0.079 C 
ATOM      5  C   UNL     1      36.028 -21.176 -18.809  0.00  0.00    -0.044 C 
ATOM      6  C   UNL     1      33.588 -21.533 -18.354  0.00  0.00    -0.044 C 
ATOM      7  H   UNL     1      34.341 -19.229 -19.424  0.00  0.00    -0.080 HD
ENDROOT
BRANCH   2   8
ATOM      8  N   UNL     1      35.307 -22.654 -16.987  0.00  0.00    +0.389 N 
ATOM      9  H   UNL     1      35.734 -21.892 -16.458  0.00  0.00    -0.084 HD
ATOM     10  H   UNL     1      35.957 -23.436 -17.068  0.00  0.00    -0.084 HD
BRANCH   8  11
ATOM     11  C   UNL     1      34.114 -23.109 -16.290  0.00  0.00    -0.032 C 
BRANCH  11  16
ATOM     12  O   UNL     1      37.027 -23.039 -12.404  0.00  0.00    -0.467 OA
ATOM     13  O   UNL     1      34.869 -24.192 -10.891  0.00  0.00    -0.453 OA
ATOM     14  N   UNL     1      33.365 -23.877 -14.103  0.00  0.00    -0.151 NA
ATOM     15  N   UNL     1      33.558 -24.134 -12.780  0.00  0.00    -0.107 NA
ATOM     16  C   UNL     1      34.380 -23.368 -14.831  0.00  0.00    +0.062 C 
ATOM     17  C   UNL     1      35.619 -23.082 -14.294  0.00  0.00    +0.056 C 
ATOM     18  C   UNL     1      35.808 -23.333 -12.945  0.00  0.00    +0.194 C 
ATOM     19  C   UNL     1      34.761 -23.877 -12.223  0.00  0.00    +0.278 C 
ATOM     20  C   UNL     1      36.993 -23.046 -10.974  0.00  0.00    +0.253 C 
ATOM     21  C   UNL     1      36.234 -24.258 -10.472  0.00  0.00    +0.254 C 
ENDBRANCH  11  16
ENDBRANCH   8  11
ENDBRANCH   2   8
BRANCH   1  22
ATOM     22  C   UNL     1      33.988 -19.370 -21.422  0.00  0.00    -0.071 C 
BRANCH  22  26
ATOM     23  F   UNL     1      34.418 -19.289 -24.676  0.00  0.00    -0.204 F 
ATOM     24  O   UNL     1      35.149 -14.379 -19.771  0.00  0.00    -0.270 OA
ATOM     25  N   UNL     1      34.887 -15.948 -21.451  0.00  0.00    -0.255 N 
ATOM     26  C   UNL     1      35.033 -18.342 -21.831  0.00  0.00    +0.025 C 
ATOM     27  C   UNL     1      35.189 -17.213 -20.768  0.00  0.00    +0.101 C 
ATOM     28  C   UNL     1      34.642 -17.569 -23.061  0.00  0.00    +0.018 C 
ATOM     29  C   UNL     1      34.581 -16.216 -22.778  0.00  0.00    +0.052 C 
ATOM     30  C   UNL     1      34.252 -15.235 -23.691  0.00  0.00    +0.014 C 
ATOM     31  C   UNL     1      34.364 -17.992 -24.347  0.00  0.00    +0.137 C 
ATOM     32  C   UNL     1      34.886 -14.672 -20.935  0.00  0.00    +0.253 C 
ATOM     33  C   UNL     1      33.968 -15.654 -24.988  0.00  0.00    +0.004 C 
ATOM     34  C   UNL     1      34.025 -17.027 -25.310  0.00  0.00    +0.029 C 
ATOM     35  C   UNL     1      34.236 -13.859 -23.204  0.00  0.00    +0.006 C 
ATOM     36  C   UNL     1      34.531 -13.592 -21.920  0.00  0.00    +0.058 C 
ENDBRANCH  22  26
ENDBRANCH   1  22
TORSDOF 5
ENDMDL
MODEL 6
REMARK VINA RESULT:     -11.9      2.599     10.875
REMARK  Name = 119057475
REMARK  5 active torsions:
REMARK  status: ('A' for Active; 'I' for Inactive)
REMARK    1  A    between atoms: N_1  and  C_22
REMARK    2  A    between atoms: C_2  and  N_8
REMARK    3  A    between atoms: N_8  and  C_11
REMARK    4  A    between atoms: C_11  and  C_16
REMARK    5  A    between atoms: C_22  and  C_26
REMARK                            x       y       z     vdW  Elec       q    Type
REMARK                         _______ _______ _______ _____ _____    ______ ____
ROOT
ATOM      1  N   UNL     1      34.334 -22.302 -18.950  0.00  0.00    +0.387 N 
ATOM      2  C   UNL     1      34.640 -19.659 -20.169  0.00  0.00    -0.066 C 
ATOM      3  C   UNL     1      35.633 -21.616 -18.924  0.00  0.00    -0.079 C 
ATOM      4  C   UNL     1      33.224 -21.339 -18.928  0.00  0.00    -0.079 C 
ATOM      5  C   UNL     1      35.784 -20.673 -20.121  0.00  0.00    -0.044 C 
ATOM      6  C   UNL     1      33.293 -20.387 -20.125  0.00  0.00    -0.044 C 
ATOM      7  H   UNL     1      34.276 -22.829 -19.822  0.00  0.00    -0.080 HD
ENDROOT
BRANCH   2   8
ATOM      8  N   UNL     1      34.748 -18.830 -21.367  0.00  0.00    +0.389 N 
ATOM      9  H   UNL     1      33.839 -18.409 -21.564  0.00  0.00    -0.084 HD
ATOM     10  H   UNL     1      35.043 -19.418 -22.147  0.00  0.00    -0.084 HD
BRANCH   8  11
ATOM     11  C   UNL     1      35.732 -17.775 -21.180  0.00  0.00    -0.032 C 
BRANCH  11  16
ATOM     12  O   UNL     1      34.060 -14.604 -24.457  0.00  0.00    -0.467 OA
ATOM     13  O   UNL     1      33.764 -12.704 -22.317  0.00  0.00    -0.453 OA
ATOM     14  N   UNL     1      35.009 -15.535 -20.554  0.00  0.00    -0.151 NA
ATOM     15  N   UNL     1      34.521 -14.297 -20.842  0.00  0.00    -0.107 NA
ATOM     16  C   UNL     1      35.185 -16.424 -21.554  0.00  0.00    +0.062 C 
ATOM     17  C   UNL     1      34.882 -16.141 -22.870  0.00  0.00    +0.056 C 
ATOM     18  C   UNL     1      34.375 -14.885 -23.158  0.00  0.00    +0.194 C 
ATOM     19  C   UNL     1      34.225 -13.982 -22.121  0.00  0.00    +0.278 C 
ATOM     20  C   UNL     1      33.268 -13.418 -24.570  0.00  0.00    +0.253 C 
ATOM     21  C   UNL     1      33.836 -12.320 -23.693  0.00  0.00    +0.254 C 
ENDBRANCH  11  16
ENDBRANCH   8  11
ENDBRANCH   2   8
BRANCH   1  22
ATOM     22  C   UNL     1      34.225 -23.235 -17.830  0.00  0.00    -0.071 C 
BRANCH  22  26
ATOM     23  F   UNL     1      31.294 -22.939 -16.378  0.00  0.00    -0.204 F 
ATOM     24  O   UNL     1      37.750 -23.357 -13.763  0.00  0.00    -0.270 OA
ATOM     25  N   UNL     1      35.581 -23.254 -14.563  0.00  0.00    -0.255 N 
ATOM     26  C   UNL     1      34.322 -22.505 -16.498  0.00  0.00    +0.025 C 
ATOM     27  C   UNL     1      35.745 -22.615 -15.874  0.00  0.00    +0.101 C 
ATOM     28  C   UNL     1      33.459 -23.120 -15.431  0.00  0.00    +0.018 C 
ATOM     29  C   UNL     1      34.235 -23.520 -14.357  0.00  0.00    +0.052 C 
ATOM     30  C   UNL     1      33.747 -24.119 -13.214  0.00  0.00    +0.014 C 
ATOM     31  C   UNL     1      32.092 -23.316 -15.372  0.00  0.00    +0.137 C 
ATOM     32  C   UNL     1      36.547 -23.569 -13.633  0.00  0.00    +0.253 C 
ATOM     33  C   UNL     1      32.372 -24.323 -13.149  0.00  0.00    +0.004 C 
ATOM     34  C   UNL     1      31.552 -23.922 -14.225  0.00  0.00    +0.029 C 
ATOM     35  C   UNL     1      34.724 -24.475 -12.189  0.00  0.00    +0.006 C 
ATOM     36  C   UNL     1      36.030 -24.222 -12.380  0.00  0.00    +0.058 C 
ENDBRANCH  22  26
ENDBRANCH   1  22
TORSDOF 5
ENDMDL
MODEL 7
REMARK VINA RESULT:     -11.8      3.151     10.968
REMARK  Name = 119057475
REMARK  5 active torsions:
REMARK  status: ('A' for Active; 'I' for Inactive)
REMARK    1  A    between atoms: N_1  and  C_22
REMARK    2  A    between atoms: C_2  and  N_8
REMARK    3  A    between atoms: N_8  and  C_11
REMARK    4  A    between atoms: C_11  and  C_16
REMARK    5  A    between atoms: C_22  and  C_26
REMARK                            x       y       z     vdW  Elec       q    Type
REMARK                         _______ _______ _______ _____ _____    ______ ____
ROOT
ATOM      1  N   UNL     1      34.965 -21.584 -18.100  0.00  0.00    +0.387 N 
ATOM      2  C   UNL     1      34.978 -20.288 -20.724  0.00  0.00    -0.066 C 
ATOM      3  C   UNL     1      33.776 -21.637 -18.963  0.00  0.00    -0.079 C 
ATOM      4  C   UNL     1      36.198 -21.530 -18.898  0.00  0.00    -0.079 C 
ATOM      5  C   UNL     1      33.707 -20.415 -19.883  0.00  0.00    -0.044 C 
ATOM      6  C   UNL     1      36.211 -20.305 -19.815  0.00  0.00    -0.044 C 
ATOM      7  H   UNL     1      34.912 -20.730 -17.546  0.00  0.00    -0.080 HD
ENDROOT
BRANCH   2   8
ATOM      8  N   UNL     1      34.936 -19.067 -21.525  0.00  0.00    +0.389 N 
ATOM      9  H   UNL     1      33.967 -18.756 -21.608  0.00  0.00    -0.084 HD
ATOM     10  H   UNL     1      35.324 -19.266 -22.447  0.00  0.00    -0.084 HD
BRANCH   8  11
ATOM     11  C   UNL     1      35.724 -18.013 -20.905  0.00  0.00    -0.032 C 
BRANCH  11  16
ATOM     12  O   UNL     1      34.254 -14.718 -24.157  0.00  0.00    -0.467 OA
ATOM     13  O   UNL     1      33.864 -12.885 -21.973  0.00  0.00    -0.453 OA
ATOM     14  N   UNL     1      34.990 -15.786 -20.243  0.00  0.00    -0.151 NA
ATOM     15  N   UNL     1      34.529 -14.534 -20.514  0.00  0.00    -0.107 NA
ATOM     16  C   UNL     1      35.209 -16.644 -21.261  0.00  0.00    +0.062 C 
ATOM     17  C   UNL     1      34.977 -16.315 -22.582  0.00  0.00    +0.056 C 
ATOM     18  C   UNL     1      34.498 -15.045 -22.853  0.00  0.00    +0.194 C 
ATOM     19  C   UNL     1      34.302 -14.174 -21.795  0.00  0.00    +0.278 C 
ATOM     20  C   UNL     1      33.479 -13.520 -24.271  0.00  0.00    +0.253 C 
ATOM     21  C   UNL     1      34.011 -12.457 -23.329  0.00  0.00    +0.254 C 
ENDBRANCH  11  16
ENDBRANCH   8  11
ENDBRANCH   2   8
BRANCH   1  22
ATOM     22  C   UNL     1      34.991 -22.731 -17.194  0.00  0.00    -0.071 C 
BRANCH  22  26
ATOM     23  F   UNL     1      32.678 -22.437 -14.881  0.00  0.00    -0.204 F 
ATOM     24  O   UNL     1      39.416 -24.213 -14.510  0.00  0.00    -0.270 OA
ATOM     25  N   UNL     1      37.168 -23.672 -14.568  0.00  0.00    -0.255 N 
ATOM     26  C   UNL     1      35.582 -22.348 -15.844  0.00  0.00    +0.025 C 
ATOM     27  C   UNL     1      37.078 -22.768 -15.722  0.00  0.00    +0.101 C 
ATOM     28  C   UNL     1      34.950 -23.088 -14.698  0.00  0.00    +0.018 C 
ATOM     29  C   UNL     1      35.905 -23.817 -14.012  0.00  0.00    +0.052 C 
ATOM     30  C   UNL     1      35.651 -24.604 -12.907  0.00  0.00    +0.014 C 
ATOM     31  C   UNL     1      33.640 -23.130 -14.260  0.00  0.00    +0.137 C 
ATOM     32  C   UNL     1      38.278 -24.307 -14.058  0.00  0.00    +0.253 C 
ATOM     33  C   UNL     1      34.333 -24.654 -12.461  0.00  0.00    +0.004 C 
ATOM     34  C   UNL     1      33.336 -23.919 -13.137  0.00  0.00    +0.029 C 
ATOM     35  C   UNL     1      36.790 -25.302 -12.319  0.00  0.00    +0.006 C 
ATOM     36  C   UNL     1      38.016 -25.167 -12.853  0.00  0.00    +0.058 C 
ENDBRANCH  22  26
ENDBRANCH   1  22
TORSDOF 5
ENDMDL
MODEL 8
REMARK VINA RESULT:     -11.8      3.413      5.342
REMARK  Name = 119057475
REMARK  5 active torsions:
REMARK  status: ('A' for Active; 'I' for Inactive)
REMARK    1  A    between atoms: N_1  and  C_22
REMARK    2  A    between atoms: C_2  and  N_8
REMARK    3  A    between atoms: N_8  and  C_11
REMARK    4  A    between atoms: C_11  and  C_16
REMARK    5  A    between atoms: C_22  and  C_26
REMARK                            x       y       z     vdW  Elec       q    Type
REMARK                         _______ _______ _______ _____ _____    ______ ____
ROOT
ATOM      1  N   UNL     1      34.213 -14.111 -22.790  0.00  0.00    +0.387 N 
ATOM      2  C   UNL     1      34.981 -16.934 -22.838  0.00  0.00    -0.066 C 
ATOM      3  C   UNL     1      35.039 -14.676 -21.714  0.00  0.00    -0.079 C 
ATOM      4  C   UNL     1      34.465 -14.792 -24.068  0.00  0.00    -0.079 C 
ATOM      5  C   UNL     1      34.761 -16.170 -21.531  0.00  0.00    -0.044 C 
ATOM      6  C   UNL     1      34.167 -16.290 -23.964  0.00  0.00    -0.044 C 
ATOM      7  H   UNL     1      33.234 -14.258 -22.543  0.00  0.00    -0.080 HD
ENDROOT
BRANCH   2   8
ATOM      8  N   UNL     1      34.621 -18.340 -22.670  0.00  0.00    +0.389 N 
ATOM      9  H   UNL     1      34.665 -18.806 -23.577  0.00  0.00    -0.084 HD
ATOM     10  H   UNL     1      33.676 -18.393 -22.290  0.00  0.00    -0.084 HD
BRANCH   8  11
ATOM     11  C   UNL     1      35.533 -19.001 -21.749  0.00  0.00    -0.032 C 
BRANCH  11  16
ATOM     12  O   UNL     1      35.474 -22.169 -18.067  0.00  0.00    -0.467 OA
ATOM     13  O   UNL     1      32.600 -22.113 -18.198  0.00  0.00    -0.453 OA
ATOM     14  N   UNL     1      33.451 -19.815 -20.781  0.00  0.00    -0.151 NA
ATOM     15  N   UNL     1      32.741 -20.577 -19.904  0.00  0.00    -0.107 NA
ATOM     16  C   UNL     1      34.799 -19.859 -20.753  0.00  0.00    +0.062 C 
ATOM     17  C   UNL     1      35.505 -20.640 -19.860  0.00  0.00    +0.056 C 
ATOM     18  C   UNL     1      34.781 -21.404 -18.962  0.00  0.00    +0.194 C 
ATOM     19  C   UNL     1      33.399 -21.362 -19.024  0.00  0.00    +0.278 C 
ATOM     20  C   UNL     1      34.635 -22.651 -17.013  0.00  0.00    +0.253 C 
ATOM     21  C   UNL     1      33.329 -23.175 -17.579  0.00  0.00    +0.254 C 
ENDBRANCH  11  16
ENDBRANCH   8  11
ENDBRANCH   2   8
BRANCH   1  22
ATOM     22  C   UNL     1      34.452 -12.674 -22.919  0.00  0.00    -0.071 C 
BRANCH  22  26
ATOM     23  F   UNL     1      32.235 -13.687 -20.720  0.00  0.00    -0.204 F 
ATOM     24  O   UNL     1      33.220  -7.510 -23.813  0.00  0.00    -0.270 OA
ATOM     25  N   UNL     1      32.864  -9.519 -22.722  0.00  0.00    -0.255 N 
ATOM     26  C   UNL     1      33.142 -11.910 -23.041  0.00  0.00    +0.025 C 
ATOM     27  C   UNL     1      33.341 -10.510 -23.695  0.00  0.00    +0.101 C 
ATOM     28  C   UNL     1      32.547 -11.555 -21.706  0.00  0.00    +0.018 C 
ATOM     29  C   UNL     1      32.411 -10.183 -21.590  0.00  0.00    +0.052 C 
ATOM     30  C   UNL     1      31.896  -9.533 -20.487  0.00  0.00    +0.014 C 
ATOM     31  C   UNL     1      32.135 -12.354 -20.656  0.00  0.00    +0.137 C 
ATOM     32  C   UNL     1      32.834  -8.147 -22.836  0.00  0.00    +0.253 C 
ATOM     33  C   UNL     1      31.482 -10.331 -19.424  0.00  0.00    +0.004 C 
ATOM     34  C   UNL     1      31.603 -11.734 -19.513  0.00  0.00    +0.029 C 
ATOM     35  C   UNL     1      31.837  -8.076 -20.549  0.00  0.00    +0.006 C 
ATOM     36  C   UNL     1      32.273  -7.426 -21.641  0.00  0.00    +0.058 C 
ENDBRANCH  22  26
ENDBRANCH   1  22
TORSDOF 5
ENDMDL
MODEL 9
REMARK VINA RESULT:     -11.7      2.221     10.606
REMARK  Name = 119057475
REMARK  5 active torsions:
REMARK  status: ('A' for Active; 'I' for Inactive)
REMARK    1  A    between atoms: N_1  and  C_22
REMARK    2  A    between atoms: C_2  and  N_8
REMARK    3  A    between atoms: N_8  and  C_11
REMARK    4  A    between atoms: C_11  and  C_16
REMARK    5  A    between atoms: C_22  and  C_26
REMARK                            x       y       z     vdW  Elec       q    Type
REMARK                         _______ _______ _______ _____ _____    ______ ____
ROOT
ATOM      1  N   UNL     1      34.811 -21.640 -18.785  0.00  0.00    +0.387 N 
ATOM      2  C   UNL     1      34.407 -19.610 -20.854  0.00  0.00    -0.066 C 
ATOM      3  C   UNL     1      35.929 -20.794 -19.226  0.00  0.00    -0.079 C 
ATOM      4  C   UNL     1      33.531 -20.925 -18.887  0.00  0.00    -0.079 C 
ATOM      5  C   UNL     1      35.740 -20.341 -20.677  0.00  0.00    -0.044 C 
ATOM      6  C   UNL     1      33.261 -20.477 -20.326  0.00  0.00    -0.044 C 
ATOM      7  H   UNL     1      34.768 -22.450 -19.403  0.00  0.00    -0.080 HD
ENDROOT
BRANCH   2   8
ATOM      8  N   UNL     1      34.200 -19.269 -22.260  0.00  0.00    +0.389 N 
ATOM      9  H   UNL     1      33.310 -18.780 -22.357  0.00  0.00    -0.084 HD
ATOM     10  H   UNL     1      34.195 -20.129 -22.808  0.00  0.00    -0.084 HD
BRANCH   8  11
ATOM     11  C   UNL     1      35.271 -18.412 -22.747  0.00  0.00    -0.032 C 
BRANCH  11  16
ATOM     12  O   UNL     1      34.480 -13.624 -22.943  0.00  0.00    -0.467 OA
ATOM     13  O   UNL     1      33.183 -14.043 -25.477  0.00  0.00    -0.453 OA
ATOM     14  N   UNL     1      34.157 -17.365 -24.644  0.00  0.00    -0.151 NA
ATOM     15  N   UNL     1      33.653 -16.288 -25.307  0.00  0.00    -0.107 NA
ATOM     16  C   UNL     1      34.736 -17.186 -23.439  0.00  0.00    +0.062 C 
ATOM     17  C   UNL     1      34.855 -15.948 -22.841  0.00  0.00    +0.056 C 
ATOM     18  C   UNL     1      34.353 -14.853 -23.523  0.00  0.00    +0.194 C 
ATOM     19  C   UNL     1      33.741 -15.063 -24.747  0.00  0.00    +0.278 C 
ATOM     20  C   UNL     1      34.214 -12.565 -23.869  0.00  0.00    +0.253 C 
ATOM     21  C   UNL     1      32.971 -12.876 -24.680  0.00  0.00    +0.254 C 
ENDBRANCH  11  16
ENDBRANCH   8  11
ENDBRANCH   2   8
BRANCH   1  22
ATOM     22  C   UNL     1      35.030 -22.105 -17.416  0.00  0.00    -0.071 C 
BRANCH  22  26
ATOM     23  F   UNL     1      36.336 -24.138 -15.193  0.00  0.00    -0.204 F 
ATOM     24  O   UNL     1      29.717 -22.445 -16.614  0.00  0.00    -0.270 OA
ATOM     25  N   UNL     1      31.890 -23.018 -16.064  0.00  0.00    -0.255 N 
ATOM     26  C   UNL     1      34.088 -23.250 -17.070  0.00  0.00    +0.025 C 
ATOM     27  C   UNL     1      32.598 -22.883 -17.344  0.00  0.00    +0.101 C 
ATOM     28  C   UNL     1      34.072 -23.569 -15.601  0.00  0.00    +0.018 C 
ATOM     29  C   UNL     1      32.794 -23.423 -15.092  0.00  0.00    +0.052 C 
ATOM     30  C   UNL     1      32.441 -23.643 -13.776  0.00  0.00    +0.014 C 
ATOM     31  C   UNL     1      35.084 -23.972 -14.750  0.00  0.00    +0.137 C 
ATOM     32  C   UNL     1      30.558 -22.802 -15.792  0.00  0.00    +0.253 C 
ATOM     33  C   UNL     1      33.455 -24.045 -12.912  0.00  0.00    +0.004 C 
ATOM     34  C   UNL     1      34.769 -24.208 -13.401  0.00  0.00    +0.029 C 
ATOM     35  C   UNL     1      31.039 -23.431 -13.425  0.00  0.00    +0.006 C 
ATOM     36  C   UNL     1      30.159 -23.039 -14.362  0.00  0.00    +0.058 C 
ENDBRANCH  22  26
ENDBRANCH   1  22
TORSDOF 5
ENDMDL
