MODEL 1
REMARK VINA RESULT:     -12.7      0.000      0.000
REMARK  Name = 9808844
REMARK  5 active torsions:
REMARK  status: ('A' for Active; 'I' for Inactive)
REMARK    1  A    between atoms: N_2  and  C_13
REMARK    2  A    between atoms: C_8  and  O_19
REMARK    3  A    between atoms: O_19  and  C_20
REMARK    4  A    between atoms: C_20  and  C_22
REMARK    5  A    between atoms: C_25  and  C_29
REMARK                            x       y       z     vdW  Elec       q    Type
REMARK                         _______ _______ _______ _____ _____    ______ ____
ROOT
ATOM      1  O   UNL     1      35.453 -22.774 -16.778  0.00  0.00    -0.446 OA
ATOM      2  N   UNL     1      35.674 -19.673 -20.295  0.00  0.00    -0.296 N 
ATOM      3  N   UNL     1      33.639 -20.837 -19.832  0.00  0.00    -0.130 NA
ATOM      4  N   UNL     1      32.881 -21.747 -19.106  0.00  0.00    -0.106 NA
ATOM      5  C   UNL     1      35.518 -21.289 -18.479  0.00  0.00    +0.076 A 
ATOM      6  C   UNL     1      34.731 -22.191 -17.775  0.00  0.00    +0.202 A 
ATOM      7  C   UNL     1      34.938 -20.600 -19.538  0.00  0.00    +0.157 A 
ATOM      8  C   UNL     1      33.408 -22.434 -18.073  0.00  0.00    +0.279 A 
ATOM      9  C   UNL     1      36.798 -21.334 -17.865  0.00  0.00    +0.047 C 
ATOM     10  C   UNL     1      36.704 -22.248 -16.840  0.00  0.00    +0.180 C 
ATOM     11  H   UNL     1      36.608 -19.575 -19.999  0.00  0.00    +0.154 HD
ENDROOT
BRANCH   2  13
ATOM     12 CL   UNL     1      34.278 -16.234 -24.908  0.00  0.00    -0.082 Cl
ATOM     13  C   UNL     1      35.342 -18.853 -21.395  0.00  0.00    +0.049 C 
ATOM     14  C   UNL     1      35.560 -17.477 -21.330  0.00  0.00    +0.016 C 
ATOM     15  C   UNL     1      34.795 -19.419 -22.546  0.00  0.00    +0.016 C 
ATOM     16  C   UNL     1      35.232 -16.667 -22.416  0.00  0.00    +0.013 C 
ATOM     17  C   UNL     1      34.466 -18.610 -23.632  0.00  0.00    +0.013 C 
ATOM     18  C   UNL     1      34.685 -17.234 -23.568  0.00  0.00    +0.058 C 
ENDBRANCH   2  13
BRANCH   8  19
ATOM     19  O   UNL     1      32.624 -23.322 -17.384  0.00  0.00    -0.452 OA
BRANCH  19  20
ATOM     20  C   UNL     1      31.723 -22.774 -16.429  0.00  0.00    +0.234 C 
BRANCH  20  22
ATOM     21  N   UNL     1      32.267 -24.784 -12.682  0.00  0.00    -0.239 NA
ATOM     22  C   UNL     1      31.915 -23.477 -15.116  0.00  0.00    +0.024 C 
ATOM     23  C   UNL     1      33.126 -23.381 -14.453  0.00  0.00    +0.023 C 
ATOM     24  C   UNL     1      30.876 -24.221 -14.577  0.00  0.00    +0.020 C 
ATOM     25  C   UNL     1      33.251 -24.048 -13.245  0.00  0.00    +0.134 C 
ATOM     26  C   UNL     1      31.102 -24.851 -13.364  0.00  0.00    +0.099 C 
BRANCH  25  29
ATOM     27  O   UNL     1      34.620 -24.599 -11.422  0.00  0.00    -0.268 OA
ATOM     28  N   UNL     1      35.537 -23.235 -13.058  0.00  0.00    -0.298 N 
ATOM     29  C   UNL     1      34.496 -23.987 -12.499  0.00  0.00    +0.264 C 
ATOM     30  C   UNL     1      36.841 -23.097 -12.449  0.00  0.00    +0.111 C 
ATOM     31  H   UNL     1      35.372 -22.776 -13.913  0.00  0.00    +0.150 HD
ENDBRANCH  25  29
ENDBRANCH  20  22
ENDBRANCH  19  20
ENDBRANCH   8  19
TORSDOF 5
ENDMDL
MODEL 2
REMARK VINA RESULT:     -12.4      2.317      3.698
REMARK  Name = 9808844
REMARK  5 active torsions:
REMARK  status: ('A' for Active; 'I' for Inactive)
REMARK    1  A    between atoms: N_2  and  C_13
REMARK    2  A    between atoms: C_8  and  O_19
REMARK    3  A    between atoms: O_19  and  C_20
REMARK    4  A    between atoms: C_20  and  C_22
REMARK    5  A    between atoms: C_25  and  C_29
REMARK                            x       y       z     vdW  Elec       q    Type
REMARK                         _______ _______ _______ _____ _____    ______ ____
ROOT
ATOM      1  O   UNL     1      35.476 -22.253 -17.845  0.00  0.00    -0.446 OA
ATOM      2  N   UNL     1      35.495 -19.026 -21.255  0.00  0.00    -0.296 N 
ATOM      3  N   UNL     1      33.446 -20.032 -20.549  0.00  0.00    -0.130 NA
ATOM      4  N   UNL     1      32.714 -20.906 -19.753  0.00  0.00    -0.106 NA
ATOM      5  C   UNL     1      35.443 -20.704 -19.488  0.00  0.00    +0.076 A 
ATOM      6  C   UNL     1      34.681 -21.566 -18.711  0.00  0.00    +0.202 A 
ATOM      7  C   UNL     1      34.788 -19.921 -20.433  0.00  0.00    +0.157 A 
ATOM      8  C   UNL     1      33.313 -21.681 -18.828  0.00  0.00    +0.279 A 
ATOM      9  C   UNL     1      36.785 -20.886 -19.062  0.00  0.00    +0.047 C 
ATOM     10  C   UNL     1      36.750 -21.833 -18.065  0.00  0.00    +0.180 C 
ATOM     11  H   UNL     1      36.466 -19.022 -21.090  0.00  0.00    +0.154 HD
ENDROOT
BRANCH   2  13
ATOM     12 CL   UNL     1      33.799 -15.277 -25.511  0.00  0.00    -0.082 Cl
ATOM     13  C   UNL     1      35.091 -18.132 -22.269  0.00  0.00    +0.049 C 
ATOM     14  C   UNL     1      35.318 -16.764 -22.124  0.00  0.00    +0.016 C 
ATOM     15  C   UNL     1      34.465 -18.618 -23.417  0.00  0.00    +0.016 C 
ATOM     16  C   UNL     1      34.919 -15.881 -23.126  0.00  0.00    +0.013 C 
ATOM     17  C   UNL     1      34.066 -17.735 -24.420  0.00  0.00    +0.013 C 
ATOM     18  C   UNL     1      34.293 -16.367 -24.274  0.00  0.00    +0.058 C 
ENDBRANCH   2  13
BRANCH   8  19
ATOM     19  O   UNL     1      32.553 -22.529 -18.066  0.00  0.00    -0.452 OA
BRANCH  19  20
ATOM     20  C   UNL     1      33.036 -22.822 -16.760  0.00  0.00    +0.234 C 
BRANCH  20  22
ATOM     21  N   UNL     1      29.736 -23.943 -14.265  0.00  0.00    -0.239 NA
ATOM     22  C   UNL     1      31.880 -23.214 -15.887  0.00  0.00    +0.024 C 
ATOM     23  C   UNL     1      30.583 -23.016 -16.330  0.00  0.00    +0.023 C 
ATOM     24  C   UNL     1      32.117 -23.772 -14.640  0.00  0.00    +0.020 C 
ATOM     25  C   UNL     1      29.551 -23.395 -15.487  0.00  0.00    +0.134 C 
ATOM     26  C   UNL     1      31.017 -24.118 -13.872  0.00  0.00    +0.099 C 
BRANCH  25  29
ATOM     27  O   UNL     1      27.671 -23.930 -16.782  0.00  0.00    -0.268 OA
ATOM     28  N   UNL     1      27.433 -22.227 -15.227  0.00  0.00    -0.298 N 
ATOM     29  C   UNL     1      28.169 -23.215 -15.893  0.00  0.00    +0.264 C 
ATOM     30  C   UNL     1      26.042 -21.944 -15.501  0.00  0.00    +0.111 C 
ATOM     31  H   UNL     1      27.887 -21.697 -14.533  0.00  0.00    +0.150 HD
ENDBRANCH  25  29
ENDBRANCH  20  22
ENDBRANCH  19  20
ENDBRANCH   8  19
TORSDOF 5
ENDMDL
MODEL 3
REMARK VINA RESULT:     -11.6      6.177     11.137
REMARK  Name = 9808844
REMARK  5 active torsions:
REMARK  status: ('A' for Active; 'I' for Inactive)
REMARK    1  A    between atoms: N_2  and  C_13
REMARK    2  A    between atoms: C_8  and  O_19
REMARK    3  A    between atoms: O_19  and  C_20
REMARK    4  A    between atoms: C_20  and  C_22
REMARK    5  A    between atoms: C_25  and  C_29
REMARK                            x       y       z     vdW  Elec       q    Type
REMARK                         _______ _______ _______ _____ _____    ______ ____
ROOT
ATOM      1  O   UNL     1      34.471 -16.766 -24.221  0.00  0.00    -0.446 OA
ATOM      2  N   UNL     1      34.889 -20.123 -20.966  0.00  0.00    -0.296 N 
ATOM      3  N   UNL     1      35.259 -17.831 -20.398  0.00  0.00    -0.130 NA
ATOM      4  N   UNL     1      35.324 -16.480 -20.717  0.00  0.00    -0.106 NA
ATOM      5  C   UNL     1      34.682 -18.351 -22.626  0.00  0.00    +0.076 A 
ATOM      6  C   UNL     1      34.755 -16.994 -22.909  0.00  0.00    +0.202 A 
ATOM      7  C   UNL     1      34.945 -18.765 -21.325  0.00  0.00    +0.157 A 
ATOM      8  C   UNL     1      35.075 -16.040 -21.966  0.00  0.00    +0.279 A 
ATOM      9  C   UNL     1      34.330 -18.981 -23.848  0.00  0.00    +0.047 C 
ATOM     10  C   UNL     1      34.213 -17.977 -24.782  0.00  0.00    +0.180 C 
ATOM     11  H   UNL     1      34.652 -20.718 -21.713  0.00  0.00    +0.154 HD
ENDROOT
BRANCH   2  13
ATOM     12 CL   UNL     1      35.792 -22.974 -15.856  0.00  0.00    -0.082 Cl
ATOM     13  C   UNL     1      35.104 -20.802 -19.748  0.00  0.00    +0.049 C 
ATOM     14  C   UNL     1      36.376 -20.821 -19.175  0.00  0.00    +0.016 C 
ATOM     15  C   UNL     1      34.045 -21.455 -19.117  0.00  0.00    +0.016 C 
ATOM     16  C   UNL     1      36.588 -21.492 -17.972  0.00  0.00    +0.013 C 
ATOM     17  C   UNL     1      34.258 -22.126 -17.913  0.00  0.00    +0.013 C 
ATOM     18  C   UNL     1      35.529 -22.145 -17.341  0.00  0.00    +0.058 C 
ENDBRANCH   2  13
BRANCH   8  19
ATOM     19  O   UNL     1      35.151 -14.699 -22.236  0.00  0.00    -0.452 OA
BRANCH  19  20
ATOM     20  C   UNL     1      34.139 -14.157 -23.077  0.00  0.00    +0.234 C 
BRANCH  20  22
ATOM     21  N   UNL     1      31.965 -11.174 -20.899  0.00  0.00    -0.239 NA
ATOM     22  C   UNL     1      33.378 -13.112 -22.315  0.00  0.00    +0.024 C 
ATOM     23  C   UNL     1      33.298 -11.821 -22.809  0.00  0.00    +0.023 C 
ATOM     24  C   UNL     1      32.761 -13.446 -21.119  0.00  0.00    +0.020 C 
ATOM     25  C   UNL     1      32.583 -10.893 -22.068  0.00  0.00    +0.134 C 
ATOM     26  C   UNL     1      32.071 -12.446 -20.453  0.00  0.00    +0.099 C 
BRANCH  25  29
ATOM     27  O   UNL     1      33.330  -9.022 -23.268  0.00  0.00    -0.268 OA
ATOM     28  N   UNL     1      31.320  -8.815 -22.132  0.00  0.00    -0.298 N 
ATOM     29  C   UNL     1      32.460  -9.522 -22.531  0.00  0.00    +0.264 C 
ATOM     30  C   UNL     1      31.043  -7.453 -22.530  0.00  0.00    +0.111 C 
ATOM     31  H   UNL     1      30.670  -9.270 -21.550  0.00  0.00    +0.150 HD
ENDBRANCH  25  29
ENDBRANCH  20  22
ENDBRANCH  19  20
ENDBRANCH   8  19
TORSDOF 5
ENDMDL
MODEL 4
REMARK VINA RESULT:     -11.6      5.266      8.472
REMARK  Name = 9808844
REMARK  5 active torsions:
REMARK  status: ('A' for Active; 'I' for Inactive)
REMARK    1  A    between atoms: N_2  and  C_13
REMARK    2  A    between atoms: C_8  and  O_19
REMARK    3  A    between atoms: O_19  and  C_20
REMARK    4  A    between atoms: C_20  and  C_22
REMARK    5  A    between atoms: C_25  and  C_29
REMARK                            x       y       z     vdW  Elec       q    Type
REMARK                         _______ _______ _______ _____ _____    ______ ____
ROOT
ATOM      1  O   UNL     1      34.508 -16.351 -24.523  0.00  0.00    -0.446 OA
ATOM      2  N   UNL     1      32.846 -12.302 -22.824  0.00  0.00    -0.296 N 
ATOM      3  N   UNL     1      34.091 -13.785 -21.422  0.00  0.00    -0.130 NA
ATOM      4  N   UNL     1      34.799 -14.959 -21.196  0.00  0.00    -0.106 NA
ATOM      5  C   UNL     1      33.726 -14.412 -23.668  0.00  0.00    +0.076 A 
ATOM      6  C   UNL     1      34.439 -15.575 -23.406  0.00  0.00    +0.202 A 
ATOM      7  C   UNL     1      33.556 -13.500 -22.632  0.00  0.00    +0.157 A 
ATOM      8  C   UNL     1      34.984 -15.867 -22.175  0.00  0.00    +0.279 A 
ATOM      9  C   UNL     1      33.342 -14.494 -25.032  0.00  0.00    +0.047 C 
ATOM     10  C   UNL     1      33.841 -15.687 -25.504  0.00  0.00    +0.180 C 
ATOM     11  H   UNL     1      32.499 -12.192 -23.738  0.00  0.00    +0.154 HD
ENDROOT
BRANCH   2  13
ATOM     12 CL   UNL     1      31.531  -7.786 -19.229  0.00  0.00    -0.082 Cl
ATOM     13  C   UNL     1      32.533 -11.226 -21.967  0.00  0.00    +0.049 C 
ATOM     14  C   UNL     1      32.779  -9.915 -22.375  0.00  0.00    +0.016 C 
ATOM     15  C   UNL     1      31.976 -11.473 -20.712  0.00  0.00    +0.016 C 
ATOM     16  C   UNL     1      32.469  -8.851 -21.529  0.00  0.00    +0.013 C 
ATOM     17  C   UNL     1      31.666 -10.409 -19.866  0.00  0.00    +0.013 C 
ATOM     18  C   UNL     1      31.912  -9.099 -20.274  0.00  0.00    +0.058 C 
ENDBRANCH   2  13
BRANCH   8  19
ATOM     19  O   UNL     1      35.688 -17.012 -21.907  0.00  0.00    -0.452 OA
BRANCH  19  20
ATOM     20  C   UNL     1      35.006 -18.245 -22.109  0.00  0.00    +0.234 C 
BRANCH  20  22
ATOM     21  N   UNL     1      36.025 -20.938 -18.935  0.00  0.00    -0.239 NA
ATOM     22  C   UNL     1      35.362 -19.188 -20.997  0.00  0.00    +0.024 C 
ATOM     23  C   UNL     1      34.392 -20.016 -20.459  0.00  0.00    +0.023 C 
ATOM     24  C   UNL     1      36.662 -19.224 -20.516  0.00  0.00    +0.020 C 
ATOM     25  C   UNL     1      34.772 -20.869 -19.436  0.00  0.00    +0.134 C 
ATOM     26  C   UNL     1      36.940 -20.112 -19.489  0.00  0.00    +0.099 C 
BRANCH  25  29
ATOM     27  O   UNL     1      32.696 -21.958 -19.366  0.00  0.00    -0.268 OA
ATOM     28  N   UNL     1      34.180 -22.402 -17.641  0.00  0.00    -0.298 N 
ATOM     29  C   UNL     1      33.802 -21.764 -18.829  0.00  0.00    +0.264 C 
ATOM     30  C   UNL     1      33.336 -23.337 -16.932  0.00  0.00    +0.111 C 
ATOM     31  H   UNL     1      35.069 -22.205 -17.270  0.00  0.00    +0.150 HD
ENDBRANCH  25  29
ENDBRANCH  20  22
ENDBRANCH  19  20
ENDBRANCH   8  19
TORSDOF 5
ENDMDL
MODEL 5
REMARK VINA RESULT:     -11.5      7.344     10.970
REMARK  Name = 9808844
REMARK  5 active torsions:
REMARK  status: ('A' for Active; 'I' for Inactive)
REMARK    1  A    between atoms: N_2  and  C_13
REMARK    2  A    between atoms: C_8  and  O_19
REMARK    3  A    between atoms: O_19  and  C_20
REMARK    4  A    between atoms: C_20  and  C_22
REMARK    5  A    between atoms: C_25  and  C_29
REMARK                            x       y       z     vdW  Elec       q    Type
REMARK                         _______ _______ _______ _____ _____    ______ ____
ROOT
ATOM      1  O   UNL     1      32.547 -13.807 -21.088  0.00  0.00    -0.446 OA
ATOM      2  N   UNL     1      32.298  -9.209 -22.002  0.00  0.00    -0.296 N 
ATOM      3  N   UNL     1      33.235 -10.714 -23.605  0.00  0.00    -0.130 NA
ATOM      4  N   UNL     1      33.607 -11.985 -24.028  0.00  0.00    -0.106 NA
ATOM      5  C   UNL     1      32.445 -11.602 -21.566  0.00  0.00    +0.076 A 
ATOM      6  C   UNL     1      32.830 -12.856 -22.021  0.00  0.00    +0.202 A 
ATOM      7  C   UNL     1      32.662 -10.508 -22.397  0.00  0.00    +0.157 A 
ATOM      8  C   UNL     1      33.414 -13.069 -23.251  0.00  0.00    +0.279 A 
ATOM      9  C   UNL     1      31.894 -11.813 -20.275  0.00  0.00    +0.047 C 
ATOM     10  C   UNL     1      31.979 -13.165 -20.033  0.00  0.00    +0.180 C 
ATOM     11  H   UNL     1      31.889  -9.169 -21.108  0.00  0.00    +0.154 HD
ENDROOT
BRANCH   2  13
ATOM     12 CL   UNL     1      32.726  -3.931 -24.651  0.00  0.00    -0.082 Cl
ATOM     13  C   UNL     1      32.400  -7.951 -22.634  0.00  0.00    +0.049 C 
ATOM     14  C   UNL     1      33.600  -7.244 -22.588  0.00  0.00    +0.016 C 
ATOM     15  C   UNL     1      31.300  -7.416 -23.304  0.00  0.00    +0.016 C 
ATOM     16  C   UNL     1      33.701  -6.001 -23.211  0.00  0.00    +0.013 C 
ATOM     17  C   UNL     1      31.401  -6.173 -23.928  0.00  0.00    +0.013 C 
ATOM     18  C   UNL     1      32.601  -5.466 -23.882  0.00  0.00    +0.058 C 
ENDBRANCH   2  13
BRANCH   8  19
ATOM     19  O   UNL     1      33.797 -14.302 -23.708  0.00  0.00    -0.452 OA
BRANCH  19  20
ATOM     20  C   UNL     1      35.015 -14.826 -23.190  0.00  0.00    +0.234 C 
BRANCH  20  22
ATOM     21  N   UNL     1      34.663 -19.084 -22.843  0.00  0.00    -0.239 NA
ATOM     22  C   UNL     1      34.892 -16.318 -23.068  0.00  0.00    +0.024 C 
ATOM     23  C   UNL     1      35.392 -16.960 -21.948  0.00  0.00    +0.023 C 
ATOM     24  C   UNL     1      34.279 -17.042 -24.078  0.00  0.00    +0.020 C 
ATOM     25  C   UNL     1      35.252 -18.337 -21.883  0.00  0.00    +0.134 C 
ATOM     26  C   UNL     1      34.191 -18.416 -23.919  0.00  0.00    +0.099 C 
BRANCH  25  29
ATOM     27  O   UNL     1      36.687 -18.615 -20.049  0.00  0.00    -0.268 OA
ATOM     28  N   UNL     1      35.128 -20.287 -20.432  0.00  0.00    -0.298 N 
ATOM     29  C   UNL     1      35.754 -19.072 -20.735  0.00  0.00    +0.264 C 
ATOM     30  C   UNL     1      35.496 -21.119 -19.309  0.00  0.00    +0.111 C 
ATOM     31  H   UNL     1      34.395 -20.590 -21.015  0.00  0.00    +0.150 HD
ENDBRANCH  25  29
ENDBRANCH  20  22
ENDBRANCH  19  20
ENDBRANCH   8  19
TORSDOF 5
ENDMDL
MODEL 6
REMARK VINA RESULT:     -11.4      1.417      3.467
REMARK  Name = 9808844
REMARK  5 active torsions:
REMARK  status: ('A' for Active; 'I' for Inactive)
REMARK    1  A    between atoms: N_2  and  C_13
REMARK    2  A    between atoms: C_8  and  O_19
REMARK    3  A    between atoms: O_19  and  C_20
REMARK    4  A    between atoms: C_20  and  C_22
REMARK    5  A    between atoms: C_25  and  C_29
REMARK                            x       y       z     vdW  Elec       q    Type
REMARK                         _______ _______ _______ _____ _____    ______ ____
ROOT
ATOM      1  O   UNL     1      34.564 -22.738 -17.441  0.00  0.00    -0.446 OA
ATOM      2  N   UNL     1      34.053 -19.712 -20.994  0.00  0.00    -0.296 N 
ATOM      3  N   UNL     1      36.177 -19.990 -19.935  0.00  0.00    -0.130 NA
ATOM      4  N   UNL     1      37.013 -20.572 -18.990  0.00  0.00    -0.106 NA
ATOM      5  C   UNL     1      34.359 -21.272 -19.148  0.00  0.00    +0.076 A 
ATOM      6  C   UNL     1      35.223 -21.833 -18.217  0.00  0.00    +0.202 A 
ATOM      7  C   UNL     1      34.869 -20.322 -20.026  0.00  0.00    +0.157 A 
ATOM      8  C   UNL     1      36.556 -21.496 -18.122  0.00  0.00    +0.279 A 
ATOM      9  C   UNL     1      33.097 -21.879 -18.917  0.00  0.00    +0.047 C 
ATOM     10  C   UNL     1      33.275 -22.759 -17.874  0.00  0.00    +0.180 C 
ATOM     11  H   UNL     1      33.119 -20.024 -20.976  0.00  0.00    +0.154 HD
ENDROOT
BRANCH   2  13
ATOM     12 CL   UNL     1      35.112 -15.643 -25.163  0.00  0.00    -0.082 Cl
ATOM     13  C   UNL     1      34.305 -18.742 -21.988  0.00  0.00    +0.049 C 
ATOM     14  C   UNL     1      33.915 -18.977 -23.306  0.00  0.00    +0.016 C 
ATOM     15  C   UNL     1      34.945 -17.549 -21.651  0.00  0.00    +0.016 C 
ATOM     16  C   UNL     1      34.164 -18.018 -24.288  0.00  0.00    +0.013 C 
ATOM     17  C   UNL     1      35.194 -16.591 -22.633  0.00  0.00    +0.013 C 
ATOM     18  C   UNL     1      34.804 -16.825 -23.951  0.00  0.00    +0.058 C 
ENDBRANCH   2  13
BRANCH   8  19
ATOM     19  O   UNL     1      37.416 -22.044 -17.207  0.00  0.00    -0.452 OA
BRANCH  19  20
ATOM     20  C   UNL     1      37.294 -21.591 -15.863  0.00  0.00    +0.234 C 
BRANCH  20  22
ATOM     21  N   UNL     1      36.591 -24.964 -13.313  0.00  0.00    -0.239 NA
ATOM     22  C   UNL     1      37.047 -22.772 -14.970  0.00  0.00    +0.024 C 
ATOM     23  C   UNL     1      35.821 -22.917 -14.343  0.00  0.00    +0.023 C 
ATOM     24  C   UNL     1      38.049 -23.710 -14.777  0.00  0.00    +0.020 C 
ATOM     25  C   UNL     1      35.643 -24.025 -13.529  0.00  0.00    +0.134 C 
ATOM     26  C   UNL     1      37.773 -24.782 -13.944  0.00  0.00    +0.099 C 
BRANCH  25  29
ATOM     27  O   UNL     1      34.271 -23.994 -11.628  0.00  0.00    -0.268 OA
ATOM     28  N   UNL     1      33.305 -24.694 -13.616  0.00  0.00    -0.298 N 
ATOM     29  C   UNL     1      34.380 -24.236 -12.844  0.00  0.00    +0.264 C 
ATOM     30  C   UNL     1      31.982 -24.929 -13.085  0.00  0.00    +0.111 C 
ATOM     31  H   UNL     1      33.459 -24.865 -14.573  0.00  0.00    +0.150 HD
ENDBRANCH  25  29
ENDBRANCH  20  22
ENDBRANCH  19  20
ENDBRANCH   8  19
TORSDOF 5
ENDMDL
MODEL 7
REMARK VINA RESULT:     -11.3      7.536     12.086
REMARK  Name = 9808844
REMARK  5 active torsions:
REMARK  status: ('A' for Active; 'I' for Inactive)
REMARK    1  A    between atoms: N_2  and  C_13
REMARK    2  A    between atoms: C_8  and  O_19
REMARK    3  A    between atoms: O_19  and  C_20
REMARK    4  A    between atoms: C_20  and  C_22
REMARK    5  A    between atoms: C_25  and  C_29
REMARK                            x       y       z     vdW  Elec       q    Type
REMARK                         _______ _______ _______ _____ _____    ______ ____
ROOT
ATOM      1  O   UNL     1      33.739 -13.989 -24.651  0.00  0.00    -0.446 OA
ATOM      2  N   UNL     1      35.104 -17.870 -22.390  0.00  0.00    -0.296 N 
ATOM      3  N   UNL     1      34.725 -15.838 -21.190  0.00  0.00    -0.130 NA
ATOM      4  N   UNL     1      34.372 -14.496 -21.125  0.00  0.00    -0.106 NA
ATOM      5  C   UNL     1      34.394 -15.835 -23.526  0.00  0.00    +0.076 A 
ATOM      6  C   UNL     1      34.047 -14.494 -23.425  0.00  0.00    +0.202 A 
ATOM      7  C   UNL     1      34.742 -16.512 -22.362  0.00  0.00    +0.157 A 
ATOM      8  C   UNL     1      34.030 -13.805 -22.231  0.00  0.00    +0.279 A 
ATOM      9  C   UNL     1      34.287 -16.157 -24.905  0.00  0.00    +0.047 C 
ATOM     10  C   UNL     1      33.886 -15.005 -25.542  0.00  0.00    +0.180 C 
ATOM     11  H   UNL     1      35.084 -18.265 -23.291  0.00  0.00    +0.154 HD
ENDROOT
BRANCH   2  13
ATOM     12 CL   UNL     1      36.725 -21.687 -18.164  0.00  0.00    -0.082 Cl
ATOM     13  C   UNL     1      35.491 -18.780 -21.382  0.00  0.00    +0.049 C 
ATOM     14  C   UNL     1      36.795 -18.762 -20.890  0.00  0.00    +0.016 C 
ATOM     15  C   UNL     1      34.567 -19.696 -20.879  0.00  0.00    +0.016 C 
ATOM     16  C   UNL     1      37.177 -19.660 -19.894  0.00  0.00    +0.013 C 
ATOM     17  C   UNL     1      34.949 -20.595 -19.884  0.00  0.00    +0.013 C 
ATOM     18  C   UNL     1      36.253 -20.577 -19.392  0.00  0.00    +0.058 C 
ENDBRANCH   2  13
BRANCH   8  19
ATOM     19  O   UNL     1      33.689 -12.483 -22.121  0.00  0.00    -0.452 OA
BRANCH  19  20
ATOM     20  C   UNL     1      32.300 -12.177 -22.127  0.00  0.00    +0.234 C 
BRANCH  20  22
ATOM     21  N   UNL     1      31.599  -8.816 -19.561  0.00  0.00    -0.239 NA
ATOM     22  C   UNL     1      32.054 -10.999 -21.229  0.00  0.00    +0.024 C 
ATOM     23  C   UNL     1      31.933  -9.731 -21.773  0.00  0.00    +0.023 C 
ATOM     24  C   UNL     1      31.952 -11.188 -19.860  0.00  0.00    +0.020 C 
ATOM     25  C   UNL     1      31.706  -8.679 -20.901  0.00  0.00    +0.134 C 
ATOM     26  C   UNL     1      31.725 -10.070 -19.073  0.00  0.00    +0.099 C 
BRANCH  25  29
ATOM     27  O   UNL     1      30.755  -7.067 -22.315  0.00  0.00    -0.268 OA
ATOM     28  N   UNL     1      32.366  -6.338 -20.816  0.00  0.00    -0.298 N 
ATOM     29  C   UNL     1      31.568  -7.324 -21.408  0.00  0.00    +0.264 C 
ATOM     30  C   UNL     1      32.327  -4.943 -21.193  0.00  0.00    +0.111 C 
ATOM     31  H   UNL     1      32.988  -6.609 -20.103  0.00  0.00    +0.150 HD
ENDBRANCH  25  29
ENDBRANCH  20  22
ENDBRANCH  19  20
ENDBRANCH   8  19
TORSDOF 5
ENDMDL
MODEL 8
REMARK VINA RESULT:     -11.2      2.247      3.669
REMARK  Name = 9808844
REMARK  5 active torsions:
REMARK  status: ('A' for Active; 'I' for Inactive)
REMARK    1  A    between atoms: N_2  and  C_13
REMARK    2  A    between atoms: C_8  and  O_19
REMARK    3  A    between atoms: O_19  and  C_20
REMARK    4  A    between atoms: C_20  and  C_22
REMARK    5  A    between atoms: C_25  and  C_29
REMARK                            x       y       z     vdW  Elec       q    Type
REMARK                         _______ _______ _______ _____ _____    ______ ____
ROOT
ATOM      1  O   UNL     1      34.485 -22.763 -17.400  0.00  0.00    -0.446 OA
ATOM      2  N   UNL     1      34.035 -19.767 -20.986  0.00  0.00    -0.296 N 
ATOM      3  N   UNL     1      36.128 -20.000 -19.857  0.00  0.00    -0.130 NA
ATOM      4  N   UNL     1      36.944 -20.562 -18.882  0.00  0.00    -0.106 NA
ATOM      5  C   UNL     1      34.309 -21.311 -19.121  0.00  0.00    +0.076 A 
ATOM      6  C   UNL     1      35.153 -21.851 -18.159  0.00  0.00    +0.202 A 
ATOM      7  C   UNL     1      34.830 -20.357 -19.988  0.00  0.00    +0.157 A 
ATOM      8  C   UNL     1      36.476 -21.489 -18.024  0.00  0.00    +0.279 A 
ATOM      9  C   UNL     1      33.051 -21.939 -18.927  0.00  0.00    +0.047 C 
ATOM     10  C   UNL     1      33.212 -22.810 -17.873  0.00  0.00    +0.180 C 
ATOM     11  H   UNL     1      33.107 -20.096 -20.996  0.00  0.00    +0.154 HD
ENDROOT
BRANCH   2  13
ATOM     12 CL   UNL     1      35.154 -15.703 -25.144  0.00  0.00    -0.082 Cl
ATOM     13  C   UNL     1      34.301 -18.798 -21.977  0.00  0.00    +0.049 C 
ATOM     14  C   UNL     1      33.930 -19.034 -23.300  0.00  0.00    +0.016 C 
ATOM     15  C   UNL     1      34.936 -17.605 -21.632  0.00  0.00    +0.016 C 
ATOM     16  C   UNL     1      34.193 -18.077 -24.279  0.00  0.00    +0.013 C 
ATOM     17  C   UNL     1      35.200 -16.648 -22.612  0.00  0.00    +0.013 C 
ATOM     18  C   UNL     1      34.828 -16.884 -23.935  0.00  0.00    +0.058 C 
ENDBRANCH   2  13
BRANCH   8  19
ATOM     19  O   UNL     1      37.315 -22.016 -17.078  0.00  0.00    -0.452 OA
BRANCH  19  20
ATOM     20  C   UNL     1      37.103 -21.604 -15.732  0.00  0.00    +0.234 C 
BRANCH  20  22
ATOM     21  N   UNL     1      36.463 -25.070 -13.293  0.00  0.00    -0.239 NA
ATOM     22  C   UNL     1      36.880 -22.818 -14.878  0.00  0.00    +0.024 C 
ATOM     23  C   UNL     1      37.835 -23.820 -14.841  0.00  0.00    +0.023 C 
ATOM     24  C   UNL     1      35.716 -22.930 -14.132  0.00  0.00    +0.020 C 
ATOM     25  C   UNL     1      37.582 -24.919 -14.037  0.00  0.00    +0.134 C 
ATOM     26  C   UNL     1      35.557 -24.069 -13.360  0.00  0.00    +0.099 C 
BRANCH  25  29
ATOM     27  O   UNL     1      38.192 -27.180 -14.155  0.00  0.00    -0.268 OA
ATOM     28  N   UNL     1      39.870 -25.657 -13.662  0.00  0.00    -0.298 N 
ATOM     29  C   UNL     1      38.544 -26.003 -13.953  0.00  0.00    +0.264 C 
ATOM     30  C   UNL     1      40.945 -26.618 -13.568  0.00  0.00    +0.111 C 
ATOM     31  H   UNL     1      40.081 -24.708 -13.514  0.00  0.00    +0.150 HD
ENDBRANCH  25  29
ENDBRANCH  20  22
ENDBRANCH  19  20
ENDBRANCH   8  19
TORSDOF 5
ENDMDL
MODEL 9
REMARK VINA RESULT:     -11.1      1.982      3.418
REMARK  Name = 9808844
REMARK  5 active torsions:
REMARK  status: ('A' for Active; 'I' for Inactive)
REMARK    1  A    between atoms: N_2  and  C_13
REMARK    2  A    between atoms: C_8  and  O_19
REMARK    3  A    between atoms: O_19  and  C_20
REMARK    4  A    between atoms: C_20  and  C_22
REMARK    5  A    between atoms: C_25  and  C_29
REMARK                            x       y       z     vdW  Elec       q    Type
REMARK                         _______ _______ _______ _____ _____    ______ ____
ROOT
ATOM      1  O   UNL     1      35.622 -21.808 -18.460  0.00  0.00    -0.446 OA
ATOM      2  N   UNL     1      35.460 -18.372 -21.654  0.00  0.00    -0.296 N 
ATOM      3  N   UNL     1      33.459 -19.484 -20.968  0.00  0.00    -0.130 NA
ATOM      4  N   UNL     1      32.774 -20.429 -20.213  0.00  0.00    -0.106 NA
ATOM      5  C   UNL     1      35.502 -20.160 -19.999  0.00  0.00    +0.076 A 
ATOM      6  C   UNL     1      34.786 -21.092 -19.261  0.00  0.00    +0.202 A 
ATOM      7  C   UNL     1      34.801 -19.338 -20.875  0.00  0.00    +0.157 A 
ATOM      8  C   UNL     1      33.418 -21.243 -19.354  0.00  0.00    +0.279 A 
ATOM      9  C   UNL     1      36.859 -20.326 -19.616  0.00  0.00    +0.047 C 
ATOM     10  C   UNL     1      36.877 -21.336 -18.682  0.00  0.00    +0.180 C 
ATOM     11  H   UNL     1      36.434 -18.348 -21.511  0.00  0.00    +0.154 HD
ENDROOT
BRANCH   2  13
ATOM     12 CL   UNL     1      33.549 -14.413 -25.620  0.00  0.00    -0.082 Cl
ATOM     13  C   UNL     1      35.004 -17.428 -22.599  0.00  0.00    +0.049 C 
ATOM     14  C   UNL     1      34.457 -17.860 -23.807  0.00  0.00    +0.016 C 
ATOM     15  C   UNL     1      35.102 -16.064 -22.325  0.00  0.00    +0.016 C 
ATOM     16  C   UNL     1      34.006 -16.928 -24.741  0.00  0.00    +0.013 C 
ATOM     17  C   UNL     1      34.651 -15.132 -23.259  0.00  0.00    +0.013 C 
ATOM     18  C   UNL     1      34.104 -15.563 -24.467  0.00  0.00    +0.058 C 
ENDBRANCH   2  13
BRANCH   8  19
ATOM     19  O   UNL     1      32.704 -22.160 -18.630  0.00  0.00    -0.452 OA
BRANCH  19  20
ATOM     20  C   UNL     1      33.453 -23.143 -17.924  0.00  0.00    +0.234 C 
BRANCH  20  22
ATOM     21  N   UNL     1      32.039 -23.340 -13.882  0.00  0.00    -0.239 NA
ATOM     22  C   UNL     1      32.957 -23.212 -16.509  0.00  0.00    +0.024 C 
ATOM     23  C   UNL     1      31.596 -23.180 -16.253  0.00  0.00    +0.023 C 
ATOM     24  C   UNL     1      33.865 -23.306 -15.466  0.00  0.00    +0.020 C 
ATOM     25  C   UNL     1      31.190 -23.247 -14.930  0.00  0.00    +0.134 C 
ATOM     26  C   UNL     1      33.358 -23.367 -14.178  0.00  0.00    +0.099 C 
BRANCH  25  29
ATOM     27  O   UNL     1      29.377 -23.660 -13.501  0.00  0.00    -0.268 OA
ATOM     28  N   UNL     1      28.909 -22.659 -15.540  0.00  0.00    -0.298 N 
ATOM     29  C   UNL     1      29.777 -23.220 -14.595  0.00  0.00    +0.264 C 
ATOM     30  C   UNL     1      27.482 -22.538 -15.343  0.00  0.00    +0.111 C 
ATOM     31  H   UNL     1      29.291 -22.328 -16.384  0.00  0.00    +0.150 HD
ENDBRANCH  25  29
ENDBRANCH  20  22
ENDBRANCH  19  20
ENDBRANCH   8  19
TORSDOF 5
ENDMDL
