MODEL 1
REMARK VINA RESULT:     -13.0      0.000      0.000
REMARK  Name = 66599893
REMARK  9 active torsions:
REMARK  status: ('A' for Active; 'I' for Inactive)
REMARK    1  A    between atoms: C_1  and  C_2
REMARK    2  A    between atoms: C_1  and  C_22
REMARK    3  A    between atoms: C_1  and  C_34
REMARK    4  A    between atoms: C_5  and  C_8
REMARK    5  A    between atoms: C_8  and  O_9
REMARK    6  A    between atoms: O_9  and  C_11
REMARK    7  A    between atoms: C_11  and  C_12
REMARK    8  A    between atoms: N_21  and  C_25
REMARK    9  A    between atoms: C_34  and  N_35
REMARK                            x       y       z     vdW  Elec       q    Type
REMARK                         _______ _______ _______ _____ _____    ______ ____
ROOT
ATOM      1  C   UNL     1      35.528 -17.006 -22.186  0.00  0.00    +0.077 C 
ENDROOT
BRANCH   1   2
ATOM      2  C   UNL     1      35.543 -18.252 -21.315  0.00  0.00    -0.016 C 
ATOM      3  C   UNL     1      34.359 -18.950 -21.074  0.00  0.00    -0.004 C 
ATOM      4  C   UNL     1      36.741 -18.698 -20.756  0.00  0.00    -0.004 C 
ATOM      5  C   UNL     1      35.570 -20.537 -19.715  0.00  0.00    +0.021 C 
ATOM      6  C   UNL     1      34.373 -20.092 -20.274  0.00  0.00    -0.001 C 
ATOM      7  C   UNL     1      36.754 -19.840 -19.955  0.00  0.00    -0.001 C 
BRANCH   5   8
ATOM      8  C   UNL     1      35.586 -21.760 -18.861  0.00  0.00    +0.235 C 
BRANCH   8   9
ATOM      9  O   UNL     1      34.417 -21.786 -18.051  0.00  0.00    -0.440 OA
BRANCH   9  11
ATOM     10  O   UNL     1      33.837 -23.910 -18.721  0.00  0.00    -0.245 OA
ATOM     11  C   UNL     1      33.817 -22.998 -17.908  0.00  0.00    +0.341 C 
BRANCH  11  12
ATOM     12  C   UNL     1      33.111 -23.085 -16.604  0.00  0.00    +0.072 C 
ATOM     13  C   UNL     1      33.813 -23.292 -15.417  0.00  0.00    -0.016 C 
ATOM     14  C   UNL     1      31.738 -23.242 -14.180  0.00  0.00    -0.022 C 
ATOM     15  C   UNL     1      33.127 -23.370 -14.205  0.00  0.00    -0.008 C 
ATOM     16  C   UNL     1      31.722 -22.957 -16.580  0.00  0.00    +0.006 C 
ATOM     17  C   UNL     1      31.035 -23.036 -15.369  0.00  0.00    -0.004 C 
ATOM     18  C   UNL     1      35.300 -23.431 -15.414  0.00  0.00    +0.031 C 
ATOM     19  C   UNL     1      31.002 -23.326 -12.887  0.00  0.00    +0.031 C 
ENDBRANCH  11  12
ENDBRANCH   9  11
ENDBRANCH   8   9
ENDBRANCH   5   8
ENDBRANCH   1   2
BRANCH   1  22
ATOM     20  O   UNL     1      35.053 -15.722 -20.194  0.00  0.00    -0.275 OA
ATOM     21  N   UNL     1      34.242 -14.934 -22.255  0.00  0.00    -0.284 N 
ATOM     22  C   UNL     1      34.928 -15.823 -21.411  0.00  0.00    +0.228 C 
ATOM     23  H   UNL     1      34.229 -15.171 -23.211  0.00  0.00    +0.155 HD
BRANCH  21  25
ATOM     24  N   UNL     1      31.659  -9.078 -21.687  0.00  0.00    -0.242 NA
ATOM     25  C   UNL     1      33.575 -13.757 -21.911  0.00  0.00    +0.050 C 
ATOM     26  C   UNL     1      33.672 -12.635 -22.735  0.00  0.00    +0.015 C 
ATOM     27  C   UNL     1      33.010 -11.443 -22.402  0.00  0.00    +0.004 C 
ATOM     28  C   UNL     1      32.815 -13.704 -20.746  0.00  0.00    +0.015 C 
ATOM     29  C   UNL     1      32.240 -11.393 -21.221  0.00  0.00    +0.019 C 
ATOM     30  C   UNL     1      32.148 -12.529 -20.398  0.00  0.00    +0.003 C 
ATOM     31  C   UNL     1      33.088 -10.300 -23.208  0.00  0.00    +0.021 C 
ATOM     32  C   UNL     1      31.594 -10.192 -20.922  0.00  0.00    +0.099 C 
ATOM     33  C   UNL     1      32.403  -9.162 -22.810  0.00  0.00    +0.099 C 
ENDBRANCH  21  25
ENDBRANCH   1  22
BRANCH   1  34
ATOM     34  C   UNL     1      34.773 -17.213 -23.515  0.00  0.00    -0.072 C 
BRANCH  34  35
ATOM     35  N   UNL     1      35.264 -16.323 -24.564  0.00  0.00    +0.381 N 
ATOM     36  H   UNL     1      35.399 -16.854 -25.425  0.00  0.00    -0.089 HD
ATOM     37  H   UNL     1      36.153 -15.915 -24.275  0.00  0.00    -0.089 HD
ATOM     38  H   UNL     1      34.585 -15.580 -24.725  0.00  0.00    -0.089 HD
ENDBRANCH  34  35
ENDBRANCH   1  34
TORSDOF 9
ENDMDL
MODEL 2
REMARK VINA RESULT:     -12.5      1.774      3.248
REMARK  Name = 66599893
REMARK  9 active torsions:
REMARK  status: ('A' for Active; 'I' for Inactive)
REMARK    1  A    between atoms: C_1  and  C_2
REMARK    2  A    between atoms: C_1  and  C_22
REMARK    3  A    between atoms: C_1  and  C_34
REMARK    4  A    between atoms: C_5  and  C_8
REMARK    5  A    between atoms: C_8  and  O_9
REMARK    6  A    between atoms: O_9  and  C_11
REMARK    7  A    between atoms: C_11  and  C_12
REMARK    8  A    between atoms: N_21  and  C_25
REMARK    9  A    between atoms: C_34  and  N_35
REMARK                            x       y       z     vdW  Elec       q    Type
REMARK                         _______ _______ _______ _____ _____    ______ ____
ROOT
ATOM      1  C   UNL     1      35.925 -18.288 -21.469  0.00  0.00    +0.077 C 
ENDROOT
BRANCH   1   2
ATOM      2  C   UNL     1      35.315 -19.385 -20.611  0.00  0.00    -0.016 C 
ATOM      3  C   UNL     1      36.140 -20.259 -19.903  0.00  0.00    -0.004 C 
ATOM      4  C   UNL     1      33.928 -19.518 -20.532  0.00  0.00    -0.004 C 
ATOM      5  C   UNL     1      34.194 -21.398 -19.038  0.00  0.00    +0.021 C 
ATOM      6  C   UNL     1      35.580 -21.266 -19.118  0.00  0.00    -0.001 C 
ATOM      7  C   UNL     1      33.368 -20.525 -19.746  0.00  0.00    -0.001 C 
BRANCH   5   8
ATOM      8  C   UNL     1      33.594 -22.474 -18.197  0.00  0.00    +0.235 C 
BRANCH   8   9
ATOM      9  O   UNL     1      34.607 -23.066 -17.393  0.00  0.00    -0.440 OA
BRANCH   9  11
ATOM     10  O   UNL     1      33.290 -22.834 -15.519  0.00  0.00    -0.245 OA
ATOM     11  C   UNL     1      34.335 -23.158 -16.063  0.00  0.00    +0.341 C 
BRANCH  11  12
ATOM     12  C   UNL     1      35.498 -23.715 -15.326  0.00  0.00    +0.072 C 
ATOM     13  C   UNL     1      36.717 -23.038 -15.286  0.00  0.00    -0.016 C 
ATOM     14  C   UNL     1      37.654 -24.805 -13.930  0.00  0.00    -0.022 C 
ATOM     15  C   UNL     1      37.795 -23.583 -14.588  0.00  0.00    -0.008 C 
ATOM     16  C   UNL     1      35.356 -24.936 -14.668  0.00  0.00    +0.006 C 
ATOM     17  C   UNL     1      36.434 -25.482 -13.970  0.00  0.00    -0.004 C 
ATOM     18  C   UNL     1      36.896 -21.728 -15.982  0.00  0.00    +0.031 C 
ATOM     19  C   UNL     1      38.804 -25.389 -13.184  0.00  0.00    +0.031 C 
ENDBRANCH  11  12
ENDBRANCH   9  11
ENDBRANCH   8   9
ENDBRANCH   5   8
ENDBRANCH   1   2
BRANCH   1  22
ATOM     20  O   UNL     1      35.275 -16.576 -19.891  0.00  0.00    -0.275 OA
ATOM     21  N   UNL     1      34.943 -16.173 -22.184  0.00  0.00    -0.284 N 
ATOM     22  C   UNL     1      35.354 -16.920 -21.068  0.00  0.00    +0.228 C 
ATOM     23  H   UNL     1      35.068 -16.605 -23.060  0.00  0.00    +0.155 HD
BRANCH  21  25
ATOM     24  N   UNL     1      31.914 -10.591 -21.211  0.00  0.00    -0.242 NA
ATOM     25  C   UNL     1      34.380 -14.895 -22.209  0.00  0.00    +0.050 C 
ATOM     26  C   UNL     1      33.615 -14.451 -21.129  0.00  0.00    +0.015 C 
ATOM     27  C   UNL     1      33.041 -13.170 -21.140  0.00  0.00    +0.004 C 
ATOM     28  C   UNL     1      34.582 -14.068 -23.310  0.00  0.00    +0.015 C 
ATOM     29  C   UNL     1      33.248 -12.334 -22.257  0.00  0.00    +0.019 C 
ATOM     30  C   UNL     1      34.021 -12.792 -23.338  0.00  0.00    +0.003 C 
ATOM     31  C   UNL     1      32.268 -12.695 -20.073  0.00  0.00    +0.021 C 
ATOM     32  C   UNL     1      32.663 -11.067 -22.232  0.00  0.00    +0.099 C 
ATOM     33  C   UNL     1      31.737 -11.417 -20.159  0.00  0.00    +0.099 C 
ENDBRANCH  21  25
ENDBRANCH   1  22
BRANCH   1  34
ATOM     34  C   UNL     1      35.729 -18.529 -22.979  0.00  0.00    -0.072 C 
BRANCH  34  35
ATOM     35  N   UNL     1      34.950 -19.735 -23.242  0.00  0.00    +0.381 N 
ATOM     36  H   UNL     1      35.396 -20.533 -22.789  0.00  0.00    -0.089 HD
ATOM     37  H   UNL     1      34.903 -19.898 -24.247  0.00  0.00    -0.089 HD
ATOM     38  H   UNL     1      34.006 -19.618 -22.873  0.00  0.00    -0.089 HD
ENDBRANCH  34  35
ENDBRANCH   1  34
TORSDOF 9
ENDMDL
MODEL 3
REMARK VINA RESULT:     -12.2      3.711     10.829
REMARK  Name = 66599893
REMARK  9 active torsions:
REMARK  status: ('A' for Active; 'I' for Inactive)
REMARK    1  A    between atoms: C_1  and  C_2
REMARK    2  A    between atoms: C_1  and  C_22
REMARK    3  A    between atoms: C_1  and  C_34
REMARK    4  A    between atoms: C_5  and  C_8
REMARK    5  A    between atoms: C_8  and  O_9
REMARK    6  A    between atoms: O_9  and  C_11
REMARK    7  A    between atoms: C_11  and  C_12
REMARK    8  A    between atoms: N_21  and  C_25
REMARK    9  A    between atoms: C_34  and  N_35
REMARK                            x       y       z     vdW  Elec       q    Type
REMARK                         _______ _______ _______ _____ _____    ______ ____
ROOT
ATOM      1  C   UNL     1      35.943 -21.996 -18.185  0.00  0.00    +0.077 C 
ENDROOT
BRANCH   1   2
ATOM      2  C   UNL     1      35.684 -20.916 -19.225  0.00  0.00    -0.016 C 
ATOM      3  C   UNL     1      36.738 -20.131 -19.693  0.00  0.00    -0.004 C 
ATOM      4  C   UNL     1      34.392 -20.711 -19.710  0.00  0.00    -0.004 C 
ATOM      5  C   UNL     1      35.209 -18.935 -21.131  0.00  0.00    +0.021 C 
ATOM      6  C   UNL     1      36.500 -19.140 -20.645  0.00  0.00    -0.001 C 
ATOM      7  C   UNL     1      34.155 -19.720 -20.663  0.00  0.00    -0.001 C 
BRANCH   5   8
ATOM      8  C   UNL     1      34.954 -17.877 -22.150  0.00  0.00    +0.235 C 
BRANCH   8   9
ATOM      9  O   UNL     1      35.025 -16.598 -21.532  0.00  0.00    -0.440 OA
BRANCH   9  11
ATOM     10  O   UNL     1      35.799 -15.413 -23.347  0.00  0.00    -0.245 OA
ATOM     11  C   UNL     1      35.070 -15.530 -22.374  0.00  0.00    +0.341 C 
BRANCH  11  12
ATOM     12  C   UNL     1      34.097 -14.489 -21.955  0.00  0.00    +0.072 C 
ATOM     13  C   UNL     1      33.326 -13.804 -22.892  0.00  0.00    -0.016 C 
ATOM     14  C   UNL     1      32.285 -12.541 -21.115  0.00  0.00    -0.022 C 
ATOM     15  C   UNL     1      32.420 -12.830 -22.473  0.00  0.00    -0.008 C 
ATOM     16  C   UNL     1      33.964 -14.200 -20.597  0.00  0.00    +0.006 C 
ATOM     17  C   UNL     1      33.058 -13.226 -20.176  0.00  0.00    -0.004 C 
ATOM     18  C   UNL     1      33.448 -14.094 -24.353  0.00  0.00    +0.031 C 
ATOM     19  C   UNL     1      31.318 -11.499 -20.664  0.00  0.00    +0.031 C 
ENDBRANCH  11  12
ENDBRANCH   9  11
ENDBRANCH   8   9
ENDBRANCH   5   8
ENDBRANCH   1   2
BRANCH   1  22
ATOM     20  O   UNL     1      33.991 -23.324 -18.703  0.00  0.00    -0.275 OA
ATOM     21  N   UNL     1      34.305 -22.609 -16.485  0.00  0.00    -0.284 N 
ATOM     22  C   UNL     1      34.638 -22.729 -17.845  0.00  0.00    +0.228 C 
ATOM     23  H   UNL     1      34.931 -22.085 -15.934  0.00  0.00    +0.155 HD
BRANCH  21  25
ATOM     24  N   UNL     1      28.576 -24.494 -14.270  0.00  0.00    -0.242 NA
ATOM     25  C   UNL     1      33.200 -23.138 -15.816  0.00  0.00    +0.050 C 
ATOM     26  C   UNL     1      31.913 -22.895 -16.298  0.00  0.00    +0.015 C 
ATOM     27  C   UNL     1      30.791 -23.418 -15.635  0.00  0.00    +0.004 C 
ATOM     28  C   UNL     1      33.384 -23.907 -14.670  0.00  0.00    +0.015 C 
ATOM     29  C   UNL     1      30.981 -24.197 -14.475  0.00  0.00    +0.019 C 
ATOM     30  C   UNL     1      32.282 -24.436 -13.999  0.00  0.00    +0.003 C 
ATOM     31  C   UNL     1      29.487 -23.193 -16.093  0.00  0.00    +0.021 C 
ATOM     32  C   UNL     1      29.843 -24.702 -13.844  0.00  0.00    +0.099 C 
ATOM     33  C   UNL     1      28.432 -23.745 -15.384  0.00  0.00    +0.099 C 
ENDBRANCH  21  25
ENDBRANCH   1  22
BRANCH   1  34
ATOM     34  C   UNL     1      36.600 -21.448 -16.902  0.00  0.00    -0.072 C 
BRANCH  34  35
ATOM     35  N   UNL     1      37.574 -22.383 -16.347  0.00  0.00    +0.381 N 
ATOM     36  H   UNL     1      38.190 -22.713 -17.089  0.00  0.00    -0.089 HD
ATOM     37  H   UNL     1      37.085 -23.177 -15.933  0.00  0.00    -0.089 HD
ATOM     38  H   UNL     1      38.126 -21.913 -15.629  0.00  0.00    -0.089 HD
ENDBRANCH  34  35
ENDBRANCH   1  34
TORSDOF 9
ENDMDL
MODEL 4
REMARK VINA RESULT:     -12.2      3.059     11.581
REMARK  Name = 66599893
REMARK  9 active torsions:
REMARK  status: ('A' for Active; 'I' for Inactive)
REMARK    1  A    between atoms: C_1  and  C_2
REMARK    2  A    between atoms: C_1  and  C_22
REMARK    3  A    between atoms: C_1  and  C_34
REMARK    4  A    between atoms: C_5  and  C_8
REMARK    5  A    between atoms: C_8  and  O_9
REMARK    6  A    between atoms: O_9  and  C_11
REMARK    7  A    between atoms: C_11  and  C_12
REMARK    8  A    between atoms: N_21  and  C_25
REMARK    9  A    between atoms: C_34  and  N_35
REMARK                            x       y       z     vdW  Elec       q    Type
REMARK                         _______ _______ _______ _____ _____    ______ ____
ROOT
ATOM      1  C   UNL     1      35.938 -18.981 -21.378  0.00  0.00    +0.077 C 
ENDROOT
BRANCH   1   2
ATOM      2  C   UNL     1      35.449 -17.546 -21.503  0.00  0.00    -0.016 C 
ATOM      3  C   UNL     1      35.281 -16.764 -20.360  0.00  0.00    -0.004 C 
ATOM      4  C   UNL     1      35.168 -17.012 -22.761  0.00  0.00    -0.004 C 
ATOM      5  C   UNL     1      34.551 -14.915 -21.732  0.00  0.00    +0.021 C 
ATOM      6  C   UNL     1      34.832 -15.449 -20.475  0.00  0.00    -0.001 C 
ATOM      7  C   UNL     1      34.719 -15.697 -22.875  0.00  0.00    -0.001 C 
BRANCH   5   8
ATOM      8  C   UNL     1      34.072 -13.508 -21.855  0.00  0.00    +0.235 C 
BRANCH   8   9
ATOM      9  O   UNL     1      34.584 -12.937 -23.053  0.00  0.00    -0.440 OA
BRANCH   9  11
ATOM     10  O   UNL     1      33.085 -12.726 -24.787  0.00  0.00    -0.245 OA
ATOM     11  C   UNL     1      33.686 -12.269 -23.827  0.00  0.00    +0.341 C 
BRANCH  11  12
ATOM     12  C   UNL     1      33.520 -10.872 -23.351  0.00  0.00    +0.072 C 
ATOM     13  C   UNL     1      34.308  -9.839 -23.858  0.00  0.00    -0.016 C 
ATOM     14  C   UNL     1      33.169  -8.264 -22.423  0.00  0.00    -0.022 C 
ATOM     15  C   UNL     1      34.133  -8.536 -23.394  0.00  0.00    -0.008 C 
ATOM     16  C   UNL     1      32.556 -10.601 -22.380  0.00  0.00    +0.006 C 
ATOM     17  C   UNL     1      32.380  -9.298 -21.916  0.00  0.00    -0.004 C 
ATOM     18  C   UNL     1      35.347 -10.101 -24.899  0.00  0.00    +0.031 C 
ATOM     19  C   UNL     1      32.981  -6.872 -21.925  0.00  0.00    +0.031 C 
ENDBRANCH  11  12
ENDBRANCH   9  11
ENDBRANCH   8   9
ENDBRANCH   5   8
ENDBRANCH   1   2
BRANCH   1  22
ATOM     20  O   UNL     1      33.797 -19.691 -20.509  0.00  0.00    -0.275 OA
ATOM     21  N   UNL     1      35.750 -20.552 -19.522  0.00  0.00    -0.284 N 
ATOM     22  C   UNL     1      35.020 -19.775 -20.436  0.00  0.00    +0.228 C 
ATOM     23  H   UNL     1      36.730 -20.495 -19.594  0.00  0.00    +0.155 HD
BRANCH  21  25
ATOM     24  N   UNL     1      34.586 -24.279 -14.419  0.00  0.00    -0.242 NA
ATOM     25  C   UNL     1      35.261 -21.397 -18.523  0.00  0.00    +0.050 C 
ATOM     26  C   UNL     1      36.068 -21.724 -17.432  0.00  0.00    +0.015 C 
ATOM     27  C   UNL     1      35.591 -22.573 -16.420  0.00  0.00    +0.004 C 
ATOM     28  C   UNL     1      33.971 -21.911 -18.618  0.00  0.00    +0.015 C 
ATOM     29  C   UNL     1      34.283 -23.092 -16.519  0.00  0.00    +0.019 C 
ATOM     30  C   UNL     1      33.480 -22.755 -17.622  0.00  0.00    +0.003 C 
ATOM     31  C   UNL     1      36.375 -22.920 -15.313  0.00  0.00    +0.021 C 
ATOM     32  C   UNL     1      33.844 -23.932 -15.494  0.00  0.00    +0.099 C 
ATOM     33  C   UNL     1      35.832 -23.764 -14.356  0.00  0.00    +0.099 C 
ENDBRANCH  21  25
ENDBRANCH   1  22
BRANCH   1  34
ATOM     34  C   UNL     1      37.402 -19.076 -20.904  0.00  0.00    -0.072 C 
BRANCH  34  35
ATOM     35  N   UNL     1      38.305 -18.325 -21.772  0.00  0.00    +0.381 N 
ATOM     36  H   UNL     1      37.963 -17.370 -21.874  0.00  0.00    -0.089 HD
ATOM     37  H   UNL     1      38.344 -18.771 -22.689  0.00  0.00    -0.089 HD
ATOM     38  H   UNL     1      39.239 -18.311 -21.362  0.00  0.00    -0.089 HD
ENDBRANCH  34  35
ENDBRANCH   1  34
TORSDOF 9
ENDMDL
MODEL 5
REMARK VINA RESULT:     -12.2      2.364      4.543
REMARK  Name = 66599893
REMARK  9 active torsions:
REMARK  status: ('A' for Active; 'I' for Inactive)
REMARK    1  A    between atoms: C_1  and  C_2
REMARK    2  A    between atoms: C_1  and  C_22
REMARK    3  A    between atoms: C_1  and  C_34
REMARK    4  A    between atoms: C_5  and  C_8
REMARK    5  A    between atoms: C_8  and  O_9
REMARK    6  A    between atoms: O_9  and  C_11
REMARK    7  A    between atoms: C_11  and  C_12
REMARK    8  A    between atoms: N_21  and  C_25
REMARK    9  A    between atoms: C_34  and  N_35
REMARK                            x       y       z     vdW  Elec       q    Type
REMARK                         _______ _______ _______ _____ _____    ______ ____
ROOT
ATOM      1  C   UNL     1      33.934 -12.922 -23.848  0.00  0.00    +0.077 C 
ENDROOT
BRANCH   1   2
ATOM      2  C   UNL     1      34.398 -14.104 -23.011  0.00  0.00    -0.016 C 
ATOM      3  C   UNL     1      34.519 -13.974 -21.627  0.00  0.00    -0.004 C 
ATOM      4  C   UNL     1      34.702 -15.318 -23.627  0.00  0.00    -0.004 C 
ATOM      5  C   UNL     1      35.249 -16.272 -21.476  0.00  0.00    +0.021 C 
ATOM      6  C   UNL     1      34.946 -15.058 -20.860  0.00  0.00    -0.001 C 
ATOM      7  C   UNL     1      35.128 -16.402 -22.859  0.00  0.00    -0.001 C 
BRANCH   5   8
ATOM      8  C   UNL     1      35.703 -17.432 -20.655  0.00  0.00    +0.235 C 
BRANCH   8   9
ATOM      9  O   UNL     1      34.592 -18.272 -20.367  0.00  0.00    -0.440 OA
BRANCH   9  11
ATOM     10  O   UNL     1      34.913 -19.832 -22.028  0.00  0.00    -0.245 OA
ATOM     11  C   UNL     1      34.651 -19.533 -20.873  0.00  0.00    +0.341 C 
BRANCH  11  12
ATOM     12  C   UNL     1      34.347 -20.536 -19.820  0.00  0.00    +0.072 C 
ATOM     13  C   UNL     1      35.368 -21.192 -19.134  0.00  0.00    -0.016 C 
ATOM     14  C   UNL     1      33.722 -22.413 -17.853  0.00  0.00    -0.022 C 
ATOM     15  C   UNL     1      35.056 -22.131 -18.150  0.00  0.00    -0.008 C 
ATOM     16  C   UNL     1      33.013 -20.818 -19.524  0.00  0.00    +0.006 C 
ATOM     17  C   UNL     1      32.701 -21.757 -18.540  0.00  0.00    -0.004 C 
ATOM     18  C   UNL     1      36.804 -20.909 -19.431  0.00  0.00    +0.031 C 
ATOM     19  C   UNL     1      33.387 -23.416 -16.803  0.00  0.00    +0.031 C 
ENDBRANCH  11  12
ENDBRANCH   9  11
ENDBRANCH   8   9
ENDBRANCH   5   8
ENDBRANCH   1   2
BRANCH   1  22
ATOM     20  O   UNL     1      32.281 -12.344 -22.183  0.00  0.00    -0.275 OA
ATOM     21  N   UNL     1      33.453 -10.607 -23.250  0.00  0.00    -0.284 N 
ATOM     22  C   UNL     1      33.121 -11.946 -22.985  0.00  0.00    +0.228 C 
ATOM     23  H   UNL     1      34.145 -10.463 -23.935  0.00  0.00    +0.155 HD
BRANCH  21  25
ATOM     24  N   UNL     1      31.628  -4.722 -21.425  0.00  0.00    -0.242 NA
ATOM     25  C   UNL     1      32.926  -9.454 -22.663  0.00  0.00    +0.050 C 
ATOM     26  C   UNL     1      33.220  -8.201 -23.204  0.00  0.00    +0.015 C 
ATOM     27  C   UNL     1      32.700  -7.033 -22.625  0.00  0.00    +0.004 C 
ATOM     28  C   UNL     1      32.109  -9.557 -21.541  0.00  0.00    +0.015 C 
ATOM     29  C   UNL     1      31.872  -7.141 -21.488  0.00  0.00    +0.019 C 
ATOM     30  C   UNL     1      31.582  -8.408 -20.953  0.00  0.00    +0.003 C 
ATOM     31  C   UNL     1      32.976  -5.762 -23.143  0.00  0.00    +0.021 C 
ATOM     32  C   UNL     1      31.372  -5.958 -20.940  0.00  0.00    +0.099 C 
ATOM     33  C   UNL     1      32.423  -4.657 -22.514  0.00  0.00    +0.099 C 
ENDBRANCH  21  25
ENDBRANCH   1  22
BRANCH   1  34
ATOM     34  C   UNL     1      33.120 -13.347 -25.087  0.00  0.00    -0.072 C 
BRANCH  34  35
ATOM     35  N   UNL     1      33.472 -12.562 -26.266  0.00  0.00    +0.381 N 
ATOM     36  H   UNL     1      33.111 -13.022 -27.102  0.00  0.00    -0.089 HD
ATOM     37  H   UNL     1      34.487 -12.485 -26.332  0.00  0.00    -0.089 HD
ATOM     38  H   UNL     1      33.066 -11.630 -26.188  0.00  0.00    -0.089 HD
ENDBRANCH  34  35
ENDBRANCH   1  34
TORSDOF 9
ENDMDL
MODEL 6
REMARK VINA RESULT:     -12.1      3.537      6.935
REMARK  Name = 66599893
REMARK  9 active torsions:
REMARK  status: ('A' for Active; 'I' for Inactive)
REMARK    1  A    between atoms: C_1  and  C_2
REMARK    2  A    between atoms: C_1  and  C_22
REMARK    3  A    between atoms: C_1  and  C_34
REMARK    4  A    between atoms: C_5  and  C_8
REMARK    5  A    between atoms: C_8  and  O_9
REMARK    6  A    between atoms: O_9  and  C_11
REMARK    7  A    between atoms: C_11  and  C_12
REMARK    8  A    between atoms: N_21  and  C_25
REMARK    9  A    between atoms: C_34  and  N_35
REMARK                            x       y       z     vdW  Elec       q    Type
REMARK                         _______ _______ _______ _____ _____    ______ ____
ROOT
ATOM      1  C   UNL     1      31.685 -11.171 -21.146  0.00  0.00    +0.077 C 
ENDROOT
BRANCH   1   2
ATOM      2  C   UNL     1      32.588 -12.319 -21.566  0.00  0.00    -0.016 C 
ATOM      3  C   UNL     1      32.752 -12.621 -22.919  0.00  0.00    -0.004 C 
ATOM      4  C   UNL     1      33.254 -13.073 -20.599  0.00  0.00    -0.004 C 
ATOM      5  C   UNL     1      34.245 -14.427 -22.336  0.00  0.00    +0.021 C 
ATOM      6  C   UNL     1      33.580 -13.675 -23.303  0.00  0.00    -0.001 C 
ATOM      7  C   UNL     1      34.082 -14.127 -20.984  0.00  0.00    -0.001 C 
BRANCH   5   8
ATOM      8  C   UNL     1      35.132 -15.555 -22.747  0.00  0.00    +0.235 C 
BRANCH   8   9
ATOM      9  O   UNL     1      34.984 -16.631 -21.830  0.00  0.00    -0.440 OA
BRANCH   9  11
ATOM     10  O   UNL     1      34.661 -18.115 -23.560  0.00  0.00    -0.245 OA
ATOM     11  C   UNL     1      34.857 -17.870 -22.380  0.00  0.00    +0.341 C 
BRANCH  11  12
ATOM     12  C   UNL     1      34.988 -18.922 -21.340  0.00  0.00    +0.072 C 
ATOM     13  C   UNL     1      36.235 -19.277 -20.827  0.00  0.00    -0.016 C 
ATOM     14  C   UNL     1      35.179 -20.907 -19.388  0.00  0.00    -0.022 C 
ATOM     15  C   UNL     1      36.331 -20.270 -19.851  0.00  0.00    -0.008 C 
ATOM     16  C   UNL     1      33.836 -19.559 -20.877  0.00  0.00    +0.006 C 
ATOM     17  C   UNL     1      33.931 -20.551 -19.902  0.00  0.00    -0.004 C 
ATOM     18  C   UNL     1      37.484 -18.611 -21.304  0.00  0.00    +0.031 C 
ATOM     19  C   UNL     1      35.280 -21.968 -18.346  0.00  0.00    +0.031 C 
ENDBRANCH  11  12
ENDBRANCH   9  11
ENDBRANCH   8   9
ENDBRANCH   5   8
ENDBRANCH   1   2
BRANCH   1  22
ATOM     20  O   UNL     1      33.319  -9.721 -22.181  0.00  0.00    -0.275 OA
ATOM     21  N   UNL     1      31.150  -8.887 -21.817  0.00  0.00    -0.284 N 
ATOM     22  C   UNL     1      32.166  -9.857 -21.781  0.00  0.00    +0.228 C 
ATOM     23  H   UNL     1      30.282  -9.160 -21.443  0.00  0.00    +0.155 HD
BRANCH  21  25
ATOM     24  N   UNL     1      31.662  -2.587 -22.969  0.00  0.00    -0.242 NA
ATOM     25  C   UNL     1      31.217  -7.585 -22.318  0.00  0.00    +0.050 C 
ATOM     26  C   UNL     1      31.465  -6.519 -21.452  0.00  0.00    +0.015 C 
ATOM     27  C   UNL     1      31.533  -5.204 -21.939  0.00  0.00    +0.004 C 
ATOM     28  C   UNL     1      31.037  -7.353 -23.678  0.00  0.00    +0.015 C 
ATOM     29  C   UNL     1      31.350  -4.973 -23.318  0.00  0.00    +0.019 C 
ATOM     30  C   UNL     1      31.102  -6.054 -24.181  0.00  0.00    +0.003 C 
ATOM     31  C   UNL     1      31.780  -4.113 -21.096  0.00  0.00    +0.021 C 
ATOM     32  C   UNL     1      31.426  -3.653 -23.766  0.00  0.00    +0.099 C 
ATOM     33  C   UNL     1      31.834  -2.845 -21.655  0.00  0.00    +0.099 C 
ENDBRANCH  21  25
ENDBRANCH   1  22
BRANCH   1  34
ATOM     34  C   UNL     1      31.581 -11.019 -19.615  0.00  0.00    -0.072 C 
BRANCH  34  35
ATOM     35  N   UNL     1      32.415  -9.928 -19.119  0.00  0.00    +0.381 N 
ATOM     36  H   UNL     1      32.057  -9.608 -18.219  0.00  0.00    -0.089 HD
ATOM     37  H   UNL     1      32.396  -9.155 -19.785  0.00  0.00    -0.089 HD
ATOM     38  H   UNL     1      33.374 -10.256 -19.007  0.00  0.00    -0.089 HD
ENDBRANCH  34  35
ENDBRANCH   1  34
TORSDOF 9
ENDMDL
MODEL 7
REMARK VINA RESULT:     -12.0      4.701      8.577
REMARK  Name = 66599893
REMARK  9 active torsions:
REMARK  status: ('A' for Active; 'I' for Inactive)
REMARK    1  A    between atoms: C_1  and  C_2
REMARK    2  A    between atoms: C_1  and  C_22
REMARK    3  A    between atoms: C_1  and  C_34
REMARK    4  A    between atoms: C_5  and  C_8
REMARK    5  A    between atoms: C_8  and  O_9
REMARK    6  A    between atoms: O_9  and  C_11
REMARK    7  A    between atoms: C_11  and  C_12
REMARK    8  A    between atoms: N_21  and  C_25
REMARK    9  A    between atoms: C_34  and  N_35
REMARK                            x       y       z     vdW  Elec       q    Type
REMARK                         _______ _______ _______ _____ _____    ______ ____
ROOT
ATOM      1  C   UNL     1      31.275  -9.758 -20.843  0.00  0.00    +0.077 C 
ENDROOT
BRANCH   1   2
ATOM      2  C   UNL     1      32.124 -10.799 -21.557  0.00  0.00    -0.016 C 
ATOM      3  C   UNL     1      32.161 -12.111 -21.086  0.00  0.00    -0.004 C 
ATOM      4  C   UNL     1      32.866 -10.441 -22.683  0.00  0.00    -0.004 C 
ATOM      5  C   UNL     1      33.681 -12.708 -22.865  0.00  0.00    +0.021 C 
ATOM      6  C   UNL     1      32.940 -13.065 -21.740  0.00  0.00    -0.001 C 
ATOM      7  C   UNL     1      33.645 -11.395 -23.337  0.00  0.00    -0.001 C 
BRANCH   5   8
ATOM      8  C   UNL     1      34.513 -13.728 -23.566  0.00  0.00    +0.235 C 
BRANCH   8   9
ATOM      9  O   UNL     1      33.863 -14.992 -23.506  0.00  0.00    -0.440 OA
BRANCH   9  11
ATOM     10  O   UNL     1      34.840 -16.104 -25.268  0.00  0.00    -0.245 OA
ATOM     11  C   UNL     1      34.519 -16.030 -24.092  0.00  0.00    +0.341 C 
BRANCH  11  12
ATOM     12  C   UNL     1      34.807 -17.097 -23.099  0.00  0.00    +0.072 C 
ATOM     13  C   UNL     1      34.412 -18.415 -23.324  0.00  0.00    -0.016 C 
ATOM     14  C   UNL     1      35.370 -19.063 -21.203  0.00  0.00    -0.022 C 
ATOM     15  C   UNL     1      34.694 -19.399 -22.376  0.00  0.00    -0.008 C 
ATOM     16  C   UNL     1      35.482 -16.761 -21.926  0.00  0.00    +0.006 C 
ATOM     17  C   UNL     1      35.764 -17.744 -20.978  0.00  0.00    -0.004 C 
ATOM     18  C   UNL     1      33.688 -18.802 -24.572  0.00  0.00    +0.031 C 
ATOM     19  C   UNL     1      35.671 -20.113 -20.188  0.00  0.00    +0.031 C 
ENDBRANCH  11  12
ENDBRANCH   9  11
ENDBRANCH   8   9
ENDBRANCH   5   8
ENDBRANCH   1   2
BRANCH   1  22
ATOM     20  O   UNL     1      32.848  -7.928 -20.691  0.00  0.00    -0.275 OA
ATOM     21  N   UNL     1      30.914  -7.639 -21.997  0.00  0.00    -0.284 N 
ATOM     22  C   UNL     1      31.791  -8.346 -21.158  0.00  0.00    +0.228 C 
ATOM     23  H   UNL     1      30.101  -8.121 -22.272  0.00  0.00    +0.155 HD
BRANCH  21  25
ATOM     24  N   UNL     1      32.051  -2.198 -25.220  0.00  0.00    -0.242 NA
ATOM     25  C   UNL     1      31.049  -6.340 -22.490  0.00  0.00    +0.050 C 
ATOM     26  C   UNL     1      31.641  -6.127 -23.736  0.00  0.00    +0.015 C 
ATOM     27  C   UNL     1      31.787  -4.826 -24.245  0.00  0.00    +0.004 C 
ATOM     28  C   UNL     1      30.594  -5.260 -21.739  0.00  0.00    +0.015 C 
ATOM     29  C   UNL     1      31.324  -3.735 -23.481  0.00  0.00    +0.019 C 
ATOM     30  C   UNL     1      30.728  -3.961 -22.228  0.00  0.00    +0.003 C 
ATOM     31  C   UNL     1      32.376  -4.579 -25.491  0.00  0.00    +0.021 C 
ATOM     32  C   UNL     1      31.484  -2.457 -24.020  0.00  0.00    +0.099 C 
ATOM     33  C   UNL     1      32.482  -3.266 -25.924  0.00  0.00    +0.099 C 
ENDBRANCH  21  25
ENDBRANCH   1  22
BRANCH   1  34
ATOM     34  C   UNL     1      31.213  -9.978 -19.318  0.00  0.00    -0.072 C 
BRANCH  34  35
ATOM     35  N   UNL     1      32.467  -9.614 -18.664  0.00  0.00    +0.381 N 
ATOM     36  H   UNL     1      32.286  -9.377 -17.689  0.00  0.00    -0.089 HD
ATOM     37  H   UNL     1      32.877  -8.810 -19.139  0.00  0.00    -0.089 HD
ATOM     38  H   UNL     1      33.114 -10.401 -18.709  0.00  0.00    -0.089 HD
ENDBRANCH  34  35
ENDBRANCH   1  34
TORSDOF 9
ENDMDL
MODEL 8
REMARK VINA RESULT:     -11.9      2.145      3.580
REMARK  Name = 66599893
REMARK  9 active torsions:
REMARK  status: ('A' for Active; 'I' for Inactive)
REMARK    1  A    between atoms: C_1  and  C_2
REMARK    2  A    between atoms: C_1  and  C_22
REMARK    3  A    between atoms: C_1  and  C_34
REMARK    4  A    between atoms: C_5  and  C_8
REMARK    5  A    between atoms: C_8  and  O_9
REMARK    6  A    between atoms: O_9  and  C_11
REMARK    7  A    between atoms: C_11  and  C_12
REMARK    8  A    between atoms: N_21  and  C_25
REMARK    9  A    between atoms: C_34  and  N_35
REMARK                            x       y       z     vdW  Elec       q    Type
REMARK                         _______ _______ _______ _____ _____    ______ ____
ROOT
ATOM      1  C   UNL     1      36.167 -18.678 -20.551  0.00  0.00    +0.077 C 
ENDROOT
BRANCH   1   2
ATOM      2  C   UNL     1      35.372 -19.843 -19.983  0.00  0.00    -0.016 C 
ATOM      3  C   UNL     1      33.983 -19.868 -20.108  0.00  0.00    -0.004 C 
ATOM      4  C   UNL     1      36.033 -20.888 -19.336  0.00  0.00    -0.004 C 
ATOM      5  C   UNL     1      33.915 -21.981 -18.940  0.00  0.00    +0.021 C 
ATOM      6  C   UNL     1      33.255 -20.937 -19.586  0.00  0.00    -0.001 C 
ATOM      7  C   UNL     1      35.304 -21.957 -18.814  0.00  0.00    -0.001 C 
BRANCH   5   8
ATOM      8  C   UNL     1      33.137 -23.125 -18.382  0.00  0.00    +0.235 C 
BRANCH   8   9
ATOM      9  O   UNL     1      33.777 -23.604 -17.206  0.00  0.00    -0.440 OA
BRANCH   9  11
ATOM     10  O   UNL     1      31.972 -23.054 -15.888  0.00  0.00    -0.245 OA
ATOM     11  C   UNL     1      33.156 -23.317 -16.030  0.00  0.00    +0.341 C 
BRANCH  11  12
ATOM     12  C   UNL     1      34.121 -23.361 -14.902  0.00  0.00    +0.072 C 
ATOM     13  C   UNL     1      33.782 -23.953 -13.686  0.00  0.00    -0.016 C 
ATOM     14  C   UNL     1      35.970 -23.417 -12.813  0.00  0.00    -0.022 C 
ATOM     15  C   UNL     1      34.706 -23.981 -12.642  0.00  0.00    -0.008 C 
ATOM     16  C   UNL     1      35.385 -22.796 -15.074  0.00  0.00    +0.006 C 
ATOM     17  C   UNL     1      36.310 -22.823 -14.030  0.00  0.00    -0.004 C 
ATOM     18  C   UNL     1      32.436 -24.566 -13.475  0.00  0.00    +0.031 C 
ATOM     19  C   UNL     1      36.959 -23.445 -11.698  0.00  0.00    +0.031 C 
ENDBRANCH  11  12
ENDBRANCH   9  11
ENDBRANCH   8   9
ENDBRANCH   5   8
ENDBRANCH   1   2
BRANCH   1  22
ATOM     20  O   UNL     1      35.167 -18.928 -22.738  0.00  0.00    -0.275 OA
ATOM     21  N   UNL     1      35.375 -16.764 -21.841  0.00  0.00    -0.284 N 
ATOM     22  C   UNL     1      35.507 -18.163 -21.839  0.00  0.00    +0.228 C 
ATOM     23  H   UNL     1      35.711 -16.300 -21.040  0.00  0.00    +0.155 HD
BRANCH  21  25
ATOM     24  N   UNL     1      33.067 -12.116 -25.629  0.00  0.00    -0.242 NA
ATOM     25  C   UNL     1      34.827 -15.950 -22.833  0.00  0.00    +0.050 C 
ATOM     26  C   UNL     1      34.728 -14.573 -22.627  0.00  0.00    +0.015 C 
ATOM     27  C   UNL     1      34.177 -13.740 -23.615  0.00  0.00    +0.004 C 
ATOM     28  C   UNL     1      34.380 -16.512 -24.025  0.00  0.00    +0.015 C 
ATOM     29  C   UNL     1      33.726 -14.313 -24.822  0.00  0.00    +0.019 C 
ATOM     30  C   UNL     1      33.831 -15.701 -25.018  0.00  0.00    +0.003 C 
ATOM     31  C   UNL     1      34.064 -12.355 -23.439  0.00  0.00    +0.021 C 
ATOM     32  C   UNL     1      33.185 -13.455 -25.781  0.00  0.00    +0.099 C 
ATOM     33  C   UNL     1      33.510 -11.602 -24.462  0.00  0.00    +0.099 C 
ENDBRANCH  21  25
ENDBRANCH   1  22
BRANCH   1  34
ATOM     34  C   UNL     1      37.645 -19.030 -20.811  0.00  0.00    -0.072 C 
BRANCH  34  35
ATOM     35  N   UNL     1      38.198 -18.269 -21.928  0.00  0.00    +0.381 N 
ATOM     36  H   UNL     1      38.933 -18.813 -22.380  0.00  0.00    -0.089 HD
ATOM     37  H   UNL     1      38.589 -17.393 -21.582  0.00  0.00    -0.089 HD
ATOM     38  H   UNL     1      37.459 -18.068 -22.602  0.00  0.00    -0.089 HD
ENDBRANCH  34  35
ENDBRANCH   1  34
TORSDOF 9
ENDMDL
MODEL 9
REMARK VINA RESULT:     -11.7      1.536      2.587
REMARK  Name = 66599893
REMARK  9 active torsions:
REMARK  status: ('A' for Active; 'I' for Inactive)
REMARK    1  A    between atoms: C_1  and  C_2
REMARK    2  A    between atoms: C_1  and  C_22
REMARK    3  A    between atoms: C_1  and  C_34
REMARK    4  A    between atoms: C_5  and  C_8
REMARK    5  A    between atoms: C_8  and  O_9
REMARK    6  A    between atoms: O_9  and  C_11
REMARK    7  A    between atoms: C_11  and  C_12
REMARK    8  A    between atoms: N_21  and  C_25
REMARK    9  A    between atoms: C_34  and  N_35
REMARK                            x       y       z     vdW  Elec       q    Type
REMARK                         _______ _______ _______ _____ _____    ______ ____
ROOT
ATOM      1  C   UNL     1      34.738 -15.707 -23.499  0.00  0.00    +0.077 C 
ENDROOT
BRANCH   1   2
ATOM      2  C   UNL     1      34.935 -16.982 -22.693  0.00  0.00    -0.016 C 
ATOM      3  C   UNL     1      34.616 -18.219 -23.254  0.00  0.00    -0.004 C 
ATOM      4  C   UNL     1      35.435 -16.914 -21.392  0.00  0.00    -0.004 C 
ATOM      5  C   UNL     1      35.296 -19.320 -21.215  0.00  0.00    +0.021 C 
ATOM      6  C   UNL     1      34.796 -19.387 -22.514  0.00  0.00    -0.001 C 
ATOM      7  C   UNL     1      35.614 -18.084 -20.653  0.00  0.00    -0.001 C 
BRANCH   5   8
ATOM      8  C   UNL     1      35.489 -20.570 -20.424  0.00  0.00    +0.235 C 
BRANCH   8   9
ATOM      9  O   UNL     1      34.635 -20.548 -19.287  0.00  0.00    -0.440 OA
BRANCH   9  11
ATOM     10  O   UNL     1      33.383 -22.479 -19.304  0.00  0.00    -0.245 OA
ATOM     11  C   UNL     1      34.240 -21.761 -18.814  0.00  0.00    +0.341 C 
BRANCH  11  12
ATOM     12  C   UNL     1      35.000 -22.119 -17.589  0.00  0.00    +0.072 C 
ATOM     13  C   UNL     1      34.394 -22.812 -16.542  0.00  0.00    -0.016 C 
ATOM     14  C   UNL     1      36.472 -22.766 -15.309  0.00  0.00    -0.022 C 
ATOM     15  C   UNL     1      35.130 -23.135 -15.402  0.00  0.00    -0.008 C 
ATOM     16  C   UNL     1      36.342 -21.749 -17.497  0.00  0.00    +0.006 C 
ATOM     17  C   UNL     1      37.078 -22.073 -16.357  0.00  0.00    -0.004 C 
ATOM     18  C   UNL     1      32.959 -23.220 -16.614  0.00  0.00    +0.031 C 
ATOM     19  C   UNL     1      37.260 -23.110 -14.091  0.00  0.00    +0.031 C 
ENDBRANCH  11  12
ENDBRANCH   9  11
ENDBRANCH   8   9
ENDBRANCH   5   8
ENDBRANCH   1   2
BRANCH   1  22
ATOM     20  O   UNL     1      35.329 -14.276 -21.642  0.00  0.00    -0.275 OA
ATOM     21  N   UNL     1      33.390 -13.773 -22.874  0.00  0.00    -0.284 N 
ATOM     22  C   UNL     1      34.544 -14.509 -22.558  0.00  0.00    +0.228 C 
ATOM     23  H   UNL     1      32.863 -14.105 -23.636  0.00  0.00    +0.155 HD
BRANCH  21  25
ATOM     24  N   UNL     1      31.596  -7.922 -20.914  0.00  0.00    -0.242 NA
ATOM     25  C   UNL     1      32.895 -12.629 -22.243  0.00  0.00    +0.050 C 
ATOM     26  C   UNL     1      33.089 -11.375 -22.825  0.00  0.00    +0.015 C 
ATOM     27  C   UNL     1      32.600 -10.215 -22.202  0.00  0.00    +0.004 C 
ATOM     28  C   UNL     1      32.210 -12.742 -21.037  0.00  0.00    +0.015 C 
ATOM     29  C   UNL     1      31.906 -10.333 -20.980  0.00  0.00    +0.019 C 
ATOM     30  C   UNL     1      31.716 -11.601 -20.404  0.00  0.00    +0.003 C 
ATOM     31  C   UNL     1      32.778  -8.943 -22.760  0.00  0.00    +0.021 C 
ATOM     32  C   UNL     1      31.433  -9.159 -20.391  0.00  0.00    +0.099 C 
ATOM     33  C   UNL     1      32.264  -7.847 -22.084  0.00  0.00    +0.099 C 
ENDBRANCH  21  25
ENDBRANCH   1  22
BRANCH   1  34
ATOM     34  C   UNL     1      33.564 -15.802 -24.494  0.00  0.00    -0.072 C 
BRANCH  34  35
ATOM     35  N   UNL     1      33.869 -15.144 -25.761  0.00  0.00    +0.381 N 
ATOM     36  H   UNL     1      34.352 -14.264 -25.579  0.00  0.00    -0.089 HD
ATOM     37  H   UNL     1      33.003 -14.957 -26.265  0.00  0.00    -0.089 HD
ATOM     38  H   UNL     1      34.466 -15.750 -26.324  0.00  0.00    -0.089 HD
ENDBRANCH  34  35
ENDBRANCH   1  34
TORSDOF 9
ENDMDL
