MODEL 1
REMARK VINA RESULT:     -11.7      0.000      0.000
REMARK  Name = 10250490
REMARK  6 active torsions:
REMARK  status: ('A' for Active; 'I' for Inactive)
REMARK    1  A    between atoms: N_2  and  C_18
REMARK    2  A    between atoms: C_3  and  C_6
REMARK    3  A    between atoms: C_5  and  N_12
REMARK    4  A    between atoms: C_18  and  C_19
REMARK    5  A    between atoms: C_19  and  N_21
REMARK    6  A    between atoms: C_22  and  C_26
REMARK                            x       y       z     vdW  Elec       q    Type
REMARK                         _______ _______ _______ _____ _____    ______ ____
ROOT
ATOM      1  O   UNL     1      33.843 -23.585 -17.621  0.00  0.00    -0.270 OA
ATOM      2  N   UNL     1      35.559 -22.482 -16.520  0.00  0.00    -0.299 N 
ATOM      3  C   UNL     1      34.642 -22.634 -17.566  0.00  0.00    +0.246 C 
ATOM      4  H   UNL     1      36.163 -21.705 -16.538  0.00  0.00    +0.150 HD
ENDROOT
BRANCH   3   6
ATOM      5  C   UNL     1      34.726 -19.710 -20.642  0.00  0.00    +0.058 C 
ATOM      6  C   UNL     1      34.671 -21.633 -18.620  0.00  0.00    +0.053 C 
ATOM      7  C   UNL     1      35.920 -20.206 -20.117  0.00  0.00    +0.015 C 
ATOM      8  C   UNL     1      33.504 -20.176 -20.155  0.00  0.00    +0.015 C 
ATOM      9  C   UNL     1      35.892 -21.168 -19.107  0.00  0.00    +0.006 C 
ATOM     10  C   UNL     1      33.477 -21.137 -19.144  0.00  0.00    +0.006 C 
BRANCH   5  12
ATOM     11  O   UNL     1      35.456 -16.934 -20.285  0.00  0.00    -0.269 OA
ATOM     12  N   UNL     1      34.756 -18.710 -21.691  0.00  0.00    -0.233 N 
ATOM     13  C   UNL     1      35.172 -17.386 -21.394  0.00  0.00    +0.257 C 
ATOM     14  C   UNL     1      34.356 -19.033 -22.989  0.00  0.00    +0.072 C 
ATOM     15  C   UNL     1      35.219 -16.430 -22.544  0.00  0.00    +0.059 C 
ATOM     16  C   UNL     1      34.374 -18.151 -23.994  0.00  0.00    +0.017 C 
ATOM     17  C   UNL     1      34.826 -16.812 -23.762  0.00  0.00    +0.006 C 
ENDBRANCH   5  12
ENDBRANCH   3   6
BRANCH   2  18
ATOM     18  C   UNL     1      35.668 -23.405 -15.413  0.00  0.00    +0.111 C 
BRANCH  18  19
ATOM     19  C   UNL     1      34.756 -23.028 -14.258  0.00  0.00    +0.111 C 
BRANCH  19  21
ATOM     20  O   UNL     1      32.889 -24.533 -12.681  0.00  0.00    -0.270 OA
ATOM     21  N   UNL     1      33.372 -23.268 -14.564  0.00  0.00    -0.299 N 
ATOM     22  C   UNL     1      32.540 -24.013 -13.737  0.00  0.00    +0.252 C 
ATOM     23  H   UNL     1      32.999 -22.890 -15.393  0.00  0.00    +0.150 HD
BRANCH  22  26
ATOM     24 CL   UNL     1      27.851 -23.493 -16.518  0.00  0.00    -0.075 Cl
ATOM     25  S   UNL     1      30.624 -23.229 -15.487  0.00  0.00    -0.071 S 
ATOM     26  C   UNL     1      31.142 -24.192 -14.207  0.00  0.00    +0.084 C 
ATOM     27  C   UNL     1      30.232 -25.049 -13.717  0.00  0.00    +0.012 C 
ATOM     28  C   UNL     1      29.006 -24.922 -14.433  0.00  0.00    +0.019 C 
ATOM     29  C   UNL     1      29.080 -23.968 -15.423  0.00  0.00    +0.087 C 
ENDBRANCH  22  26
ENDBRANCH  19  21
ENDBRANCH  18  19
ENDBRANCH   2  18
TORSDOF 6
ENDMDL
MODEL 2
REMARK VINA RESULT:     -11.6      2.937      3.933
REMARK  Name = 10250490
REMARK  6 active torsions:
REMARK  status: ('A' for Active; 'I' for Inactive)
REMARK    1  A    between atoms: N_2  and  C_18
REMARK    2  A    between atoms: C_3  and  C_6
REMARK    3  A    between atoms: C_5  and  N_12
REMARK    4  A    between atoms: C_18  and  C_19
REMARK    5  A    between atoms: C_19  and  N_21
REMARK    6  A    between atoms: C_22  and  C_26
REMARK                            x       y       z     vdW  Elec       q    Type
REMARK                         _______ _______ _______ _____ _____    ______ ____
ROOT
ATOM      1  O   UNL     1      34.356 -23.416 -17.263  0.00  0.00    -0.270 OA
ATOM      2  N   UNL     1      32.183 -22.628 -17.084  0.00  0.00    -0.299 N 
ATOM      3  C   UNL     1      33.469 -22.628 -17.635  0.00  0.00    +0.246 C 
ATOM      4  H   UNL     1      31.528 -21.977 -17.426  0.00  0.00    +0.150 HD
ENDROOT
BRANCH   3   6
ATOM      5  C   UNL     1      34.275 -19.736 -20.636  0.00  0.00    +0.058 C 
ATOM      6  C   UNL     1      33.746 -21.638 -18.664  0.00  0.00    +0.053 C 
ATOM      7  C   UNL     1      35.326 -20.428 -20.033  0.00  0.00    +0.015 C 
ATOM      8  C   UNL     1      32.959 -19.997 -20.253  0.00  0.00    +0.015 C 
ATOM      9  C   UNL     1      35.061 -21.379 -19.047  0.00  0.00    +0.006 C 
ATOM     10  C   UNL     1      32.695 -20.947 -19.267  0.00  0.00    +0.006 C 
BRANCH   5  12
ATOM     11  O   UNL     1      35.470 -17.143 -20.177  0.00  0.00    -0.269 OA
ATOM     12  N   UNL     1      34.551 -18.747 -21.660  0.00  0.00    -0.233 N 
ATOM     13  C   UNL     1      35.180 -17.524 -21.310  0.00  0.00    +0.257 C 
ATOM     14  C   UNL     1      34.182 -18.980 -22.986  0.00  0.00    +0.072 C 
ATOM     15  C   UNL     1      35.472 -16.581 -22.434  0.00  0.00    +0.059 C 
ATOM     16  C   UNL     1      34.424 -18.105 -23.970  0.00  0.00    +0.017 C 
ATOM     17  C   UNL     1      35.095 -16.873 -23.682  0.00  0.00    +0.006 C 
ENDBRANCH   5  12
ENDBRANCH   3   6
BRANCH   2  18
ATOM     18  C   UNL     1      31.762 -23.533 -16.039  0.00  0.00    +0.111 C 
BRANCH  18  19
ATOM     19  C   UNL     1      31.963 -22.944 -14.653  0.00  0.00    +0.111 C 
BRANCH  19  21
ATOM     20  O   UNL     1      32.762 -24.644 -12.483  0.00  0.00    -0.270 OA
ATOM     21  N   UNL     1      33.302 -23.147 -14.170  0.00  0.00    -0.299 N 
ATOM     22  C   UNL     1      33.595 -23.993 -13.108  0.00  0.00    +0.252 C 
ATOM     23  H   UNL     1      34.040 -22.666 -14.610  0.00  0.00    +0.150 HD
BRANCH  22  26
ATOM     24 CL   UNL     1      38.964 -25.070 -13.098  0.00  0.00    -0.075 Cl
ATOM     25  S   UNL     1      36.082 -24.845 -13.774  0.00  0.00    -0.071 S 
ATOM     26  C   UNL     1      35.025 -24.074 -12.713  0.00  0.00    +0.084 C 
ATOM     27  C   UNL     1      35.577 -23.594 -11.587  0.00  0.00    +0.012 C 
ATOM     28  C   UNL     1      36.976 -23.869 -11.572  0.00  0.00    +0.019 C 
ATOM     29  C   UNL     1      37.383 -24.544 -12.701  0.00  0.00    +0.087 C 
ENDBRANCH  22  26
ENDBRANCH  19  21
ENDBRANCH  18  19
ENDBRANCH   2  18
TORSDOF 6
ENDMDL
MODEL 3
REMARK VINA RESULT:     -11.2      1.337      1.551
REMARK  Name = 10250490
REMARK  6 active torsions:
REMARK  status: ('A' for Active; 'I' for Inactive)
REMARK    1  A    between atoms: N_2  and  C_18
REMARK    2  A    between atoms: C_3  and  C_6
REMARK    3  A    between atoms: C_5  and  N_12
REMARK    4  A    between atoms: C_18  and  C_19
REMARK    5  A    between atoms: C_19  and  N_21
REMARK    6  A    between atoms: C_22  and  C_26
REMARK                            x       y       z     vdW  Elec       q    Type
REMARK                         _______ _______ _______ _____ _____    ______ ____
ROOT
ATOM      1  O   UNL     1      34.734 -22.980 -17.817  0.00  0.00    -0.270 OA
ATOM      2  N   UNL     1      36.556 -21.770 -17.048  0.00  0.00    -0.299 N 
ATOM      3  C   UNL     1      35.494 -22.003 -17.930  0.00  0.00    +0.246 C 
ATOM      4  H   UNL     1      37.119 -20.975 -17.195  0.00  0.00    +0.150 HD
ENDROOT
BRANCH   3   6
ATOM      5  C   UNL     1      34.986 -19.236 -21.108  0.00  0.00    +0.058 C 
ATOM      6  C   UNL     1      35.321 -21.055 -19.019  0.00  0.00    +0.053 C 
ATOM      7  C   UNL     1      36.259 -19.482 -20.593  0.00  0.00    +0.015 C 
ATOM      8  C   UNL     1      33.880 -19.902 -20.578  0.00  0.00    +0.015 C 
ATOM      9  C   UNL     1      36.426 -20.391 -19.549  0.00  0.00    +0.006 C 
ATOM     10  C   UNL     1      34.047 -20.811 -19.534  0.00  0.00    +0.006 C 
BRANCH   5  12
ATOM     11  O   UNL     1      35.407 -16.381 -20.919  0.00  0.00    -0.269 OA
ATOM     12  N   UNL     1      34.812 -18.290 -22.193  0.00  0.00    -0.233 N 
ATOM     13  C   UNL     1      35.091 -16.914 -21.982  0.00  0.00    +0.257 C 
ATOM     14  C   UNL     1      34.351 -18.718 -23.439  0.00  0.00    +0.072 C 
ATOM     15  C   UNL     1      34.932 -16.014 -23.167  0.00  0.00    +0.059 C 
ATOM     16  C   UNL     1      34.185 -17.887 -24.475  0.00  0.00    +0.017 C 
ATOM     17  C   UNL     1      34.492 -16.495 -24.332  0.00  0.00    +0.006 C 
ENDBRANCH   5  12
ENDBRANCH   3   6
BRANCH   2  18
ATOM     18  C   UNL     1      36.872 -22.632 -15.932  0.00  0.00    +0.111 C 
BRANCH  18  19
ATOM     19  C   UNL     1      36.102 -22.253 -14.678  0.00  0.00    +0.111 C 
BRANCH  19  21
ATOM     20  O   UNL     1      34.691 -24.582 -13.769  0.00  0.00    -0.270 OA
ATOM     21  N   UNL     1      34.693 -22.510 -14.812  0.00  0.00    -0.299 N 
ATOM     22  C   UNL     1      34.095 -23.672 -14.339  0.00  0.00    +0.252 C 
ATOM     23  H   UNL     1      34.130 -21.835 -15.257  0.00  0.00    +0.150 HD
BRANCH  22  26
ATOM     24 CL   UNL     1      28.852 -25.213 -13.982  0.00  0.00    -0.075 Cl
ATOM     25  S   UNL     1      31.778 -24.870 -13.602  0.00  0.00    -0.071 S 
ATOM     26  C   UNL     1      32.634 -23.799 -14.579  0.00  0.00    +0.084 C 
ATOM     27  C   UNL     1      31.911 -23.146 -15.501  0.00  0.00    +0.012 C 
ATOM     28  C   UNL     1      30.543 -23.539 -15.419  0.00  0.00    +0.019 C 
ATOM     29  C   UNL     1      30.331 -24.472 -14.428  0.00  0.00    +0.087 C 
ENDBRANCH  22  26
ENDBRANCH  19  21
ENDBRANCH  18  19
ENDBRANCH   2  18
TORSDOF 6
ENDMDL
MODEL 4
REMARK VINA RESULT:     -11.0      5.303     10.334
REMARK  Name = 10250490
REMARK  6 active torsions:
REMARK  status: ('A' for Active; 'I' for Inactive)
REMARK    1  A    between atoms: N_2  and  C_18
REMARK    2  A    between atoms: C_3  and  C_6
REMARK    3  A    between atoms: C_5  and  N_12
REMARK    4  A    between atoms: C_18  and  C_19
REMARK    5  A    between atoms: C_19  and  N_21
REMARK    6  A    between atoms: C_22  and  C_26
REMARK                            x       y       z     vdW  Elec       q    Type
REMARK                         _______ _______ _______ _____ _____    ______ ____
ROOT
ATOM      1  O   UNL     1      35.664 -14.850 -23.307  0.00  0.00    -0.270 OA
ATOM      2  N   UNL     1      34.272 -15.977 -24.779  0.00  0.00    -0.299 N 
ATOM      3  C   UNL     1      34.985 -15.854 -23.581  0.00  0.00    +0.246 C 
ATOM      4  H   UNL     1      33.753 -16.800 -24.932  0.00  0.00    +0.150 HD
ENDROOT
BRANCH   3   6
ATOM      5  C   UNL     1      34.800 -19.131 -20.889  0.00  0.00    +0.058 C 
ATOM      6  C   UNL     1      34.921 -16.976 -22.658  0.00  0.00    +0.053 C 
ATOM      7  C   UNL     1      35.232 -17.882 -20.440  0.00  0.00    +0.015 C 
ATOM      8  C   UNL     1      34.429 -19.301 -22.223  0.00  0.00    +0.015 C 
ATOM      9  C   UNL     1      35.292 -16.805 -21.325  0.00  0.00    +0.006 C 
ATOM     10  C   UNL     1      34.489 -18.225 -23.107  0.00  0.00    +0.006 C 
BRANCH   5  12
ATOM     11  O   UNL     1      32.372 -20.348 -19.896  0.00  0.00    -0.269 OA
ATOM     12  N   UNL     1      34.739 -20.250 -19.969  0.00  0.00    -0.233 N 
ATOM     13  C   UNL     1      33.481 -20.784 -19.587  0.00  0.00    +0.257 C 
ATOM     14  C   UNL     1      35.910 -20.794 -19.437  0.00  0.00    +0.072 C 
ATOM     15  C   UNL     1      33.510 -21.967 -18.673  0.00  0.00    +0.059 C 
ATOM     16  C   UNL     1      35.908 -21.833 -18.594  0.00  0.00    +0.017 C 
ATOM     17  C   UNL     1      34.669 -22.439 -18.208  0.00  0.00    +0.006 C 
ENDBRANCH   5  12
ENDBRANCH   3   6
BRANCH   2  18
ATOM     18  C   UNL     1      34.255 -14.959 -25.806  0.00  0.00    +0.111 C 
BRANCH  18  19
ATOM     19  C   UNL     1      33.058 -14.033 -25.676  0.00  0.00    +0.111 C 
BRANCH  19  21
ATOM     20  O   UNL     1      33.904 -11.747 -24.159  0.00  0.00    -0.270 OA
ATOM     21  N   UNL     1      32.742 -13.749 -24.302  0.00  0.00    -0.299 N 
ATOM     22  C   UNL     1      33.199 -12.612 -23.647  0.00  0.00    +0.252 C 
ATOM     23  H   UNL     1      32.179 -14.388 -23.806  0.00  0.00    +0.150 HD
BRANCH  22  26
ATOM     24 CL   UNL     1      31.562 -10.549 -18.846  0.00  0.00    -0.075 Cl
ATOM     25  S   UNL     1      32.366 -10.946 -21.677  0.00  0.00    -0.071 S 
ATOM     26  C   UNL     1      32.806 -12.478 -22.220  0.00  0.00    +0.084 C 
ATOM     27  C   UNL     1      32.763 -13.457 -21.302  0.00  0.00    +0.012 C 
ATOM     28  C   UNL     1      32.339 -12.932 -20.047  0.00  0.00    +0.019 C 
ATOM     29  C   UNL     1      32.089 -11.579 -20.109  0.00  0.00    +0.087 C 
ENDBRANCH  22  26
ENDBRANCH  19  21
ENDBRANCH  18  19
ENDBRANCH   2  18
TORSDOF 6
ENDMDL
MODEL 5
REMARK VINA RESULT:     -10.9      3.282      4.471
REMARK  Name = 10250490
REMARK  6 active torsions:
REMARK  status: ('A' for Active; 'I' for Inactive)
REMARK    1  A    between atoms: N_2  and  C_18
REMARK    2  A    between atoms: C_3  and  C_6
REMARK    3  A    between atoms: C_5  and  N_12
REMARK    4  A    between atoms: C_18  and  C_19
REMARK    5  A    between atoms: C_19  and  N_21
REMARK    6  A    between atoms: C_22  and  C_26
REMARK                            x       y       z     vdW  Elec       q    Type
REMARK                         _______ _______ _______ _____ _____    ______ ____
ROOT
ATOM      1  O   UNL     1      33.979 -23.730 -17.966  0.00  0.00    -0.270 OA
ATOM      2  N   UNL     1      32.280 -22.435 -17.066  0.00  0.00    -0.299 N 
ATOM      3  C   UNL     1      33.338 -22.665 -17.952  0.00  0.00    +0.246 C 
ATOM      4  H   UNL     1      31.814 -21.569 -17.109  0.00  0.00    +0.150 HD
ENDROOT
BRANCH   3   6
ATOM      5  C   UNL     1      34.350 -19.509 -20.605  0.00  0.00    +0.058 C 
ATOM      6  C   UNL     1      33.684 -21.583 -18.861  0.00  0.00    +0.053 C 
ATOM      7  C   UNL     1      33.011 -19.776 -20.316  0.00  0.00    +0.015 C 
ATOM      8  C   UNL     1      35.356 -20.280 -20.021  0.00  0.00    +0.015 C 
ATOM      9  C   UNL     1      32.679 -20.812 -19.443  0.00  0.00    +0.006 C 
ATOM     10  C   UNL     1      35.023 -21.317 -19.150  0.00  0.00    +0.006 C 
BRANCH   5  12
ATOM     11  O   UNL     1      34.544 -19.745 -23.481  0.00  0.00    -0.269 OA
ATOM     12  N   UNL     1      34.695 -18.433 -21.513  0.00  0.00    -0.233 N 
ATOM     13  C   UNL     1      34.717 -18.667 -22.912  0.00  0.00    +0.257 C 
ATOM     14  C   UNL     1      35.028 -17.170 -21.019  0.00  0.00    +0.072 C 
ATOM     15  C   UNL     1      35.036 -17.491 -23.779  0.00  0.00    +0.059 C 
ATOM     16  C   UNL     1      35.343 -16.141 -21.814  0.00  0.00    +0.017 C 
ATOM     17  C   UNL     1      35.339 -16.308 -23.236  0.00  0.00    +0.006 C 
ENDBRANCH   5  12
ENDBRANCH   3   6
BRANCH   2  18
ATOM     18  C   UNL     1      31.833 -23.402 -16.088  0.00  0.00    +0.111 C 
BRANCH  18  19
ATOM     19  C   UNL     1      32.566 -23.261 -14.764  0.00  0.00    +0.111 C 
BRANCH  19  21
ATOM     20  O   UNL     1      34.102 -24.109 -12.492  0.00  0.00    -0.270 OA
ATOM     21  N   UNL     1      33.851 -23.907 -14.789  0.00  0.00    -0.299 N 
ATOM     22  C   UNL     1      34.523 -24.283 -13.633  0.00  0.00    +0.252 C 
ATOM     23  H   UNL     1      34.271 -24.089 -15.661  0.00  0.00    +0.150 HD
BRANCH  22  26
ATOM     24 CL   UNL     1      39.888 -25.354 -13.394  0.00  0.00    -0.075 Cl
ATOM     25  S   UNL     1      37.176 -24.185 -13.083  0.00  0.00    -0.071 S 
ATOM     26  C   UNL     1      35.853 -24.915 -13.826  0.00  0.00    +0.084 C 
ATOM     27  C   UNL     1      36.122 -26.020 -14.539  0.00  0.00    +0.012 C 
ATOM     28  C   UNL     1      37.517 -26.310 -14.486  0.00  0.00    +0.019 C 
ATOM     29  C   UNL     1      38.208 -25.391 -13.727  0.00  0.00    +0.087 C 
ENDBRANCH  22  26
ENDBRANCH  19  21
ENDBRANCH  18  19
ENDBRANCH   2  18
TORSDOF 6
ENDMDL
MODEL 6
REMARK VINA RESULT:     -10.9      6.742     11.739
REMARK  Name = 10250490
REMARK  6 active torsions:
REMARK  status: ('A' for Active; 'I' for Inactive)
REMARK    1  A    between atoms: N_2  and  C_18
REMARK    2  A    between atoms: C_3  and  C_6
REMARK    3  A    between atoms: C_5  and  N_12
REMARK    4  A    between atoms: C_18  and  C_19
REMARK    5  A    between atoms: C_19  and  N_21
REMARK    6  A    between atoms: C_22  and  C_26
REMARK                            x       y       z     vdW  Elec       q    Type
REMARK                         _______ _______ _______ _____ _____    ______ ____
ROOT
ATOM      1  O   UNL     1      34.621 -15.652 -25.881  0.00  0.00    -0.270 OA
ATOM      2  N   UNL     1      33.240 -14.537 -24.390  0.00  0.00    -0.299 N 
ATOM      3  C   UNL     1      34.128 -15.559 -24.743  0.00  0.00    +0.246 C 
ATOM      4  H   UNL     1      32.887 -14.523 -23.470  0.00  0.00    +0.150 HD
ENDROOT
BRANCH   3   6
ATOM      5  C   UNL     1      35.047 -18.428 -21.753  0.00  0.00    +0.058 C 
ATOM      6  C   UNL     1      34.443 -16.543 -23.720  0.00  0.00    +0.053 C 
ATOM      7  C   UNL     1      34.520 -18.840 -22.977  0.00  0.00    +0.015 C 
ATOM      8  C   UNL     1      35.273 -17.073 -21.513  0.00  0.00    +0.015 C 
ATOM      9  C   UNL     1      34.218 -17.897 -23.960  0.00  0.00    +0.006 C 
ATOM     10  C   UNL     1      34.971 -16.130 -22.496  0.00  0.00    +0.006 C 
BRANCH   5  12
ATOM     11  O   UNL     1      37.682 -18.940 -20.677  0.00  0.00    -0.269 OA
ATOM     12  N   UNL     1      35.359 -19.409 -20.732  0.00  0.00    -0.233 N 
ATOM     13  C   UNL     1      36.690 -19.536 -20.257  0.00  0.00    +0.257 C 
ATOM     14  C   UNL     1      34.363 -20.245 -20.225  0.00  0.00    +0.072 C 
ATOM     15  C   UNL     1      36.916 -20.538 -19.169  0.00  0.00    +0.059 C 
ATOM     16  C   UNL     1      34.596 -21.158 -19.275  0.00  0.00    +0.017 C 
ATOM     17  C   UNL     1      35.913 -21.301 -18.729  0.00  0.00    +0.006 C 
ENDBRANCH   5  12
ENDBRANCH   3   6
BRANCH   2  18
ATOM     18  C   UNL     1      32.811 -13.500 -25.301  0.00  0.00    +0.111 C 
BRANCH  18  19
ATOM     19  C   UNL     1      33.811 -12.359 -25.383  0.00  0.00    +0.111 C 
BRANCH  19  21
ATOM     20  O   UNL     1      33.799 -12.110 -22.523  0.00  0.00    -0.270 OA
ATOM     21  N   UNL     1      33.386 -11.215 -24.622  0.00  0.00    -0.299 N 
ATOM     22  C   UNL     1      33.415 -11.185 -23.234  0.00  0.00    +0.252 C 
ATOM     23  H   UNL     1      33.060 -10.421 -25.106  0.00  0.00    +0.150 HD
BRANCH  22  26
ATOM     24 CL   UNL     1      32.842  -5.951 -21.729  0.00  0.00    -0.075 Cl
ATOM     25  S   UNL     1      33.739  -8.509 -22.941  0.00  0.00    -0.071 S 
ATOM     26  C   UNL     1      32.918  -9.938 -22.596  0.00  0.00    +0.084 C 
ATOM     27  C   UNL     1      31.872  -9.823 -21.764  0.00  0.00    +0.012 C 
ATOM     28  C   UNL     1      31.712  -8.464 -21.363  0.00  0.00    +0.019 C 
ATOM     29  C   UNL     1      32.661  -7.642 -21.931  0.00  0.00    +0.087 C 
ENDBRANCH  22  26
ENDBRANCH  19  21
ENDBRANCH  18  19
ENDBRANCH   2  18
TORSDOF 6
ENDMDL
MODEL 7
REMARK VINA RESULT:     -10.7      7.663     12.735
REMARK  Name = 10250490
REMARK  6 active torsions:
REMARK  status: ('A' for Active; 'I' for Inactive)
REMARK    1  A    between atoms: N_2  and  C_18
REMARK    2  A    between atoms: C_3  and  C_6
REMARK    3  A    between atoms: C_5  and  N_12
REMARK    4  A    between atoms: C_18  and  C_19
REMARK    5  A    between atoms: C_19  and  N_21
REMARK    6  A    between atoms: C_22  and  C_26
REMARK                            x       y       z     vdW  Elec       q    Type
REMARK                         _______ _______ _______ _____ _____    ______ ____
ROOT
ATOM      1  O   UNL     1      33.892 -14.238 -24.731  0.00  0.00    -0.270 OA
ATOM      2  N   UNL     1      34.556 -12.970 -22.908  0.00  0.00    -0.299 N 
ATOM      3  C   UNL     1      34.330 -14.182 -23.569  0.00  0.00    +0.246 C 
ATOM      4  H   UNL     1      34.905 -12.998 -21.987  0.00  0.00    +0.150 HD
ENDROOT
BRANCH   3   6
ATOM      5  C   UNL     1      35.143 -17.739 -21.400  0.00  0.00    +0.058 C 
ATOM      6  C   UNL     1      34.609 -15.401 -22.827  0.00  0.00    +0.053 C 
ATOM      7  C   UNL     1      34.964 -17.790 -22.783  0.00  0.00    +0.015 C 
ATOM      8  C   UNL     1      35.055 -16.518 -20.731  0.00  0.00    +0.015 C 
ATOM      9  C   UNL     1      34.698 -16.621 -23.496  0.00  0.00    +0.006 C 
ATOM     10  C   UNL     1      34.788 -15.349 -21.444  0.00  0.00    +0.006 C 
BRANCH   5  12
ATOM     11  O   UNL     1      37.778 -18.726 -20.729  0.00  0.00    -0.269 OA
ATOM     12  N   UNL     1      35.419 -18.954 -20.659  0.00  0.00    -0.233 N 
ATOM     13  C   UNL     1      36.760 -19.310 -20.358  0.00  0.00    +0.257 C 
ATOM     14  C   UNL     1      34.376 -19.791 -20.258  0.00  0.00    +0.072 C 
ATOM     15  C   UNL     1      36.953 -20.554 -19.549  0.00  0.00    +0.059 C 
ATOM     16  C   UNL     1      34.577 -20.917 -19.564  0.00  0.00    +0.017 C 
ATOM     17  C   UNL     1      35.906 -21.303 -19.195  0.00  0.00    +0.006 C 
ENDBRANCH   5  12
ENDBRANCH   3   6
BRANCH   2  18
ATOM     18  C   UNL     1      34.304 -11.677 -23.502  0.00  0.00    +0.111 C 
BRANCH  18  19
ATOM     19  C   UNL     1      32.997 -11.068 -23.022  0.00  0.00    +0.111 C 
BRANCH  19  21
ATOM     20  O   UNL     1      31.420  -9.342 -21.357  0.00  0.00    -0.270 OA
ATOM     21  N   UNL     1      33.057  -9.632 -22.974  0.00  0.00    -0.299 N 
ATOM     22  C   UNL     1      32.250  -8.876 -22.133  0.00  0.00    +0.252 C 
ATOM     23  H   UNL     1      33.695  -9.166 -23.562  0.00  0.00    +0.150 HD
BRANCH  22  26
ATOM     24 CL   UNL     1      31.894  -3.506 -21.122  0.00  0.00    -0.075 Cl
ATOM     25  S   UNL     1      31.642  -6.464 -21.054  0.00  0.00    -0.071 S 
ATOM     26  C   UNL     1      32.414  -7.402 -22.221  0.00  0.00    +0.084 C 
ATOM     27  C   UNL     1      33.119  -6.725 -23.141  0.00  0.00    +0.012 C 
ATOM     28  C   UNL     1      33.033  -5.324 -22.889  0.00  0.00    +0.019 C 
ATOM     29  C   UNL     1      32.261  -5.043 -21.784  0.00  0.00    +0.087 C 
ENDBRANCH  22  26
ENDBRANCH  19  21
ENDBRANCH  18  19
ENDBRANCH   2  18
TORSDOF 6
ENDMDL
MODEL 8
REMARK VINA RESULT:     -10.6      4.480     10.034
REMARK  Name = 10250490
REMARK  6 active torsions:
REMARK  status: ('A' for Active; 'I' for Inactive)
REMARK    1  A    between atoms: N_2  and  C_18
REMARK    2  A    between atoms: C_3  and  C_6
REMARK    3  A    between atoms: C_5  and  N_12
REMARK    4  A    between atoms: C_18  and  C_19
REMARK    5  A    between atoms: C_19  and  N_21
REMARK    6  A    between atoms: C_22  and  C_26
REMARK                            x       y       z     vdW  Elec       q    Type
REMARK                         _______ _______ _______ _____ _____    ______ ____
ROOT
ATOM      1  O   UNL     1      33.571 -21.618 -19.349  0.00  0.00    -0.270 OA
ATOM      2  N   UNL     1      35.619 -20.539 -19.475  0.00  0.00    -0.299 N 
ATOM      3  C   UNL     1      34.700 -21.405 -18.873  0.00  0.00    +0.246 C 
ATOM      4  H   UNL     1      36.496 -20.416 -19.045  0.00  0.00    +0.150 HD
ENDROOT
BRANCH   3   6
ATOM      5  C   UNL     1      35.895 -23.270 -15.252  0.00  0.00    +0.058 C 
ATOM      6  C   UNL     1      35.110 -22.043 -17.632  0.00  0.00    +0.053 C 
ATOM      7  C   UNL     1      36.804 -22.493 -15.971  0.00  0.00    +0.015 C 
ATOM      8  C   UNL     1      34.592 -23.433 -15.724  0.00  0.00    +0.015 C 
ATOM      9  C   UNL     1      36.412 -21.879 -17.160  0.00  0.00    +0.006 C 
ATOM     10  C   UNL     1      34.200 -22.820 -16.914  0.00  0.00    +0.006 C 
BRANCH   5  12
ATOM     11  O   UNL     1      36.638 -26.051 -14.973  0.00  0.00    -0.269 OA
ATOM     12  N   UNL     1      36.305 -23.908 -14.016  0.00  0.00    -0.233 N 
ATOM     13  C   UNL     1      36.685 -25.275 -14.019  0.00  0.00    +0.257 C 
ATOM     14  C   UNL     1      36.307 -23.193 -12.817  0.00  0.00    +0.072 C 
ATOM     15  C   UNL     1      37.139 -25.842 -12.711  0.00  0.00    +0.059 C 
ATOM     16  C   UNL     1      36.686 -23.732 -11.653  0.00  0.00    +0.017 C 
ATOM     17  C   UNL     1      37.120 -25.096 -11.603  0.00  0.00    +0.006 C 
ENDBRANCH   5  12
ENDBRANCH   3   6
BRANCH   2  18
ATOM     18  C   UNL     1      35.351 -19.813 -20.696  0.00  0.00    +0.111 C 
BRANCH  18  19
ATOM     19  C   UNL     1      36.412 -18.763 -20.985  0.00  0.00    +0.111 C 
BRANCH  19  21
ATOM     20  O   UNL     1      35.193 -16.415 -19.872  0.00  0.00    -0.270 OA
ATOM     21  N   UNL     1      35.878 -17.645 -21.715  0.00  0.00    -0.299 N 
ATOM     22  C   UNL     1      35.304 -16.546 -21.088  0.00  0.00    +0.252 C 
ATOM     23  H   UNL     1      35.922 -17.659 -22.699  0.00  0.00    +0.150 HD
BRANCH  22  26
ATOM     24 CL   UNL     1      33.523 -13.838 -25.502  0.00  0.00    -0.075 Cl
ATOM     25  S   UNL     1      34.572 -15.872 -23.610  0.00  0.00    -0.071 S 
ATOM     26  C   UNL     1      34.776 -15.485 -21.984  0.00  0.00    +0.084 C 
ATOM     27  C   UNL     1      34.439 -14.233 -21.637  0.00  0.00    +0.012 C 
ATOM     28  C   UNL     1      33.974 -13.517 -22.778  0.00  0.00    +0.019 C 
ATOM     29  C   UNL     1      33.994 -14.290 -23.917  0.00  0.00    +0.087 C 
ENDBRANCH  22  26
ENDBRANCH  19  21
ENDBRANCH  18  19
ENDBRANCH   2  18
TORSDOF 6
ENDMDL
MODEL 9
REMARK VINA RESULT:     -10.6      3.034      4.825
REMARK  Name = 10250490
REMARK  6 active torsions:
REMARK  status: ('A' for Active; 'I' for Inactive)
REMARK    1  A    between atoms: N_2  and  C_18
REMARK    2  A    between atoms: C_3  and  C_6
REMARK    3  A    between atoms: C_5  and  N_12
REMARK    4  A    between atoms: C_18  and  C_19
REMARK    5  A    between atoms: C_19  and  N_21
REMARK    6  A    between atoms: C_22  and  C_26
REMARK                            x       y       z     vdW  Elec       q    Type
REMARK                         _______ _______ _______ _____ _____    ______ ____
ROOT
ATOM      1  O   UNL     1      37.292 -19.026 -19.859  0.00  0.00    -0.270 OA
ATOM      2  N   UNL     1      35.246 -20.084 -20.117  0.00  0.00    -0.299 N 
ATOM      3  C   UNL     1      36.147 -19.038 -20.343  0.00  0.00    +0.246 C 
ATOM      4  H   UNL     1      34.354 -20.029 -20.532  0.00  0.00    +0.150 HD
ENDROOT
BRANCH   3   6
ATOM      5  C   UNL     1      34.784 -15.805 -22.733  0.00  0.00    +0.058 C 
ATOM      6  C   UNL     1      35.681 -17.930 -21.161  0.00  0.00    +0.053 C 
ATOM      7  C   UNL     1      34.915 -15.647 -21.353  0.00  0.00    +0.015 C 
ATOM      8  C   UNL     1      35.102 -17.027 -23.327  0.00  0.00    +0.015 C 
ATOM      9  C   UNL     1      35.364 -16.709 -20.568  0.00  0.00    +0.006 C 
ATOM     10  C   UNL     1      35.550 -18.089 -22.541  0.00  0.00    +0.006 C 
BRANCH   5  12
ATOM     11  O   UNL     1      34.009 -15.992 -25.513  0.00  0.00    -0.269 OA
ATOM     12  N   UNL     1      34.317 -14.702 -23.549  0.00  0.00    -0.233 N 
ATOM     13  C   UNL     1      33.927 -14.932 -24.893  0.00  0.00    +0.257 C 
ATOM     14  C   UNL     1      34.268 -13.407 -23.028  0.00  0.00    +0.072 C 
ATOM     15  C   UNL     1      33.412 -13.748 -25.649  0.00  0.00    +0.059 C 
ATOM     16  C   UNL     1      33.835 -12.357 -23.734  0.00  0.00    +0.017 C 
ATOM     17  C   UNL     1      33.388 -12.538 -25.083  0.00  0.00    +0.006 C 
ENDBRANCH   5  12
ENDBRANCH   3   6
BRANCH   2  18
ATOM     18  C   UNL     1      35.552 -21.242 -19.308  0.00  0.00    +0.111 C 
BRANCH  18  19
ATOM     19  C   UNL     1      34.346 -22.149 -19.125  0.00  0.00    +0.111 C 
BRANCH  19  21
ATOM     20  O   UNL     1      31.942 -22.361 -17.571  0.00  0.00    -0.270 OA
ATOM     21  N   UNL     1      34.236 -22.633 -17.775  0.00  0.00    -0.299 N 
ATOM     22  C   UNL     1      33.024 -22.700 -17.099  0.00  0.00    +0.252 C 
ATOM     23  H   UNL     1      35.054 -22.928 -17.312  0.00  0.00    +0.150 HD
BRANCH  22  26
ATOM     24 CL   UNL     1      34.854 -24.369 -12.215  0.00  0.00    -0.075 Cl
ATOM     25  S   UNL     1      34.605 -23.381 -15.004  0.00  0.00    -0.071 S 
ATOM     26  C   UNL     1      33.083 -23.198 -15.701  0.00  0.00    +0.084 C 
ATOM     27  C   UNL     1      32.042 -23.526 -14.919  0.00  0.00    +0.012 C 
ATOM     28  C   UNL     1      32.505 -23.963 -13.644  0.00  0.00    +0.019 C 
ATOM     29  C   UNL     1      33.879 -23.934 -13.555  0.00  0.00    +0.087 C 
ENDBRANCH  22  26
ENDBRANCH  19  21
ENDBRANCH  18  19
ENDBRANCH   2  18
TORSDOF 6
ENDMDL
