MODEL 1
REMARK VINA RESULT:     -11.6      0.000      0.000
REMARK  Name = 44177328
REMARK  2 active torsions:
REMARK  status: ('A' for Active; 'I' for Inactive)
REMARK    1  A    between atoms: N_1  and  C_15
REMARK    2  A    between atoms: C_6  and  C_23
REMARK                            x       y       z     vdW  Elec       q    Type
REMARK                         _______ _______ _______ _____ _____    ______ ____
ROOT
ATOM      1  N   UNL     1      32.817 -22.404 -18.006  0.00  0.00    -0.286 N 
ATOM      2  N   UNL     1      34.075 -23.290 -16.207  0.00  0.00    -0.386 NA
ATOM      3  N   UNL     1      31.709 -23.606 -14.735  0.00  0.00    -0.246 NA
ATOM      4  N   UNL     1      30.475 -22.715 -16.555  0.00  0.00    -0.340 N 
ATOM      5  C   UNL     1      32.873 -22.941 -16.706  0.00  0.00    +0.214 C 
ATOM      6  C   UNL     1      34.074 -23.800 -14.960  0.00  0.00    +0.135 C 
ATOM      7  C   UNL     1      31.710 -23.096 -15.984  0.00  0.00    +0.166 C 
ATOM      8  C   UNL     1      32.911 -23.954 -14.237  0.00  0.00    +0.185 C 
ATOM      9  H   UNL     1      31.976 -22.599 -18.479  0.00  0.00    +0.155 HD
ATOM     10  H   UNL     1      29.641 -22.823 -16.043  0.00  0.00    +0.144 HD
ATOM     11  H   UNL     1      30.449 -22.340 -17.465  0.00  0.00    +0.144 HD
ENDROOT
BRANCH   1  15
ATOM     12  N   UNL     1      36.202 -19.299 -21.089  0.00  0.00    -0.312 N 
ATOM     13  C   UNL     1      34.168 -19.966 -20.461  0.00  0.00    +0.016 C 
ATOM     14  C   UNL     1      35.535 -20.151 -20.237  0.00  0.00    +0.048 C 
ATOM     15  C   UNL     1      33.732 -21.640 -18.764  0.00  0.00    +0.050 C 
ATOM     16  C   UNL     1      33.250 -20.727 -19.708  0.00  0.00    +0.016 C 
ATOM     17  C   UNL     1      36.030 -21.059 -19.295  0.00  0.00    +0.016 C 
ATOM     18  C   UNL     1      35.100 -21.802 -18.562  0.00  0.00    +0.016 C 
ATOM     19  C   UNL     1      34.040 -18.977 -21.475  0.00  0.00    +0.017 C 
ATOM     20  C   UNL     1      35.308 -18.586 -21.841  0.00  0.00    +0.062 C 
ATOM     21  H   UNL     1      37.181 -19.217 -21.149  0.00  0.00    +0.152 HD
ENDBRANCH   1  15
BRANCH   6  23
ATOM     22  N   UNL     1      37.858 -24.884 -13.396  0.00  0.00    -0.242 NA
ATOM     23  C   UNL     1      35.361 -24.168 -14.428  0.00  0.00    +0.031 C 
ATOM     24  C   UNL     1      36.130 -23.230 -13.747  0.00  0.00    +0.023 C 
ATOM     25  C   UNL     1      35.839 -25.464 -14.592  0.00  0.00    +0.023 C 
ATOM     26  C   UNL     1      37.360 -23.635 -13.255  0.00  0.00    +0.099 C 
ATOM     27  C   UNL     1      37.082 -25.769 -14.062  0.00  0.00    +0.099 C 
ENDBRANCH   6  23
TORSDOF 2
ENDMDL
MODEL 2
REMARK VINA RESULT:     -10.5      1.535      4.110
REMARK  Name = 44177328
REMARK  2 active torsions:
REMARK  status: ('A' for Active; 'I' for Inactive)
REMARK    1  A    between atoms: N_1  and  C_15
REMARK    2  A    between atoms: C_6  and  C_23
REMARK                            x       y       z     vdW  Elec       q    Type
REMARK                         _______ _______ _______ _____ _____    ______ ____
ROOT
ATOM      1  N   UNL     1      36.664 -22.067 -16.595  0.00  0.00    -0.286 N 
ATOM      2  N   UNL     1      34.809 -22.978 -15.440  0.00  0.00    -0.386 NA
ATOM      3  N   UNL     1      36.544 -24.678 -14.037  0.00  0.00    -0.246 NA
ATOM      4  N   UNL     1      38.383 -23.745 -15.209  0.00  0.00    -0.340 N 
ATOM      5  C   UNL     1      36.141 -22.965 -15.646  0.00  0.00    +0.214 C 
ATOM      6  C   UNL     1      34.359 -23.856 -14.522  0.00  0.00    +0.135 C 
ATOM      7  C   UNL     1      36.994 -23.799 -14.956  0.00  0.00    +0.166 C 
ATOM      8  C   UNL     1      35.212 -24.690 -13.833  0.00  0.00    +0.185 C 
ATOM      9  H   UNL     1      37.578 -21.763 -16.390  0.00  0.00    +0.155 HD
ATOM     10  H   UNL     1      38.997 -24.339 -14.720  0.00  0.00    +0.144 HD
ATOM     11  H   UNL     1      38.737 -23.112 -15.876  0.00  0.00    +0.144 HD
ENDROOT
BRANCH   1  15
ATOM     12  N   UNL     1      34.803 -19.778 -21.275  0.00  0.00    -0.312 N 
ATOM     13  C   UNL     1      36.352 -20.039 -19.690  0.00  0.00    +0.016 C 
ATOM     14  C   UNL     1      35.084 -20.452 -20.107  0.00  0.00    +0.048 C 
ATOM     15  C   UNL     1      36.134 -21.517 -17.783  0.00  0.00    +0.050 C 
ATOM     16  C   UNL     1      36.886 -20.583 -18.505  0.00  0.00    +0.016 C 
ATOM     17  C   UNL     1      34.323 -21.385 -19.396  0.00  0.00    +0.016 C 
ATOM     18  C   UNL     1      34.873 -21.911 -18.223  0.00  0.00    +0.016 C 
ATOM     19  C   UNL     1      36.820 -19.095 -20.647  0.00  0.00    +0.017 C 
ATOM     20  C   UNL     1      35.846 -18.956 -21.608  0.00  0.00    +0.062 C 
ATOM     21  H   UNL     1      33.972 -19.873 -21.793  0.00  0.00    +0.152 HD
ENDBRANCH   1  15
BRANCH   6  23
ATOM     22  N   UNL     1      30.171 -23.896 -13.893  0.00  0.00    -0.242 NA
ATOM     23  C   UNL     1      32.935 -23.870 -14.307  0.00  0.00    +0.031 C 
ATOM     24  C   UNL     1      32.394 -24.602 -13.256  0.00  0.00    +0.023 C 
ATOM     25  C   UNL     1      32.095 -23.150 -15.151  0.00  0.00    +0.023 C 
ATOM     26  C   UNL     1      31.018 -24.582 -13.093  0.00  0.00    +0.099 C 
ATOM     27  C   UNL     1      30.733 -23.196 -14.904  0.00  0.00    +0.099 C 
ENDBRANCH   6  23
TORSDOF 2
ENDMDL
MODEL 3
REMARK VINA RESULT:     -10.4      1.842      6.695
REMARK  Name = 44177328
REMARK  2 active torsions:
REMARK  status: ('A' for Active; 'I' for Inactive)
REMARK    1  A    between atoms: N_1  and  C_15
REMARK    2  A    between atoms: C_6  and  C_23
REMARK                            x       y       z     vdW  Elec       q    Type
REMARK                         _______ _______ _______ _____ _____    ______ ____
ROOT
ATOM      1  N   UNL     1      34.161 -24.379 -14.069  0.00  0.00    -0.286 N 
ATOM      2  N   UNL     1      34.977 -23.079 -15.871  0.00  0.00    -0.386 NA
ATOM      3  N   UNL     1      37.413 -22.770 -14.517  0.00  0.00    -0.246 NA
ATOM      4  N   UNL     1      36.568 -24.077 -12.727  0.00  0.00    -0.340 N 
ATOM      5  C   UNL     1      35.195 -23.629 -14.660  0.00  0.00    +0.214 C 
ATOM      6  C   UNL     1      35.998 -22.372 -16.393  0.00  0.00    +0.135 C 
ATOM      7  C   UNL     1      36.391 -23.478 -13.995  0.00  0.00    +0.166 C 
ATOM      8  C   UNL     1      37.194 -22.220 -15.728  0.00  0.00    +0.185 C 
ATOM      9  H   UNL     1      34.482 -25.101 -13.481  0.00  0.00    +0.155 HD
ATOM     10  H   UNL     1      37.421 -23.972 -12.247  0.00  0.00    +0.144 HD
ATOM     11  H   UNL     1      35.838 -24.599 -12.323  0.00  0.00    +0.144 HD
ENDROOT
BRANCH   1  15
ATOM     12  N   UNL     1      28.674 -23.909 -14.602  0.00  0.00    -0.312 N 
ATOM     13  C   UNL     1      30.762 -23.424 -15.222  0.00  0.00    +0.016 C 
ATOM     14  C   UNL     1      29.997 -24.155 -14.309  0.00  0.00    +0.048 C 
ATOM     15  C   UNL     1      32.753 -24.299 -14.154  0.00  0.00    +0.050 C 
ATOM     16  C   UNL     1      32.167 -23.499 -15.141  0.00  0.00    +0.016 C 
ATOM     17  C   UNL     1      30.569 -24.959 -13.318  0.00  0.00    +0.016 C 
ATOM     18  C   UNL     1      31.965 -25.017 -13.257  0.00  0.00    +0.016 C 
ATOM     19  C   UNL     1      29.853 -22.733 -16.071  0.00  0.00    +0.017 C 
ATOM     20  C   UNL     1      28.577 -23.051 -15.665  0.00  0.00    +0.062 C 
ATOM     21  H   UNL     1      27.910 -24.294 -14.117  0.00  0.00    +0.152 HD
ENDBRANCH   1  15
BRANCH   6  23
ATOM     22  N   UNL     1      35.298 -20.637 -20.194  0.00  0.00    -0.242 NA
ATOM     23  C   UNL     1      35.760 -21.782 -17.686  0.00  0.00    +0.031 C 
ATOM     24  C   UNL     1      36.786 -21.119 -18.350  0.00  0.00    +0.023 C 
ATOM     25  C   UNL     1      34.503 -21.875 -18.275  0.00  0.00    +0.023 C 
ATOM     26  C   UNL     1      36.506 -20.569 -19.590  0.00  0.00    +0.099 C 
ATOM     27  C   UNL     1      34.325 -21.290 -19.519  0.00  0.00    +0.099 C 
ENDBRANCH   6  23
TORSDOF 2
ENDMDL
MODEL 4
REMARK VINA RESULT:     -10.3      6.756     10.963
REMARK  Name = 44177328
REMARK  2 active torsions:
REMARK  status: ('A' for Active; 'I' for Inactive)
REMARK    1  A    between atoms: N_1  and  C_15
REMARK    2  A    between atoms: C_6  and  C_23
REMARK                            x       y       z     vdW  Elec       q    Type
REMARK                         _______ _______ _______ _____ _____    ______ ____
ROOT
ATOM      1  N   UNL     1      33.438 -12.699 -23.640  0.00  0.00    -0.286 N 
ATOM      2  N   UNL     1      34.131 -14.902 -23.121  0.00  0.00    -0.386 NA
ATOM      3  N   UNL     1      33.924 -15.584 -25.833  0.00  0.00    -0.246 NA
ATOM      4  N   UNL     1      33.233 -13.368 -26.323  0.00  0.00    -0.340 N 
ATOM      5  C   UNL     1      33.744 -14.009 -24.053  0.00  0.00    +0.214 C 
ATOM      6  C   UNL     1      34.413 -16.142 -23.568  0.00  0.00    +0.135 C 
ATOM      7  C   UNL     1      33.643 -14.343 -25.386  0.00  0.00    +0.166 C 
ATOM      8  C   UNL     1      34.311 -16.476 -24.901  0.00  0.00    +0.185 C 
ATOM      9  H   UNL     1      33.618 -12.016 -24.325  0.00  0.00    +0.155 HD
ATOM     10  H   UNL     1      33.158 -13.602 -27.277  0.00  0.00    +0.144 HD
ATOM     11  H   UNL     1      33.021 -12.455 -26.022  0.00  0.00    +0.144 HD
ENDROOT
BRANCH   1  15
ATOM     12  N   UNL     1      31.428 -10.409 -19.022  0.00  0.00    -0.312 N 
ATOM     13  C   UNL     1      32.212 -10.275 -21.107  0.00  0.00    +0.016 C 
ATOM     14  C   UNL     1      31.910 -11.162 -20.070  0.00  0.00    +0.048 C 
ATOM     15  C   UNL     1      32.922 -12.173 -22.435  0.00  0.00    +0.050 C 
ATOM     16  C   UNL     1      32.728 -10.793 -22.312  0.00  0.00    +0.016 C 
ATOM     17  C   UNL     1      32.097 -12.543 -20.180  0.00  0.00    +0.016 C 
ATOM     18  C   UNL     1      32.611 -13.034 -21.384  0.00  0.00    +0.016 C 
ATOM     19  C   UNL     1      31.896  -8.967 -20.644  0.00  0.00    +0.017 C 
ATOM     20  C   UNL     1      31.417  -9.082 -19.360  0.00  0.00    +0.062 C 
ATOM     21  H   UNL     1      31.137 -10.773 -18.156  0.00  0.00    +0.152 HD
ENDBRANCH   1  15
BRANCH   6  23
ATOM     22  N   UNL     1      35.619 -18.945 -20.630  0.00  0.00    -0.242 NA
ATOM     23  C   UNL     1      34.823 -17.094 -22.569  0.00  0.00    +0.031 C 
ATOM     24  C   UNL     1      35.315 -16.655 -21.344  0.00  0.00    +0.023 C 
ATOM     25  C   UNL     1      34.728 -18.458 -22.824  0.00  0.00    +0.023 C 
ATOM     26  C   UNL     1      35.696 -17.612 -20.418  0.00  0.00    +0.099 C 
ATOM     27  C   UNL     1      35.136 -19.335 -21.831  0.00  0.00    +0.099 C 
ENDBRANCH   6  23
TORSDOF 2
ENDMDL
MODEL 5
REMARK VINA RESULT:     -10.2      1.406      2.001
REMARK  Name = 44177328
REMARK  2 active torsions:
REMARK  status: ('A' for Active; 'I' for Inactive)
REMARK    1  A    between atoms: N_1  and  C_15
REMARK    2  A    between atoms: C_6  and  C_23
REMARK                            x       y       z     vdW  Elec       q    Type
REMARK                         _______ _______ _______ _____ _____    ______ ____
ROOT
ATOM      1  N   UNL     1      32.668 -23.202 -16.794  0.00  0.00    -0.286 N 
ATOM      2  N   UNL     1      34.268 -23.566 -15.087  0.00  0.00    -0.386 NA
ATOM      3  N   UNL     1      32.194 -24.192 -13.306  0.00  0.00    -0.246 NA
ATOM      4  N   UNL     1      30.614 -23.821 -15.037  0.00  0.00    -0.340 N 
ATOM      5  C   UNL     1      32.974 -23.547 -15.464  0.00  0.00    +0.214 C 
ATOM      6  C   UNL     1      34.507 -23.903 -13.804  0.00  0.00    +0.135 C 
ATOM      7  C   UNL     1      31.955 -23.855 -14.590  0.00  0.00    +0.166 C 
ATOM      8  C   UNL     1      33.488 -24.210 -12.930  0.00  0.00    +0.185 C 
ATOM      9  H   UNL     1      31.850 -23.631 -17.136  0.00  0.00    +0.155 HD
ATOM     10  H   UNL     1      29.882 -24.040 -14.416  0.00  0.00    +0.144 HD
ATOM     11  H   UNL     1      30.413 -23.578 -15.969  0.00  0.00    +0.144 HD
ENDROOT
BRANCH   1  15
ATOM     12  N   UNL     1      35.388 -19.988 -20.382  0.00  0.00    -0.312 N 
ATOM     13  C   UNL     1      35.332 -21.460 -18.707  0.00  0.00    +0.016 C 
ATOM     14  C   UNL     1      34.536 -20.713 -19.578  0.00  0.00    +0.048 C 
ATOM     15  C   UNL     1      33.305 -22.362 -17.733  0.00  0.00    +0.050 C 
ATOM     16  C   UNL     1      34.703 -22.300 -17.766  0.00  0.00    +0.016 C 
ATOM     17  C   UNL     1      33.139 -20.766 -19.557  0.00  0.00    +0.016 C 
ATOM     18  C   UNL     1      32.537 -21.605 -18.615  0.00  0.00    +0.016 C 
ATOM     19  C   UNL     1      36.688 -21.158 -19.015  0.00  0.00    +0.017 C 
ATOM     20  C   UNL     1      36.690 -20.250 -20.049  0.00  0.00    +0.062 C 
ATOM     21  H   UNL     1      35.101 -19.370 -21.092  0.00  0.00    +0.152 HD
ENDBRANCH   1  15
BRANCH   6  23
ATOM     22  N   UNL     1      38.576 -23.949 -12.628  0.00  0.00    -0.242 NA
ATOM     23  C   UNL     1      35.890 -23.919 -13.404  0.00  0.00    +0.031 C 
ATOM     24  C   UNL     1      36.266 -23.403 -12.168  0.00  0.00    +0.023 C 
ATOM     25  C   UNL     1      36.856 -24.451 -14.252  0.00  0.00    +0.023 C 
ATOM     26  C   UNL     1      37.608 -23.441 -11.831  0.00  0.00    +0.099 C 
ATOM     27  C   UNL     1      38.173 -24.442 -13.821  0.00  0.00    +0.099 C 
ENDBRANCH   6  23
TORSDOF 2
ENDMDL
MODEL 6
REMARK VINA RESULT:     -10.2      8.005     12.477
REMARK  Name = 44177328
REMARK  2 active torsions:
REMARK  status: ('A' for Active; 'I' for Inactive)
REMARK    1  A    between atoms: N_1  and  C_15
REMARK    2  A    between atoms: C_6  and  C_23
REMARK                            x       y       z     vdW  Elec       q    Type
REMARK                         _______ _______ _______ _____ _____    ______ ____
ROOT
ATOM      1  N   UNL     1      33.490 -11.047 -24.189  0.00  0.00    -0.286 N 
ATOM      2  N   UNL     1      34.028 -13.152 -23.248  0.00  0.00    -0.386 NA
ATOM      3  N   UNL     1      33.495 -14.368 -25.719  0.00  0.00    -0.246 NA
ATOM      4  N   UNL     1      32.964 -12.245 -26.634  0.00  0.00    -0.340 N 
ATOM      5  C   UNL     1      33.634 -12.441 -24.324  0.00  0.00    +0.214 C 
ATOM      6  C   UNL     1      34.151 -14.481 -23.430  0.00  0.00    +0.135 C 
ATOM      7  C   UNL     1      33.373 -13.037 -25.537  0.00  0.00    +0.166 C 
ATOM      8  C   UNL     1      33.889 -15.078 -24.644  0.00  0.00    +0.185 C 
ATOM      9  H   UNL     1      33.665 -10.549 -25.020  0.00  0.00    +0.155 HD
ATOM     10  H   UNL     1      32.775 -12.666 -27.503  0.00  0.00    +0.144 HD
ATOM     11  H   UNL     1      32.866 -11.271 -26.527  0.00  0.00    +0.144 HD
ENDROOT
BRANCH   1  15
ATOM     12  N   UNL     1      32.276  -7.636 -20.006  0.00  0.00    -0.312 N 
ATOM     13  C   UNL     1      33.296  -8.102 -21.935  0.00  0.00    +0.016 C 
ATOM     14  C   UNL     1      32.458  -8.625 -20.947  0.00  0.00    +0.048 C 
ATOM     15  C   UNL     1      33.145 -10.223 -23.095  0.00  0.00    +0.050 C 
ATOM     16  C   UNL     1      33.645  -8.918 -23.030  0.00  0.00    +0.016 C 
ATOM     17  C   UNL     1      31.950  -9.927 -21.000  0.00  0.00    +0.016 C 
ATOM     18  C   UNL     1      32.311 -10.719 -22.095  0.00  0.00    +0.016 C 
ATOM     19  C   UNL     1      33.610  -6.767 -21.554  0.00  0.00    +0.017 C 
ATOM     20  C   UNL     1      32.968  -6.510 -20.364  0.00  0.00    +0.062 C 
ATOM     21  H   UNL     1      31.728  -7.727 -19.193  0.00  0.00    +0.152 HD
ENDBRANCH   1  15
BRANCH   6  23
ATOM     22  N   UNL     1      35.377 -16.709 -20.042  0.00  0.00    -0.242 NA
ATOM     23  C   UNL     1      34.568 -15.239 -22.278  0.00  0.00    +0.031 C 
ATOM     24  C   UNL     1      35.102 -16.514 -22.436  0.00  0.00    +0.023 C 
ATOM     25  C   UNL     1      34.440 -14.698 -21.003  0.00  0.00    +0.023 C 
ATOM     26  C   UNL     1      35.487 -17.201 -21.297  0.00  0.00    +0.099 C 
ATOM     27  C   UNL     1      34.855 -15.467 -19.928  0.00  0.00    +0.099 C 
ENDBRANCH   6  23
TORSDOF 2
ENDMDL
MODEL 7
REMARK VINA RESULT:     -10.1      1.833      6.811
REMARK  Name = 44177328
REMARK  2 active torsions:
REMARK  status: ('A' for Active; 'I' for Inactive)
REMARK    1  A    between atoms: N_1  and  C_15
REMARK    2  A    between atoms: C_6  and  C_23
REMARK                            x       y       z     vdW  Elec       q    Type
REMARK                         _______ _______ _______ _____ _____    ______ ____
ROOT
ATOM      1  N   UNL     1      34.734 -24.499 -13.129  0.00  0.00    -0.286 N 
ATOM      2  N   UNL     1      34.430 -23.454 -15.231  0.00  0.00    -0.386 NA
ATOM      3  N   UNL     1      31.678 -23.973 -15.067  0.00  0.00    -0.246 NA
ATOM      4  N   UNL     1      32.014 -25.012 -12.961  0.00  0.00    -0.340 N 
ATOM      5  C   UNL     1      33.885 -24.089 -14.175  0.00  0.00    +0.214 C 
ATOM      6  C   UNL     1      33.575 -23.083 -16.205  0.00  0.00    +0.135 C 
ATOM      7  C   UNL     1      32.534 -24.343 -14.093  0.00  0.00    +0.166 C 
ATOM      8  C   UNL     1      32.224 -23.338 -16.124  0.00  0.00    +0.185 C 
ATOM      9  H   UNL     1      34.297 -24.512 -12.247  0.00  0.00    +0.155 HD
ATOM     10  H   UNL     1      31.049 -25.197 -12.898  0.00  0.00    +0.144 HD
ATOM     11  H   UNL     1      32.618 -25.294 -12.237  0.00  0.00    +0.144 HD
ENDROOT
BRANCH   1  15
ATOM     12  N   UNL     1      40.074 -25.940 -13.237  0.00  0.00    -0.312 N 
ATOM     13  C   UNL     1      38.268 -25.003 -14.152  0.00  0.00    +0.016 C 
ATOM     14  C   UNL     1      38.741 -25.671 -13.020  0.00  0.00    +0.048 C 
ATOM     15  C   UNL     1      36.090 -24.893 -13.098  0.00  0.00    +0.050 C 
ATOM     16  C   UNL     1      36.916 -24.607 -14.190  0.00  0.00    +0.016 C 
ATOM     17  C   UNL     1      37.927 -25.961 -11.920  0.00  0.00    +0.016 C 
ATOM     18  C   UNL     1      36.589 -25.560 -11.981  0.00  0.00    +0.016 C 
ATOM     19  C   UNL     1      39.362 -24.883 -15.054  0.00  0.00    +0.017 C 
ATOM     20  C   UNL     1      40.458 -25.469 -14.463  0.00  0.00    +0.062 C 
ATOM     21  H   UNL     1      40.664 -26.406 -12.602  0.00  0.00    +0.152 HD
ENDBRANCH   1  15
BRANCH   6  23
ATOM     22  N   UNL     1      35.298 -21.099 -19.527  0.00  0.00    -0.242 NA
ATOM     23  C   UNL     1      34.160 -22.408 -17.335  0.00  0.00    +0.031 C 
ATOM     24  C   UNL     1      33.357 -21.982 -18.387  0.00  0.00    +0.023 C 
ATOM     25  C   UNL     1      35.532 -22.179 -17.377  0.00  0.00    +0.023 C 
ATOM     26  C   UNL     1      33.969 -21.339 -19.450  0.00  0.00    +0.099 C 
ATOM     27  C   UNL     1      36.046 -21.526 -18.486  0.00  0.00    +0.099 C 
ENDBRANCH   6  23
TORSDOF 2
ENDMDL
MODEL 8
REMARK VINA RESULT:      -9.8      1.485      6.847
REMARK  Name = 44177328
REMARK  2 active torsions:
REMARK  status: ('A' for Active; 'I' for Inactive)
REMARK    1  A    between atoms: N_1  and  C_15
REMARK    2  A    between atoms: C_6  and  C_23
REMARK                            x       y       z     vdW  Elec       q    Type
REMARK                         _______ _______ _______ _____ _____    ______ ____
ROOT
ATOM      1  N   UNL     1      34.464 -24.510 -13.910  0.00  0.00    -0.286 N 
ATOM      2  N   UNL     1      34.161 -23.283 -15.911  0.00  0.00    -0.386 NA
ATOM      3  N   UNL     1      31.383 -23.466 -15.578  0.00  0.00    -0.246 NA
ATOM      4  N   UNL     1      31.718 -24.693 -13.575  0.00  0.00    -0.340 N 
ATOM      5  C   UNL     1      33.610 -23.922 -14.860  0.00  0.00    +0.214 C 
ATOM      6  C   UNL     1      33.300 -22.737 -16.792  0.00  0.00    +0.135 C 
ATOM      7  C   UNL     1      32.245 -24.012 -14.696  0.00  0.00    +0.166 C 
ATOM      8  C   UNL     1      31.935 -22.828 -16.628  0.00  0.00    +0.185 C 
ATOM      9  H   UNL     1      34.088 -24.535 -13.000  0.00  0.00    +0.155 HD
ATOM     10  H   UNL     1      30.744 -24.761 -13.453  0.00  0.00    +0.144 HD
ATOM     11  H   UNL     1      32.326 -25.101 -12.917  0.00  0.00    +0.144 HD
ENDROOT
BRANCH   1  15
ATOM     12  N   UNL     1      39.616 -26.513 -14.145  0.00  0.00    -0.312 N 
ATOM     13  C   UNL     1      38.125 -24.983 -13.501  0.00  0.00    +0.016 C 
ATOM     14  C   UNL     1      38.280 -26.183 -14.199  0.00  0.00    +0.048 C 
ATOM     15  C   UNL     1      35.757 -25.071 -14.005  0.00  0.00    +0.050 C 
ATOM     16  C   UNL     1      36.838 -24.417 -13.403  0.00  0.00    +0.016 C 
ATOM     17  C   UNL     1      37.209 -26.848 -14.804  0.00  0.00    +0.016 C 
ATOM     18  C   UNL     1      35.941 -26.268 -14.694  0.00  0.00    +0.016 C 
ATOM     19  C   UNL     1      39.413 -24.605 -13.028  0.00  0.00    +0.017 C 
ATOM     20  C   UNL     1      40.309 -25.566 -13.440  0.00  0.00    +0.062 C 
ATOM     21  H   UNL     1      40.015 -27.314 -14.555  0.00  0.00    +0.152 HD
ENDBRANCH   1  15
BRANCH   6  23
ATOM     22  N   UNL     1      35.042 -20.739 -20.096  0.00  0.00    -0.242 NA
ATOM     23  C   UNL     1      33.893 -22.058 -17.915  0.00  0.00    +0.031 C 
ATOM     24  C   UNL     1      35.272 -22.077 -18.095  0.00  0.00    +0.023 C 
ATOM     25  C   UNL     1      33.088 -21.380 -18.825  0.00  0.00    +0.023 C 
ATOM     26  C   UNL     1      35.792 -21.409 -19.191  0.00  0.00    +0.099 C 
ATOM     27  C   UNL     1      33.706 -20.742 -19.889  0.00  0.00    +0.099 C 
ENDBRANCH   6  23
TORSDOF 2
ENDMDL
MODEL 9
REMARK VINA RESULT:      -9.7      6.755     11.780
REMARK  Name = 44177328
REMARK  2 active torsions:
REMARK  status: ('A' for Active; 'I' for Inactive)
REMARK    1  A    between atoms: N_1  and  C_15
REMARK    2  A    between atoms: C_6  and  C_23
REMARK                            x       y       z     vdW  Elec       q    Type
REMARK                         _______ _______ _______ _____ _____    ______ ____
ROOT
ATOM      1  N   UNL     1      33.744 -15.171 -25.155  0.00  0.00    -0.286 N 
ATOM      2  N   UNL     1      33.197 -13.501 -23.568  0.00  0.00    -0.386 NA
ATOM      3  N   UNL     1      33.798 -11.528 -25.469  0.00  0.00    -0.246 NA
ATOM      4  N   UNL     1      34.337 -13.224 -27.038  0.00  0.00    -0.340 N 
ATOM      5  C   UNL     1      33.612 -13.812 -24.812  0.00  0.00    +0.214 C 
ATOM      6  C   UNL     1      33.088 -12.186 -23.291  0.00  0.00    +0.135 C 
ATOM      7  C   UNL     1      33.907 -12.843 -25.747  0.00  0.00    +0.166 C 
ATOM      8  C   UNL     1      33.383 -11.218 -24.225  0.00  0.00    +0.185 C 
ATOM      9  H   UNL     1      33.587 -15.355 -26.109  0.00  0.00    +0.155 HD
ATOM     10  H   UNL     1      34.550 -12.536 -27.709  0.00  0.00    +0.144 HD
ATOM     11  H   UNL     1      34.426 -14.178 -27.265  0.00  0.00    +0.144 HD
ENDROOT
BRANCH   1  15
ATOM     12  N   UNL     1      35.095 -19.526 -22.022  0.00  0.00    -0.312 N 
ATOM     13  C   UNL     1      35.124 -17.341 -22.476  0.00  0.00    +0.016 C 
ATOM     14  C   UNL     1      34.661 -18.581 -22.925  0.00  0.00    +0.048 C 
ATOM     15  C   UNL     1      34.058 -16.321 -24.397  0.00  0.00    +0.050 C 
ATOM     16  C   UNL     1      34.815 -16.190 -23.228  0.00  0.00    +0.016 C 
ATOM     17  C   UNL     1      33.902 -18.726 -24.090  0.00  0.00    +0.016 C 
ATOM     18  C   UNL     1      33.609 -17.570 -24.820  0.00  0.00    +0.016 C 
ATOM     19  C   UNL     1      35.850 -17.576 -21.274  0.00  0.00    +0.017 C 
ATOM     20  C   UNL     1      35.814 -18.928 -21.022  0.00  0.00    +0.062 C 
ATOM     21  H   UNL     1      34.915 -20.491 -22.088  0.00  0.00    +0.152 HD
ENDBRANCH   1  15
BRANCH   6  23
ATOM     22  N   UNL     1      31.794 -11.219 -19.375  0.00  0.00    -0.242 NA
ATOM     23  C   UNL     1      32.648 -11.857 -21.960  0.00  0.00    +0.031 C 
ATOM     24  C   UNL     1      32.213 -10.570 -21.666  0.00  0.00    +0.023 C 
ATOM     25  C   UNL     1      32.655 -12.827 -20.963  0.00  0.00    +0.023 C 
ATOM     26  C   UNL     1      31.800 -10.304 -20.371  0.00  0.00    +0.099 C 
ATOM     27  C   UNL     1      32.223 -12.460 -19.698  0.00  0.00    +0.099 C 
ENDBRANCH   6  23
TORSDOF 2
ENDMDL
