MODEL 1
REMARK VINA RESULT:     -11.9      0.000      0.000
REMARK  Name = 5567
REMARK  8 active torsions:
REMARK  status: ('A' for Active; 'I' for Inactive)
REMARK    1  A    between atoms: N_1  and  C_20
REMARK    2  A    between atoms: C_2  and  C_8
REMARK    3  A    between atoms: C_2  and  O_18
REMARK    4  A    between atoms: C_11  and  C_17
REMARK    5  A    between atoms: C_20  and  C_21
REMARK    6  A    between atoms: C_21  and  C_22
REMARK    7  A    between atoms: C_22  and  C_24
REMARK    8  A    between atoms: C_24  and  C_26
REMARK                            x       y       z     vdW  Elec       q    Type
REMARK                         _______ _______ _______ _____ _____    ______ ____
ROOT
ATOM      1  N   UNL     1      35.320 -20.241 -19.619  0.00  0.00    +0.387 N 
ATOM      2  C   UNL     1      33.922 -22.385 -18.109  0.00  0.00    +0.103 C 
ATOM      3  C   UNL     1      33.196 -21.235 -18.841  0.00  0.00    +0.008 C 
ATOM      4  C   UNL     1      35.373 -21.941 -17.811  0.00  0.00    +0.008 C 
ATOM      5  C   UNL     1      33.986 -20.689 -20.037  0.00  0.00    -0.075 C 
ATOM      6  C   UNL     1      36.087 -21.344 -19.031  0.00  0.00    -0.075 C 
ATOM      7  H   UNL     1      35.200 -19.524 -18.903  0.00  0.00    -0.080 HD
ENDROOT
BRANCH   2   8
ATOM      8  C   UNL     1      33.237 -22.871 -16.831  0.00  0.00    +0.002 C 
ATOM      9  C   UNL     1      31.855 -22.753 -16.695  0.00  0.00    +0.002 C 
ATOM     10  C   UNL     1      33.996 -23.434 -15.807  0.00  0.00    -0.002 C 
ATOM     11  C   UNL     1      31.229 -23.198 -15.530  0.00  0.00    +0.071 C 
ATOM     12  C   UNL     1      33.370 -23.879 -14.641  0.00  0.00    -0.000 C 
ATOM     13  C   UNL     1      31.987 -23.760 -14.503  0.00  0.00    +0.004 C 
BRANCH  11  17
ATOM     14  F   UNL     1      29.136 -22.530 -16.476  0.00  0.00    -0.166 F 
ATOM     15  F   UNL     1      29.117 -24.263 -15.172  0.00  0.00    -0.166 F 
ATOM     16  F   UNL     1      29.394 -22.276 -14.332  0.00  0.00    -0.166 F 
ATOM     17  C   UNL     1      29.750 -23.071 -15.382  0.00  0.00    +0.419 C 
ENDBRANCH  11  17
ENDBRANCH   2   8
BRANCH   2  18
ATOM     18  O   UNL     1      33.942 -23.521 -18.988  0.00  0.00    -0.383 OA
ATOM     19  H   UNL     1      34.475 -24.227 -18.591  0.00  0.00    +0.211 HD
ENDBRANCH   2  18
BRANCH   1  20
ATOM     20  C   UNL     1      36.042 -19.657 -20.748  0.00  0.00    -0.077 C 
BRANCH  20  21
ATOM     21  C   UNL     1      35.055 -19.128 -21.791  0.00  0.00    -0.015 C 
BRANCH  21  22
ATOM     22  C   UNL     1      35.639 -17.974 -22.610  0.00  0.00    +0.067 C 
BRANCH  22  24
ATOM     23  O   UNL     1      35.315 -16.225 -20.978  0.00  0.00    -0.291 OA
ATOM     24  C   UNL     1      35.174 -16.603 -22.138  0.00  0.00    +0.173 C 
BRANCH  24  26
ATOM     25  F   UNL     1      32.829 -13.154 -25.851  0.00  0.00    -0.204 F 
ATOM     26  C   UNL     1      34.547 -15.682 -23.129  0.00  0.00    +0.035 C 
ATOM     27  C   UNL     1      34.190 -14.416 -22.722  0.00  0.00    +0.005 C 
ATOM     28  C   UNL     1      34.350 -16.131 -24.415  0.00  0.00    +0.005 C 
ATOM     29  C   UNL     1      33.604 -13.555 -23.649  0.00  0.00    +0.030 C 
ATOM     30  C   UNL     1      33.764 -15.270 -25.343  0.00  0.00    +0.030 C 
ATOM     31  C   UNL     1      33.391 -13.981 -24.960  0.00  0.00    +0.140 C 
ENDBRANCH  24  26
ENDBRANCH  22  24
ENDBRANCH  21  22
ENDBRANCH  20  21
ENDBRANCH   1  20
TORSDOF 8
ENDMDL
MODEL 2
REMARK VINA RESULT:     -11.8      3.531     11.032
REMARK  Name = 5567
REMARK  8 active torsions:
REMARK  status: ('A' for Active; 'I' for Inactive)
REMARK    1  A    between atoms: N_1  and  C_20
REMARK    2  A    between atoms: C_2  and  C_8
REMARK    3  A    between atoms: C_2  and  O_18
REMARK    4  A    between atoms: C_11  and  C_17
REMARK    5  A    between atoms: C_20  and  C_21
REMARK    6  A    between atoms: C_21  and  C_22
REMARK    7  A    between atoms: C_22  and  C_24
REMARK    8  A    between atoms: C_24  and  C_26
REMARK                            x       y       z     vdW  Elec       q    Type
REMARK                         _______ _______ _______ _____ _____    ______ ____
ROOT
ATOM      1  N   UNL     1      34.188 -15.700 -23.375  0.00  0.00    +0.387 N 
ATOM      2  C   UNL     1      33.655 -12.838 -22.779  0.00  0.00    +0.103 C 
ATOM      3  C   UNL     1      34.280 -13.825 -21.768  0.00  0.00    +0.008 C 
ATOM      4  C   UNL     1      32.872 -13.647 -23.838  0.00  0.00    +0.008 C 
ATOM      5  C   UNL     1      35.051 -14.967 -22.442  0.00  0.00    -0.075 C 
ATOM      6  C   UNL     1      33.675 -14.815 -24.426  0.00  0.00    -0.075 C 
ATOM      7  H   UNL     1      33.391 -16.059 -22.849  0.00  0.00    -0.080 HD
ENDROOT
BRANCH   2   8
ATOM      8  C   UNL     1      32.764 -11.760 -22.160  0.00  0.00    +0.002 C 
ATOM      9  C   UNL     1      32.831 -10.449 -22.629  0.00  0.00    +0.002 C 
ATOM     10  C   UNL     1      31.885 -12.091 -21.131  0.00  0.00    -0.002 C 
ATOM     11  C   UNL     1      32.017  -9.465 -22.066  0.00  0.00    +0.071 C 
ATOM     12  C   UNL     1      31.071 -11.107 -20.568  0.00  0.00    -0.000 C 
ATOM     13  C   UNL     1      31.137  -9.794 -21.036  0.00  0.00    +0.004 C 
BRANCH  11  17
ATOM     14  F   UNL     1      33.161  -7.825 -23.380  0.00  0.00    -0.166 F 
ATOM     15  F   UNL     1      30.998  -7.683 -23.294  0.00  0.00    -0.166 F 
ATOM     16  F   UNL     1      32.190  -7.150 -21.556  0.00  0.00    -0.166 F 
ATOM     17  C   UNL     1      32.090  -8.061 -22.565  0.00  0.00    +0.419 C 
ENDBRANCH  11  17
ENDBRANCH   2   8
BRANCH   2  18
ATOM     18  O   UNL     1      34.727 -12.128 -23.418  0.00  0.00    -0.383 OA
ATOM     19  H   UNL     1      35.577 -12.478 -23.108  0.00  0.00    +0.211 HD
ENDBRANCH   2  18
BRANCH   1  20
ATOM     20  C   UNL     1      34.908 -16.829 -23.961  0.00  0.00    -0.077 C 
BRANCH  20  21
ATOM     21  C   UNL     1      34.470 -18.137 -23.298  0.00  0.00    -0.015 C 
BRANCH  21  22
ATOM     22  C   UNL     1      35.598 -18.784 -22.489  0.00  0.00    +0.067 C 
BRANCH  22  24
ATOM     23  O   UNL     1      35.621 -17.633 -20.367  0.00  0.00    -0.291 OA
ATOM     24  C   UNL     1      35.402 -18.673 -20.983  0.00  0.00    +0.173 C 
BRANCH  24  26
ATOM     25  F   UNL     1      33.539 -23.139 -18.198  0.00  0.00    -0.204 F 
ATOM     26  C   UNL     1      34.904 -19.864 -20.238  0.00  0.00    +0.035 C 
ATOM     27  C   UNL     1      33.545 -20.057 -20.131  0.00  0.00    +0.005 C 
ATOM     28  C   UNL     1      35.822 -20.729 -19.687  0.00  0.00    +0.005 C 
ATOM     29  C   UNL     1      33.080 -21.173 -19.435  0.00  0.00    +0.030 C 
ATOM     30  C   UNL     1      35.357 -21.845 -18.991  0.00  0.00    +0.030 C 
ATOM     31  C   UNL     1      33.986 -22.068 -18.865  0.00  0.00    +0.140 C 
ENDBRANCH  24  26
ENDBRANCH  22  24
ENDBRANCH  21  22
ENDBRANCH  20  21
ENDBRANCH   1  20
TORSDOF 8
ENDMDL
MODEL 3
REMARK VINA RESULT:     -11.7      3.509     11.191
REMARK  Name = 5567
REMARK  8 active torsions:
REMARK  status: ('A' for Active; 'I' for Inactive)
REMARK    1  A    between atoms: N_1  and  C_20
REMARK    2  A    between atoms: C_2  and  C_8
REMARK    3  A    between atoms: C_2  and  O_18
REMARK    4  A    between atoms: C_11  and  C_17
REMARK    5  A    between atoms: C_20  and  C_21
REMARK    6  A    between atoms: C_21  and  C_22
REMARK    7  A    between atoms: C_22  and  C_24
REMARK    8  A    between atoms: C_24  and  C_26
REMARK                            x       y       z     vdW  Elec       q    Type
REMARK                         _______ _______ _______ _____ _____    ______ ____
ROOT
ATOM      1  N   UNL     1      34.582 -15.664 -23.945  0.00  0.00    +0.387 N 
ATOM      2  C   UNL     1      33.414 -13.023 -23.244  0.00  0.00    +0.103 C 
ATOM      3  C   UNL     1      33.331 -13.654 -24.652  0.00  0.00    +0.008 C 
ATOM      4  C   UNL     1      34.610 -13.652 -22.492  0.00  0.00    +0.008 C 
ATOM      5  C   UNL     1      33.374 -15.187 -24.627  0.00  0.00    -0.075 C 
ATOM      6  C   UNL     1      34.631 -15.185 -22.560  0.00  0.00    -0.075 C 
ATOM      7  H   UNL     1      35.391 -15.285 -24.438  0.00  0.00    -0.080 HD
ENDROOT
BRANCH   2   8
ATOM      8  C   UNL     1      33.512 -11.497 -23.226  0.00  0.00    +0.002 C 
ATOM      9  C   UNL     1      32.666 -10.756 -22.402  0.00  0.00    +0.002 C 
ATOM     10  C   UNL     1      34.448 -10.851 -24.030  0.00  0.00    -0.002 C 
ATOM     11  C   UNL     1      32.756  -9.363 -22.384  0.00  0.00    +0.071 C 
ATOM     12  C   UNL     1      34.538  -9.458 -24.012  0.00  0.00    -0.000 C 
ATOM     13  C   UNL     1      33.691  -8.715 -23.189  0.00  0.00    +0.004 C 
BRANCH  11  17
ATOM     14  F   UNL     1      32.475  -7.535 -20.867  0.00  0.00    -0.166 F 
ATOM     15  F   UNL     1      30.805  -7.995 -22.173  0.00  0.00    -0.166 F 
ATOM     16  F   UNL     1      31.284  -9.321 -20.517  0.00  0.00    -0.166 F 
ATOM     17  C   UNL     1      31.849  -8.569 -21.505  0.00  0.00    +0.419 C 
ENDBRANCH  11  17
ENDBRANCH   2   8
BRANCH   2  18
ATOM     18  O   UNL     1      32.197 -13.337 -22.550  0.00  0.00    -0.383 OA
ATOM     19  H   UNL     1      31.521 -12.675 -22.768  0.00  0.00    +0.211 HD
ENDBRANCH   2  18
BRANCH   1  20
ATOM     20  C   UNL     1      34.652 -17.124 -23.987  0.00  0.00    -0.077 C 
BRANCH  20  21
ATOM     21  C   UNL     1      35.567 -17.641 -22.875  0.00  0.00    -0.015 C 
BRANCH  21  22
ATOM     22  C   UNL     1      35.016 -18.906 -22.211  0.00  0.00    +0.067 C 
BRANCH  22  24
ATOM     23  O   UNL     1      36.414 -18.418 -20.305  0.00  0.00    -0.291 OA
ATOM     24  C   UNL     1      35.537 -19.123 -20.797  0.00  0.00    +0.173 C 
BRANCH  24  26
ATOM     25  F   UNL     1      33.306 -23.215 -17.722  0.00  0.00    -0.204 F 
ATOM     26  C   UNL     1      34.941 -20.216 -19.977  0.00  0.00    +0.035 C 
ATOM     27  C   UNL     1      35.783 -21.053 -19.279  0.00  0.00    +0.005 C 
ATOM     28  C   UNL     1      33.571 -20.347 -19.946  0.00  0.00    +0.005 C 
ATOM     29  C   UNL     1      35.226 -22.076 -18.511  0.00  0.00    +0.030 C 
ATOM     30  C   UNL     1      33.014 -21.370 -19.177  0.00  0.00    +0.030 C 
ATOM     31  C   UNL     1      33.841 -22.234 -18.460  0.00  0.00    +0.140 C 
ENDBRANCH  24  26
ENDBRANCH  22  24
ENDBRANCH  21  22
ENDBRANCH  20  21
ENDBRANCH   1  20
TORSDOF 8
ENDMDL
MODEL 4
REMARK VINA RESULT:     -11.6      3.579      5.990
REMARK  Name = 5567
REMARK  8 active torsions:
REMARK  status: ('A' for Active; 'I' for Inactive)
REMARK    1  A    between atoms: N_1  and  C_20
REMARK    2  A    between atoms: C_2  and  C_8
REMARK    3  A    between atoms: C_2  and  O_18
REMARK    4  A    between atoms: C_11  and  C_17
REMARK    5  A    between atoms: C_20  and  C_21
REMARK    6  A    between atoms: C_21  and  C_22
REMARK    7  A    between atoms: C_22  and  C_24
REMARK    8  A    between atoms: C_24  and  C_26
REMARK                            x       y       z     vdW  Elec       q    Type
REMARK                         _______ _______ _______ _____ _____    ______ ____
ROOT
ATOM      1  N   UNL     1      34.235 -15.967 -23.099  0.00  0.00    +0.387 N 
ATOM      2  C   UNL     1      35.684 -18.153 -21.701  0.00  0.00    +0.103 C 
ATOM      3  C   UNL     1      34.754 -18.376 -22.914  0.00  0.00    +0.008 C 
ATOM      4  C   UNL     1      35.300 -16.817 -21.024  0.00  0.00    +0.008 C 
ATOM      5  C   UNL     1      34.671 -17.156 -23.840  0.00  0.00    -0.075 C 
ATOM      6  C   UNL     1      35.169 -15.651 -22.013  0.00  0.00    -0.075 C 
ATOM      7  H   UNL     1      33.327 -16.172 -22.683  0.00  0.00    -0.080 HD
ENDROOT
BRANCH   2   8
ATOM      8  C   UNL     1      35.695 -19.290 -20.678  0.00  0.00    +0.002 C 
ATOM      9  C   UNL     1      34.495 -19.869 -20.270  0.00  0.00    +0.002 C 
ATOM     10  C   UNL     1      36.905 -19.746 -20.159  0.00  0.00    -0.002 C 
ATOM     11  C   UNL     1      34.504 -20.907 -19.337  0.00  0.00    +0.071 C 
ATOM     12  C   UNL     1      36.915 -20.784 -19.227  0.00  0.00    -0.000 C 
ATOM     13  C   UNL     1      35.714 -21.364 -18.816  0.00  0.00    +0.004 C 
BRANCH  11  17
ATOM     14  F   UNL     1      33.277 -22.069 -17.645  0.00  0.00    -0.166 F 
ATOM     15  F   UNL     1      32.176 -20.649 -18.859  0.00  0.00    -0.166 F 
ATOM     16  F   UNL     1      32.819 -22.540 -19.717  0.00  0.00    -0.166 F 
ATOM     17  C   UNL     1      33.221 -21.527 -18.897  0.00  0.00    +0.419 C 
ENDBRANCH  11  17
ENDBRANCH   2   8
BRANCH   2  18
ATOM     18  O   UNL     1      37.031 -18.068 -22.192  0.00  0.00    -0.383 OA
ATOM     19  H   UNL     1      37.288 -18.919 -22.580  0.00  0.00    +0.211 HD
ENDBRANCH   2  18
BRANCH   1  20
ATOM     20  C   UNL     1      34.091 -14.825 -24.000  0.00  0.00    -0.077 C 
BRANCH  20  21
ATOM     21  C   UNL     1      34.026 -13.523 -23.199  0.00  0.00    -0.015 C 
BRANCH  21  22
ATOM     22  C   UNL     1      32.591 -13.146 -22.819  0.00  0.00    +0.067 C 
BRANCH  22  24
ATOM     23  O   UNL     1      32.473 -13.775 -20.492  0.00  0.00    -0.291 OA
ATOM     24  C   UNL     1      32.409 -12.881 -21.331  0.00  0.00    +0.173 C 
BRANCH  24  26
ATOM     25  F   UNL     1      31.507  -7.635 -19.643  0.00  0.00    -0.204 F 
ATOM     26  C   UNL     1      32.167 -11.481 -20.881  0.00  0.00    +0.035 C 
ATOM     27  C   UNL     1      31.946 -11.245 -19.542  0.00  0.00    +0.005 C 
ATOM     28  C   UNL     1      32.175 -10.474 -21.819  0.00  0.00    +0.005 C 
ATOM     29  C   UNL     1      31.721  -9.935 -19.120  0.00  0.00    +0.030 C 
ATOM     30  C   UNL     1      31.950  -9.163 -21.398  0.00  0.00    +0.030 C 
ATOM     31  C   UNL     1      31.723  -8.893 -20.048  0.00  0.00    +0.140 C 
ENDBRANCH  24  26
ENDBRANCH  22  24
ENDBRANCH  21  22
ENDBRANCH  20  21
ENDBRANCH   1  20
TORSDOF 8
ENDMDL
MODEL 5
REMARK VINA RESULT:     -11.5      2.174      2.645
REMARK  Name = 5567
REMARK  8 active torsions:
REMARK  status: ('A' for Active; 'I' for Inactive)
REMARK    1  A    between atoms: N_1  and  C_20
REMARK    2  A    between atoms: C_2  and  C_8
REMARK    3  A    between atoms: C_2  and  O_18
REMARK    4  A    between atoms: C_11  and  C_17
REMARK    5  A    between atoms: C_20  and  C_21
REMARK    6  A    between atoms: C_21  and  C_22
REMARK    7  A    between atoms: C_22  and  C_24
REMARK    8  A    between atoms: C_24  and  C_26
REMARK                            x       y       z     vdW  Elec       q    Type
REMARK                         _______ _______ _______ _____ _____    ______ ____
ROOT
ATOM      1  N   UNL     1      34.881 -20.147 -19.913  0.00  0.00    +0.387 N 
ATOM      2  C   UNL     1      33.859 -22.344 -18.193  0.00  0.00    +0.103 C 
ATOM      3  C   UNL     1      32.965 -21.243 -18.804  0.00  0.00    +0.008 C 
ATOM      4  C   UNL     1      35.313 -21.821 -18.132  0.00  0.00    +0.008 C 
ATOM      5  C   UNL     1      33.524 -20.670 -20.112  0.00  0.00    -0.075 C 
ATOM      6  C   UNL     1      35.790 -21.201 -19.452  0.00  0.00    -0.075 C 
ATOM      7  H   UNL     1      34.837 -19.429 -19.190  0.00  0.00    -0.080 HD
ENDROOT
BRANCH   2   8
ATOM      8  C   UNL     1      33.413 -22.851 -16.821  0.00  0.00    +0.002 C 
ATOM      9  C   UNL     1      34.363 -23.136 -15.842  0.00  0.00    +0.002 C 
ATOM     10  C   UNL     1      32.057 -23.024 -16.552  0.00  0.00    -0.002 C 
ATOM     11  C   UNL     1      33.956 -23.597 -14.589  0.00  0.00    +0.071 C 
ATOM     12  C   UNL     1      31.650 -23.485 -15.299  0.00  0.00    -0.000 C 
ATOM     13  C   UNL     1      32.600 -23.772 -14.319  0.00  0.00    +0.004 C 
BRANCH  11  17
ATOM     14  F   UNL     1      34.429 -24.195 -12.322  0.00  0.00    -0.166 F 
ATOM     15  F   UNL     1      35.761 -24.979 -13.844  0.00  0.00    -0.166 F 
ATOM     16  F   UNL     1      35.832 -22.869 -13.323  0.00  0.00    -0.166 F 
ATOM     17  C   UNL     1      34.972 -23.905 -13.542  0.00  0.00    +0.419 C 
ENDBRANCH  11  17
ENDBRANCH   2   8
BRANCH   2  18
ATOM     18  O   UNL     1      33.801 -23.488 -19.060  0.00  0.00    -0.383 OA
ATOM     19  H   UNL     1      34.608 -24.015 -18.954  0.00  0.00    +0.211 HD
ENDBRANCH   2  18
BRANCH   1  20
ATOM     20  C   UNL     1      35.381 -19.540 -21.145  0.00  0.00    -0.077 C 
BRANCH  20  21
ATOM     21  C   UNL     1      35.805 -18.092 -20.887  0.00  0.00    -0.015 C 
BRANCH  21  22
ATOM     22  C   UNL     1      35.570 -17.193 -22.104  0.00  0.00    +0.067 C 
BRANCH  22  24
ATOM     23  O   UNL     1      35.023 -15.391 -20.594  0.00  0.00    -0.291 OA
ATOM     24  C   UNL     1      35.014 -15.822 -21.744  0.00  0.00    +0.173 C 
BRANCH  24  26
ATOM     25  F   UNL     1      32.943 -12.624 -25.827  0.00  0.00    -0.204 F 
ATOM     26  C   UNL     1      34.460 -14.968 -22.833  0.00  0.00    +0.035 C 
ATOM     27  C   UNL     1      34.315 -13.617 -22.607  0.00  0.00    +0.005 C 
ATOM     28  C   UNL     1      34.116 -15.561 -24.027  0.00  0.00    +0.005 C 
ATOM     29  C   UNL     1      33.797 -12.819 -23.626  0.00  0.00    +0.030 C 
ATOM     30  C   UNL     1      33.598 -14.762 -25.047  0.00  0.00    +0.030 C 
ATOM     31  C   UNL     1      33.440 -13.391 -24.847  0.00  0.00    +0.140 C 
ENDBRANCH  24  26
ENDBRANCH  22  24
ENDBRANCH  21  22
ENDBRANCH  20  21
ENDBRANCH   1  20
TORSDOF 8
ENDMDL
MODEL 6
REMARK VINA RESULT:     -11.2      3.610      9.607
REMARK  Name = 5567
REMARK  8 active torsions:
REMARK  status: ('A' for Active; 'I' for Inactive)
REMARK    1  A    between atoms: N_1  and  C_20
REMARK    2  A    between atoms: C_2  and  C_8
REMARK    3  A    between atoms: C_2  and  O_18
REMARK    4  A    between atoms: C_11  and  C_17
REMARK    5  A    between atoms: C_20  and  C_21
REMARK    6  A    between atoms: C_21  and  C_22
REMARK    7  A    between atoms: C_22  and  C_24
REMARK    8  A    between atoms: C_24  and  C_26
REMARK                            x       y       z     vdW  Elec       q    Type
REMARK                         _______ _______ _______ _____ _____    ______ ____
ROOT
ATOM      1  N   UNL     1      34.246 -23.241 -15.294  0.00  0.00    +0.387 N 
ATOM      2  C   UNL     1      34.229 -22.362 -18.132  0.00  0.00    +0.103 C 
ATOM      3  C   UNL     1      35.433 -22.179 -17.182  0.00  0.00    +0.008 C 
ATOM      4  C   UNL     1      32.947 -22.514 -17.280  0.00  0.00    +0.008 C 
ATOM      5  C   UNL     1      35.490 -23.236 -16.073  0.00  0.00    -0.075 C 
ATOM      6  C   UNL     1      33.091 -23.538 -16.147  0.00  0.00    -0.075 C 
ATOM      7  H   UNL     1      34.117 -22.308 -14.903  0.00  0.00    -0.080 HD
ENDROOT
BRANCH   2   8
ATOM      8  C   UNL     1      34.053 -21.255 -19.173  0.00  0.00    +0.002 C 
ATOM      9  C   UNL     1      35.166 -20.561 -19.645  0.00  0.00    +0.002 C 
ATOM     10  C   UNL     1      32.780 -20.943 -19.648  0.00  0.00    -0.002 C 
ATOM     11  C   UNL     1      35.006 -19.552 -20.596  0.00  0.00    +0.071 C 
ATOM     12  C   UNL     1      32.621 -19.934 -20.598  0.00  0.00    -0.000 C 
ATOM     13  C   UNL     1      33.733 -19.238 -21.071  0.00  0.00    +0.004 C 
BRANCH  11  17
ATOM     14  F   UNL     1      37.383 -19.287 -20.624  0.00  0.00    -0.166 F 
ATOM     15  F   UNL     1      36.321 -18.834 -22.460  0.00  0.00    -0.166 F 
ATOM     16  F   UNL     1      36.172 -17.487 -20.760  0.00  0.00    -0.166 F 
ATOM     17  C   UNL     1      36.196 -18.808 -21.100  0.00  0.00    +0.419 C 
ENDBRANCH  11  17
ENDBRANCH   2   8
BRANCH   2  18
ATOM     18  O   UNL     1      34.444 -23.564 -18.887  0.00  0.00    -0.383 OA
ATOM     19  H   UNL     1      35.359 -23.863 -18.765  0.00  0.00    +0.211 HD
ENDBRANCH   2  18
BRANCH   1  20
ATOM     20  C   UNL     1      34.333 -24.202 -14.195  0.00  0.00    -0.077 C 
BRANCH  20  21
ATOM     21  C   UNL     1      33.269 -23.895 -13.139  0.00  0.00    -0.015 C 
BRANCH  21  22
ATOM     22  C   UNL     1      32.126 -24.914 -13.154  0.00  0.00    +0.067 C 
BRANCH  22  24
ATOM     23  O   UNL     1      30.326 -24.020 -11.817  0.00  0.00    -0.291 OA
ATOM     24  C   UNL     1      30.756 -24.287 -12.936  0.00  0.00    +0.173 C 
BRANCH  24  26
ATOM     25  F   UNL     1      27.625 -23.097 -17.404  0.00  0.00    -0.204 F 
ATOM     26  C   UNL     1      29.919 -23.969 -14.128  0.00  0.00    +0.035 C 
ATOM     27  C   UNL     1      29.736 -22.649 -14.474  0.00  0.00    +0.005 C 
ATOM     28  C   UNL     1      29.361 -25.007 -14.840  0.00  0.00    +0.005 C 
ATOM     29  C   UNL     1      28.954 -22.352 -15.590  0.00  0.00    +0.030 C 
ATOM     30  C   UNL     1      28.579 -24.710 -15.956  0.00  0.00    +0.030 C 
ATOM     31  C   UNL     1      28.376 -23.382 -16.332  0.00  0.00    +0.140 C 
ENDBRANCH  24  26
ENDBRANCH  22  24
ENDBRANCH  21  22
ENDBRANCH  20  21
ENDBRANCH   1  20
TORSDOF 8
ENDMDL
MODEL 7
REMARK VINA RESULT:     -11.1      3.726      6.237
REMARK  Name = 5567
REMARK  8 active torsions:
REMARK  status: ('A' for Active; 'I' for Inactive)
REMARK    1  A    between atoms: N_1  and  C_20
REMARK    2  A    between atoms: C_2  and  C_8
REMARK    3  A    between atoms: C_2  and  O_18
REMARK    4  A    between atoms: C_11  and  C_17
REMARK    5  A    between atoms: C_20  and  C_21
REMARK    6  A    between atoms: C_21  and  C_22
REMARK    7  A    between atoms: C_22  and  C_24
REMARK    8  A    between atoms: C_24  and  C_26
REMARK                            x       y       z     vdW  Elec       q    Type
REMARK                         _______ _______ _______ _____ _____    ______ ____
ROOT
ATOM      1  N   UNL     1      34.222 -15.911 -23.078  0.00  0.00    +0.387 N 
ATOM      2  C   UNL     1      35.711 -18.088 -21.709  0.00  0.00    +0.103 C 
ATOM      3  C   UNL     1      34.793 -18.310 -22.931  0.00  0.00    +0.008 C 
ATOM      4  C   UNL     1      35.292 -16.773 -21.011  0.00  0.00    +0.008 C 
ATOM      5  C   UNL     1      34.689 -17.077 -23.837  0.00  0.00    -0.075 C 
ATOM      6  C   UNL     1      35.141 -15.594 -21.981  0.00  0.00    -0.075 C 
ATOM      7  H   UNL     1      33.315 -16.144 -22.672  0.00  0.00    -0.080 HD
ENDROOT
BRANCH   2   8
ATOM      8  C   UNL     1      35.741 -19.242 -20.706  0.00  0.00    +0.002 C 
ATOM      9  C   UNL     1      34.572 -19.947 -20.421  0.00  0.00    +0.002 C 
ATOM     10  C   UNL     1      36.937 -19.588 -20.080  0.00  0.00    -0.002 C 
ATOM     11  C   UNL     1      34.599 -21.001 -19.507  0.00  0.00    +0.071 C 
ATOM     12  C   UNL     1      36.964 -20.642 -19.166  0.00  0.00    -0.000 C 
ATOM     13  C   UNL     1      35.795 -21.348 -18.879  0.00  0.00    +0.004 C 
BRANCH  11  17
ATOM     14  F   UNL     1      32.925 -21.605 -17.909  0.00  0.00    -0.166 F 
ATOM     15  F   UNL     1      32.284 -21.382 -19.969  0.00  0.00    -0.166 F 
ATOM     16  F   UNL     1      33.487 -23.098 -19.387  0.00  0.00    -0.166 F 
ATOM     17  C   UNL     1      33.349 -21.754 -19.199  0.00  0.00    +0.419 C 
ENDBRANCH  11  17
ENDBRANCH   2   8
BRANCH   2  18
ATOM     18  O   UNL     1      37.059 -17.964 -22.189  0.00  0.00    -0.383 OA
ATOM     19  H   UNL     1      37.150 -18.449 -23.024  0.00  0.00    +0.211 HD
ENDBRANCH   2  18
BRANCH   1  20
ATOM     20  C   UNL     1      34.057 -14.757 -23.960  0.00  0.00    -0.077 C 
BRANCH  20  21
ATOM     21  C   UNL     1      34.351 -13.463 -23.199  0.00  0.00    -0.015 C 
BRANCH  21  22
ATOM     22  C   UNL     1      33.268 -12.403 -23.416  0.00  0.00    +0.067 C 
BRANCH  22  24
ATOM     23  O   UNL     1      34.729 -10.790 -24.460  0.00  0.00    -0.291 OA
ATOM     24  C   UNL     1      33.827 -11.007 -23.655  0.00  0.00    +0.173 C 
BRANCH  24  26
ATOM     25  F   UNL     1      31.635  -6.727 -20.817  0.00  0.00    -0.204 F 
ATOM     26  C   UNL     1      33.241  -9.864 -22.899  0.00  0.00    +0.035 C 
ATOM     27  C   UNL     1      32.175 -10.104 -22.059  0.00  0.00    +0.005 C 
ATOM     28  C   UNL     1      33.788  -8.612 -23.065  0.00  0.00    +0.005 C 
ATOM     29  C   UNL     1      31.628  -9.034 -21.351  0.00  0.00    +0.030 C 
ATOM     30  C   UNL     1      33.240  -7.543 -22.356  0.00  0.00    +0.030 C 
ATOM     31  C   UNL     1      32.160  -7.754 -21.498  0.00  0.00    +0.140 C 
ENDBRANCH  24  26
ENDBRANCH  22  24
ENDBRANCH  21  22
ENDBRANCH  20  21
ENDBRANCH   1  20
TORSDOF 8
ENDMDL
MODEL 8
REMARK VINA RESULT:     -10.7      4.915     10.238
REMARK  Name = 5567
REMARK  8 active torsions:
REMARK  status: ('A' for Active; 'I' for Inactive)
REMARK    1  A    between atoms: N_1  and  C_20
REMARK    2  A    between atoms: C_2  and  C_8
REMARK    3  A    between atoms: C_2  and  O_18
REMARK    4  A    between atoms: C_11  and  C_17
REMARK    5  A    between atoms: C_20  and  C_21
REMARK    6  A    between atoms: C_21  and  C_22
REMARK    7  A    between atoms: C_22  and  C_24
REMARK    8  A    between atoms: C_24  and  C_26
REMARK                            x       y       z     vdW  Elec       q    Type
REMARK                         _______ _______ _______ _____ _____    ______ ____
ROOT
ATOM      1  N   UNL     1      33.540 -23.263 -15.032  0.00  0.00    +0.387 N 
ATOM      2  C   UNL     1      33.770 -22.510 -17.896  0.00  0.00    +0.103 C 
ATOM      3  C   UNL     1      34.940 -22.433 -16.890  0.00  0.00    +0.008 C 
ATOM      4  C   UNL     1      32.440 -22.469 -17.110  0.00  0.00    +0.008 C 
ATOM      5  C   UNL     1      34.812 -23.441 -15.742  0.00  0.00    -0.075 C 
ATOM      6  C   UNL     1      32.401 -23.454 -15.934  0.00  0.00    -0.075 C 
ATOM      7  H   UNL     1      33.508 -22.305 -14.682  0.00  0.00    -0.080 HD
ENDROOT
BRANCH   2   8
ATOM      8  C   UNL     1      33.783 -21.435 -18.984  0.00  0.00    +0.002 C 
ATOM      9  C   UNL     1      34.981 -20.816 -19.337  0.00  0.00    +0.002 C 
ATOM     10  C   UNL     1      32.597 -21.078 -19.623  0.00  0.00    -0.002 C 
ATOM     11  C   UNL     1      34.994 -19.836 -20.330  0.00  0.00    +0.071 C 
ATOM     12  C   UNL     1      32.609 -20.099 -20.617  0.00  0.00    -0.000 C 
ATOM     13  C   UNL     1      33.808 -19.478 -20.970  0.00  0.00    +0.004 C 
BRANCH  11  17
ATOM     14  F   UNL     1      36.373 -17.883 -20.262  0.00  0.00    -0.166 F 
ATOM     15  F   UNL     1      37.382 -19.803 -20.217  0.00  0.00    -0.166 F 
ATOM     16  F   UNL     1      36.456 -19.107 -22.057  0.00  0.00    -0.166 F 
ATOM     17  C   UNL     1      36.275 -19.172 -20.707  0.00  0.00    +0.419 C 
ENDBRANCH  11  17
ENDBRANCH   2   8
BRANCH   2  18
ATOM     18  O   UNL     1      33.873 -23.761 -18.594  0.00  0.00    -0.383 OA
ATOM     19  H   UNL     1      33.130 -23.848 -19.212  0.00  0.00    +0.211 HD
ENDBRANCH   2  18
BRANCH   1  20
ATOM     20  C   UNL     1      33.455 -24.179 -13.895  0.00  0.00    -0.077 C 
BRANCH  20  21
ATOM     21  C   UNL     1      34.850 -24.446 -13.325  0.00  0.00    -0.015 C 
BRANCH  21  22
ATOM     22  C   UNL     1      35.122 -23.636 -12.054  0.00  0.00    +0.067 C 
BRANCH  22  24
ATOM     23  O   UNL     1      36.975 -22.505 -10.998  0.00  0.00    -0.291 OA
ATOM     24  C   UNL     1      36.592 -23.289 -11.863  0.00  0.00    +0.173 C 
BRANCH  24  26
ATOM     25  F   UNL     1      40.370 -25.732 -15.170  0.00  0.00    -0.204 F 
ATOM     26  C   UNL     1      37.600 -23.942 -12.746  0.00  0.00    +0.035 C 
ATOM     27  C   UNL     1      37.795 -23.437 -14.013  0.00  0.00    +0.005 C 
ATOM     28  C   UNL     1      38.300 -25.024 -12.263  0.00  0.00    +0.005 C 
ATOM     29  C   UNL     1      38.739 -24.048 -14.840  0.00  0.00    +0.030 C 
ATOM     30  C   UNL     1      39.244 -25.634 -13.089  0.00  0.00    +0.030 C 
ATOM     31  C   UNL     1      39.464 -25.146 -14.377  0.00  0.00    +0.140 C 
ENDBRANCH  24  26
ENDBRANCH  22  24
ENDBRANCH  21  22
ENDBRANCH  20  21
ENDBRANCH   1  20
TORSDOF 8
ENDMDL
MODEL 9
REMARK VINA RESULT:     -10.5      6.605      9.866
REMARK  Name = 5567
REMARK  8 active torsions:
REMARK  status: ('A' for Active; 'I' for Inactive)
REMARK    1  A    between atoms: N_1  and  C_20
REMARK    2  A    between atoms: C_2  and  C_8
REMARK    3  A    between atoms: C_2  and  O_18
REMARK    4  A    between atoms: C_11  and  C_17
REMARK    5  A    between atoms: C_20  and  C_21
REMARK    6  A    between atoms: C_21  and  C_22
REMARK    7  A    between atoms: C_22  and  C_24
REMARK    8  A    between atoms: C_24  and  C_26
REMARK                            x       y       z     vdW  Elec       q    Type
REMARK                         _______ _______ _______ _____ _____    ______ ____
ROOT
ATOM      1  N   UNL     1      31.597 -11.950 -21.037  0.00  0.00    +0.387 N 
ATOM      2  C   UNL     1      33.815 -13.691 -21.973  0.00  0.00    +0.103 C 
ATOM      3  C   UNL     1      33.010 -12.752 -22.898  0.00  0.00    +0.008 C 
ATOM      4  C   UNL     1      32.964 -13.997 -20.719  0.00  0.00    +0.008 C 
ATOM      5  C   UNL     1      32.437 -11.533 -22.166  0.00  0.00    -0.075 C 
ATOM      6  C   UNL     1      32.366 -12.741 -20.071  0.00  0.00    -0.075 C 
ATOM      7  H   UNL     1      30.850 -12.540 -21.403  0.00  0.00    -0.080 HD
ENDROOT
BRANCH   2   8
ATOM      8  C   UNL     1      34.292 -14.989 -22.627  0.00  0.00    +0.002 C 
ATOM      9  C   UNL     1      34.965 -15.945 -21.868  0.00  0.00    +0.002 C 
ATOM     10  C   UNL     1      34.049 -15.214 -23.981  0.00  0.00    -0.002 C 
ATOM     11  C   UNL     1      35.399 -17.129 -22.465  0.00  0.00    +0.071 C 
ATOM     12  C   UNL     1      34.483 -16.399 -24.578  0.00  0.00    -0.000 C 
ATOM     13  C   UNL     1      35.158 -17.356 -23.819  0.00  0.00    +0.004 C 
BRANCH  11  17
ATOM     14  F   UNL     1      35.579 -19.403 -21.743  0.00  0.00    -0.166 F 
ATOM     15  F   UNL     1      37.431 -18.305 -22.009  0.00  0.00    -0.166 F 
ATOM     16  F   UNL     1      36.134 -17.853 -20.323  0.00  0.00    -0.166 F 
ATOM     17  C   UNL     1      36.121 -18.152 -21.654  0.00  0.00    +0.419 C 
ENDBRANCH  11  17
ENDBRANCH   2   8
BRANCH   2  18
ATOM     18  O   UNL     1      35.011 -13.000 -21.580  0.00  0.00    -0.383 OA
ATOM     19  H   UNL     1      34.787 -12.096 -21.309  0.00  0.00    +0.211 HD
ENDBRANCH   2  18
BRANCH   1  20
ATOM     20  C   UNL     1      30.998 -10.786 -20.386  0.00  0.00    -0.077 C 
BRANCH  20  21
ATOM     21  C   UNL     1      32.086  -9.911 -19.760  0.00  0.00    -0.015 C 
BRANCH  21  22
ATOM     22  C   UNL     1      31.626  -8.465 -19.560  0.00  0.00    +0.067 C 
BRANCH  22  24
ATOM     23  O   UNL     1      33.588  -7.066 -19.418  0.00  0.00    -0.291 OA
ATOM     24  C   UNL     1      32.622  -7.437 -20.079  0.00  0.00    +0.173 C 
BRANCH  24  26
ATOM     25  F   UNL     1      31.878  -5.346 -25.203  0.00  0.00    -0.204 F 
ATOM     26  C   UNL     1      32.423  -6.880 -21.447  0.00  0.00    +0.035 C 
ATOM     27  C   UNL     1      31.192  -7.023 -22.048  0.00  0.00    +0.005 C 
ATOM     28  C   UNL     1      33.478  -6.241 -22.060  0.00  0.00    +0.005 C 
ATOM     29  C   UNL     1      31.006  -6.500 -23.328  0.00  0.00    +0.030 C 
ATOM     30  C   UNL     1      33.292  -5.719 -23.340  0.00  0.00    +0.030 C 
ATOM     31  C   UNL     1      32.056  -5.848 -23.974  0.00  0.00    +0.140 C 
ENDBRANCH  24  26
ENDBRANCH  22  24
ENDBRANCH  21  22
ENDBRANCH  20  21
ENDBRANCH   1  20
TORSDOF 8
ENDMDL
