MODEL 1
REMARK VINA RESULT:     -12.2      0.000      0.000
REMARK  Name = 11691242
REMARK  5 active torsions:
REMARK  status: ('A' for Active; 'I' for Inactive)
REMARK    1  A    between atoms: N_1  and  C_25
REMARK    2  A    between atoms: C_5  and  N_11
REMARK    3  A    between atoms: N_12  and  C_17
REMARK    4  A    between atoms: C_18  and  O_23
REMARK    5  A    between atoms: C_25  and  C_28
REMARK                            x       y       z     vdW  Elec       q    Type
REMARK                         _______ _______ _______ _____ _____    ______ ____
ROOT
ATOM      1  N   UNL     1      35.374 -16.572 -22.126  0.00  0.00    -0.282 N 
ATOM      2  C   UNL     1      34.728 -15.887 -23.130  0.00  0.00    +0.053 C 
ATOM      3  C   UNL     1      34.132 -14.767 -22.545  0.00  0.00    +0.028 C 
ATOM      4  C   UNL     1      35.207 -15.927 -20.930  0.00  0.00    +0.066 C 
ATOM      5  C   UNL     1      33.398 -13.885 -23.363  0.00  0.00    +0.053 C 
ATOM      6  C   UNL     1      34.442 -14.806 -21.157  0.00  0.00    +0.019 C 
ATOM      7  C   UNL     1      34.627 -16.169 -24.496  0.00  0.00    +0.015 C 
ATOM      8  C   UNL     1      33.288 -14.155 -24.732  0.00  0.00    +0.015 C 
ATOM      9  C   UNL     1      33.894 -15.279 -25.288  0.00  0.00    +0.003 C 
ENDROOT
BRANCH   5  11
ATOM     10  O   UNL     1      34.340 -11.052 -23.252  0.00  0.00    -0.252 OA
ATOM     11  N   UNL     1      32.782 -12.752 -22.830  0.00  0.00    -0.268 N 
ATOM     12  N   UNL     1      32.321 -10.588 -22.165  0.00  0.00    -0.266 N 
ATOM     13  C   UNL     1      33.261 -11.419 -22.796  0.00  0.00    +0.308 C 
ATOM     14  H   UNL     1      31.897 -12.897 -22.424  0.00  0.00    +0.156 HD
ATOM     15  H   UNL     1      31.499 -11.028 -21.850  0.00  0.00    +0.157 HD
BRANCH  12  17
ATOM     16 BR   UNL     1      33.846  -5.898 -23.994  0.00  0.00    -0.049 Br
ATOM     17  C   UNL     1      32.411  -9.196 -21.928  0.00  0.00    +0.086 C 
ATOM     18  C   UNL     1      31.938  -8.665 -20.738  0.00  0.00    +0.152 C 
ATOM     19  C   UNL     1      32.977  -8.389 -22.902  0.00  0.00    +0.024 C 
ATOM     20  C   UNL     1      32.032  -7.292 -20.518  0.00  0.00    +0.039 C 
ATOM     21  C   UNL     1      33.072  -7.015 -22.681  0.00  0.00    +0.036 C 
ATOM     22  C   UNL     1      32.599  -6.466 -21.490  0.00  0.00    +0.010 C 
BRANCH  18  23
ATOM     23  O   UNL     1      31.382  -9.455 -19.777  0.00  0.00    -0.470 OA
ATOM     24  C   UNL     1      32.256  -9.964 -18.771  0.00  0.00    +0.253 C 
ENDBRANCH  18  23
ENDBRANCH  12  17
ENDBRANCH   5  11
BRANCH   1  25
ATOM     25  C   UNL     1      36.121 -17.801 -22.292  0.00  0.00    +0.122 C 
BRANCH  25  28
ATOM     26  N   UNL     1      35.022 -20.716 -19.349  0.00  0.00    -0.230 NA
ATOM     27  N   UNL     1      32.753 -20.554 -20.056  0.00  0.00    -0.343 N 
ATOM     28  C   UNL     1      35.734 -18.823 -21.258  0.00  0.00    +0.002 C 
ATOM     29  C   UNL     1      34.412 -19.212 -21.140  0.00  0.00    +0.031 C 
ATOM     30  C   UNL     1      36.706 -19.366 -20.437  0.00  0.00    +0.018 C 
ATOM     31  C   UNL     1      34.108 -20.157 -20.174  0.00  0.00    +0.125 C 
ATOM     32  C   UNL     1      36.300 -20.304 -19.502  0.00  0.00    +0.100 C 
ATOM     33  H   UNL     1      32.493 -21.223 -19.384  0.00  0.00    +0.144 HD
ATOM     34  H   UNL     1      32.072 -20.160 -20.649  0.00  0.00    +0.144 HD
ENDBRANCH  25  28
ENDBRANCH   1  25
TORSDOF 5
ENDMDL
MODEL 2
REMARK VINA RESULT:     -11.5      5.780      9.829
REMARK  Name = 11691242
REMARK  5 active torsions:
REMARK  status: ('A' for Active; 'I' for Inactive)
REMARK    1  A    between atoms: N_1  and  C_25
REMARK    2  A    between atoms: C_5  and  N_11
REMARK    3  A    between atoms: N_12  and  C_17
REMARK    4  A    between atoms: C_18  and  O_23
REMARK    5  A    between atoms: C_25  and  C_28
REMARK                            x       y       z     vdW  Elec       q    Type
REMARK                         _______ _______ _______ _____ _____    ______ ____
ROOT
ATOM      1  N   UNL     1      36.394 -22.620 -15.224  0.00  0.00    -0.282 N 
ATOM      2  C   UNL     1      35.438 -22.637 -16.214  0.00  0.00    +0.053 C 
ATOM      3  C   UNL     1      35.883 -21.789 -17.231  0.00  0.00    +0.028 C 
ATOM      4  C   UNL     1      37.425 -21.792 -15.579  0.00  0.00    +0.066 C 
ATOM      5  C   UNL     1      35.080 -21.624 -18.377  0.00  0.00    +0.053 C 
ATOM      6  C   UNL     1      37.138 -21.262 -16.815  0.00  0.00    +0.019 C 
ATOM      7  C   UNL     1      34.226 -23.332 -16.287  0.00  0.00    +0.015 C 
ATOM      8  C   UNL     1      33.864 -22.312 -18.464  0.00  0.00    +0.015 C 
ATOM      9  C   UNL     1      33.445 -23.153 -17.434  0.00  0.00    +0.003 C 
ENDROOT
BRANCH   5  11
ATOM     10  O   UNL     1      33.458 -19.840 -20.140  0.00  0.00    -0.252 OA
ATOM     11  N   UNL     1      35.477 -20.788 -19.421  0.00  0.00    -0.268 N 
ATOM     12  N   UNL     1      35.481 -19.281 -21.172  0.00  0.00    -0.266 N 
ATOM     13  C   UNL     1      34.676 -19.954 -20.238  0.00  0.00    +0.308 C 
ATOM     14  H   UNL     1      36.442 -20.777 -19.617  0.00  0.00    +0.156 HD
ATOM     15  H   UNL     1      36.445 -19.475 -21.129  0.00  0.00    +0.157 HD
BRANCH  12  17
ATOM     16 BR   UNL     1      34.709 -14.236 -22.445  0.00  0.00    -0.049 Br
ATOM     17  C   UNL     1      35.077 -18.359 -22.166  0.00  0.00    +0.086 C 
ATOM     18  C   UNL     1      34.674 -18.815 -23.411  0.00  0.00    +0.152 C 
ATOM     19  C   UNL     1      35.095 -17.006 -21.866  0.00  0.00    +0.024 C 
ATOM     20  C   UNL     1      34.280 -17.895 -24.381  0.00  0.00    +0.039 C 
ATOM     21  C   UNL     1      34.699 -16.085 -22.836  0.00  0.00    +0.036 C 
ATOM     22  C   UNL     1      34.292 -16.529 -24.094  0.00  0.00    +0.010 C 
BRANCH  18  23
ATOM     23  O   UNL     1      34.654 -20.145 -23.711  0.00  0.00    -0.470 OA
ATOM     24  C   UNL     1      35.072 -20.520 -25.022  0.00  0.00    +0.253 C 
ENDBRANCH  18  23
ENDBRANCH  12  17
ENDBRANCH   5  11
BRANCH   1  25
ATOM     25  C   UNL     1      36.332 -23.359 -13.982  0.00  0.00    +0.122 C 
BRANCH  25  28
ATOM     26  N   UNL     1      38.317 -27.144 -14.309  0.00  0.00    -0.230 NA
ATOM     27  N   UNL     1      40.365 -26.108 -13.671  0.00  0.00    -0.343 N 
ATOM     28  C   UNL     1      37.030 -24.687 -14.097  0.00  0.00    +0.002 C 
ATOM     29  C   UNL     1      38.384 -24.776 -13.829  0.00  0.00    +0.031 C 
ATOM     30  C   UNL     1      36.308 -25.807 -14.470  0.00  0.00    +0.018 C 
ATOM     31  C   UNL     1      38.978 -26.021 -13.948  0.00  0.00    +0.125 C 
ATOM     32  C   UNL     1      36.996 -27.007 -14.561  0.00  0.00    +0.100 C 
ATOM     33  H   UNL     1      40.828 -26.974 -13.743  0.00  0.00    +0.144 HD
ATOM     34  H   UNL     1      40.866 -25.303 -13.406  0.00  0.00    +0.144 HD
ENDBRANCH  25  28
ENDBRANCH   1  25
TORSDOF 5
ENDMDL
MODEL 3
REMARK VINA RESULT:     -11.3      6.973     12.502
REMARK  Name = 11691242
REMARK  5 active torsions:
REMARK  status: ('A' for Active; 'I' for Inactive)
REMARK    1  A    between atoms: N_1  and  C_25
REMARK    2  A    between atoms: C_5  and  N_11
REMARK    3  A    between atoms: N_12  and  C_17
REMARK    4  A    between atoms: C_18  and  O_23
REMARK    5  A    between atoms: C_25  and  C_28
REMARK                            x       y       z     vdW  Elec       q    Type
REMARK                         _______ _______ _______ _____ _____    ______ ____
ROOT
ATOM      1  N   UNL     1      35.841 -18.999 -21.140  0.00  0.00    -0.282 N 
ATOM      2  C   UNL     1      35.135 -19.887 -20.360  0.00  0.00    +0.053 C 
ATOM      3  C   UNL     1      36.035 -20.429 -19.439  0.00  0.00    +0.028 C 
ATOM      4  C   UNL     1      37.151 -18.961 -20.746  0.00  0.00    +0.066 C 
ATOM      5  C   UNL     1      35.565 -21.379 -18.511  0.00  0.00    +0.053 C 
ATOM      6  C   UNL     1      37.303 -19.836 -19.696  0.00  0.00    +0.019 C 
ATOM      7  C   UNL     1      33.784 -20.248 -20.398  0.00  0.00    +0.015 C 
ATOM      8  C   UNL     1      34.215 -21.750 -18.537  0.00  0.00    +0.015 C 
ATOM      9  C   UNL     1      33.340 -21.192 -19.467  0.00  0.00    +0.003 C 
ENDROOT
BRANCH   5  11
ATOM     10  O   UNL     1      34.965 -22.601 -15.852  0.00  0.00    -0.252 OA
ATOM     11  N   UNL     1      36.421 -21.952 -17.570  0.00  0.00    -0.268 N 
ATOM     12  N   UNL     1      37.266 -22.986 -15.685  0.00  0.00    -0.266 N 
ATOM     13  C   UNL     1      36.099 -22.524 -16.315  0.00  0.00    +0.308 C 
ATOM     14  H   UNL     1      37.376 -21.961 -17.809  0.00  0.00    +0.156 HD
ATOM     15  H   UNL     1      38.105 -22.854 -16.181  0.00  0.00    +0.157 HD
BRANCH  12  17
ATOM     16 BR   UNL     1      35.062 -23.907 -10.998  0.00  0.00    -0.049 Br
ATOM     17  C   UNL     1      37.382 -23.618 -14.424  0.00  0.00    +0.086 C 
ATOM     18  C   UNL     1      38.513 -24.363 -14.125  0.00  0.00    +0.152 C 
ATOM     19  C   UNL     1      36.351 -23.476 -13.509  0.00  0.00    +0.024 C 
ATOM     20  C   UNL     1      38.614 -24.980 -12.880  0.00  0.00    +0.039 C 
ATOM     21  C   UNL     1      36.453 -24.094 -12.263  0.00  0.00    +0.036 C 
ATOM     22  C   UNL     1      37.584 -24.846 -11.948  0.00  0.00    +0.010 C 
BRANCH  18  23
ATOM     23  O   UNL     1      39.530 -24.504 -15.021  0.00  0.00    -0.470 OA
ATOM     24  C   UNL     1      40.493 -25.522 -14.753  0.00  0.00    +0.253 C 
ENDBRANCH  18  23
ENDBRANCH  12  17
ENDBRANCH   5  11
BRANCH   1  25
ATOM     25  C   UNL     1      35.293 -18.214 -22.226  0.00  0.00    +0.122 C 
BRANCH  25  28
ATOM     26  N   UNL     1      34.601 -14.157 -21.031  0.00  0.00    -0.230 NA
ATOM     27  N   UNL     1      34.402 -13.532 -23.321  0.00  0.00    -0.343 N 
ATOM     28  C   UNL     1      35.051 -16.790 -21.808  0.00  0.00    +0.002 C 
ATOM     29  C   UNL     1      34.839 -15.819 -22.770  0.00  0.00    +0.031 C 
ATOM     30  C   UNL     1      35.041 -16.466 -20.463  0.00  0.00    +0.018 C 
ATOM     31  C   UNL     1      34.619 -14.523 -22.333  0.00  0.00    +0.125 C 
ATOM     32  C   UNL     1      34.812 -15.141 -20.128  0.00  0.00    +0.100 C 
ATOM     33  H   UNL     1      34.241 -12.598 -23.055  0.00  0.00    +0.144 HD
ATOM     34  H   UNL     1      34.410 -13.778 -24.275  0.00  0.00    +0.144 HD
ENDBRANCH  25  28
ENDBRANCH   1  25
TORSDOF 5
ENDMDL
MODEL 4
REMARK VINA RESULT:     -11.1      6.611     11.771
REMARK  Name = 11691242
REMARK  5 active torsions:
REMARK  status: ('A' for Active; 'I' for Inactive)
REMARK    1  A    between atoms: N_1  and  C_25
REMARK    2  A    between atoms: C_5  and  N_11
REMARK    3  A    between atoms: N_12  and  C_17
REMARK    4  A    between atoms: C_18  and  O_23
REMARK    5  A    between atoms: C_25  and  C_28
REMARK                            x       y       z     vdW  Elec       q    Type
REMARK                         _______ _______ _______ _____ _____    ______ ____
ROOT
ATOM      1  N   UNL     1      35.834 -18.554 -22.182  0.00  0.00    -0.282 N 
ATOM      2  C   UNL     1      35.074 -19.319 -21.327  0.00  0.00    +0.053 C 
ATOM      3  C   UNL     1      35.902 -19.700 -20.269  0.00  0.00    +0.028 C 
ATOM      4  C   UNL     1      37.111 -18.438 -21.703  0.00  0.00    +0.066 C 
ATOM      5  C   UNL     1      35.366 -20.500 -19.241  0.00  0.00    +0.053 C 
ATOM      6  C   UNL     1      37.186 -19.137 -20.520  0.00  0.00    +0.019 C 
ATOM      7  C   UNL     1      33.730 -19.699 -21.407  0.00  0.00    +0.015 C 
ATOM      8  C   UNL     1      34.023 -20.888 -19.308  0.00  0.00    +0.015 C 
ATOM      9  C   UNL     1      33.219 -20.492 -20.375  0.00  0.00    +0.003 C 
ENDROOT
BRANCH   5  11
ATOM     10  O   UNL     1      35.044 -22.829 -17.398  0.00  0.00    -0.252 OA
ATOM     11  N   UNL     1      36.150 -20.909 -18.161  0.00  0.00    -0.268 N 
ATOM     12  N   UNL     1      36.989 -22.066 -16.347  0.00  0.00    -0.266 N 
ATOM     13  C   UNL     1      35.965 -22.023 -17.307  0.00  0.00    +0.308 C 
ATOM     14  H   UNL     1      36.936 -20.348 -17.967  0.00  0.00    +0.156 HD
ATOM     15  H   UNL     1      37.660 -21.348 -16.399  0.00  0.00    +0.157 HD
BRANCH  12  17
ATOM     16 BR   UNL     1      40.163 -25.659 -14.182  0.00  0.00    -0.049 Br
ATOM     17  C   UNL     1      37.174 -23.014 -15.313  0.00  0.00    +0.086 C 
ATOM     18  C   UNL     1      36.178 -23.212 -14.368  0.00  0.00    +0.152 C 
ATOM     19  C   UNL     1      38.360 -23.729 -15.269  0.00  0.00    +0.024 C 
ATOM     20  C   UNL     1      36.374 -24.149 -13.355  0.00  0.00    +0.039 C 
ATOM     21  C   UNL     1      38.555 -24.667 -14.255  0.00  0.00    +0.036 C 
ATOM     22  C   UNL     1      37.563 -24.877 -13.298  0.00  0.00    +0.010 C 
BRANCH  18  23
ATOM     23  O   UNL     1      35.010 -22.511 -14.408  0.00  0.00    -0.470 OA
ATOM     24  C   UNL     1      33.800 -23.262 -14.309  0.00  0.00    +0.253 C 
ENDBRANCH  18  23
ENDBRANCH  12  17
ENDBRANCH   5  11
BRANCH   1  25
ATOM     25  C   UNL     1      35.368 -17.954 -23.414  0.00  0.00    +0.122 C 
BRANCH  25  28
ATOM     26  N   UNL     1      33.861 -13.997 -22.756  0.00  0.00    -0.230 NA
ATOM     27  N   UNL     1      32.847 -14.040 -24.911  0.00  0.00    -0.343 N 
ATOM     28  C   UNL     1      34.839 -16.565 -23.184  0.00  0.00    +0.002 C 
ATOM     29  C   UNL     1      34.085 -15.947 -24.165  0.00  0.00    +0.031 C 
ATOM     30  C   UNL     1      35.113 -15.919 -21.992  0.00  0.00    +0.018 C 
ATOM     31  C   UNL     1      33.620 -14.669 -23.904  0.00  0.00    +0.125 C 
ATOM     32  C   UNL     1      34.603 -14.641 -21.827  0.00  0.00    +0.100 C 
ATOM     33  H   UNL     1      32.497 -13.132 -24.767  0.00  0.00    +0.144 HD
ATOM     34  H   UNL     1      32.660 -14.513 -25.755  0.00  0.00    +0.144 HD
ENDBRANCH  25  28
ENDBRANCH   1  25
TORSDOF 5
ENDMDL
MODEL 5
REMARK VINA RESULT:     -10.8      6.048      9.864
REMARK  Name = 11691242
REMARK  5 active torsions:
REMARK  status: ('A' for Active; 'I' for Inactive)
REMARK    1  A    between atoms: N_1  and  C_25
REMARK    2  A    between atoms: C_5  and  N_11
REMARK    3  A    between atoms: N_12  and  C_17
REMARK    4  A    between atoms: C_18  and  O_23
REMARK    5  A    between atoms: C_25  and  C_28
REMARK                            x       y       z     vdW  Elec       q    Type
REMARK                         _______ _______ _______ _____ _____    ______ ____
ROOT
ATOM      1  N   UNL     1      36.514 -22.559 -15.274  0.00  0.00    -0.282 N 
ATOM      2  C   UNL     1      35.466 -22.621 -16.164  0.00  0.00    +0.053 C 
ATOM      3  C   UNL     1      35.836 -21.876 -17.286  0.00  0.00    +0.028 C 
ATOM      4  C   UNL     1      37.530 -21.802 -15.792  0.00  0.00    +0.066 C 
ATOM      5  C   UNL     1      34.932 -21.774 -18.362  0.00  0.00    +0.053 C 
ATOM      6  C   UNL     1      37.140 -21.364 -17.036  0.00  0.00    +0.019 C 
ATOM      7  C   UNL     1      34.233 -23.274 -16.065  0.00  0.00    +0.015 C 
ATOM      8  C   UNL     1      33.693 -22.421 -18.276  0.00  0.00    +0.015 C 
ATOM      9  C   UNL     1      33.351 -23.159 -17.145  0.00  0.00    +0.003 C 
ENDROOT
BRANCH   5  11
ATOM     10  O   UNL     1      33.212 -20.038 -20.080  0.00  0.00    -0.252 OA
ATOM     11  N   UNL     1      35.250 -21.042 -19.506  0.00  0.00    -0.268 N 
ATOM     12  N   UNL     1      35.134 -19.672 -21.361  0.00  0.00    -0.266 N 
ATOM     13  C   UNL     1      34.405 -20.227 -20.297  0.00  0.00    +0.308 C 
ATOM     14  H   UNL     1      36.188 -21.099 -19.803  0.00  0.00    +0.156 HD
ATOM     15  H   UNL     1      36.086 -19.915 -21.406  0.00  0.00    +0.157 HD
BRANCH  12  17
ATOM     16 BR   UNL     1      32.115 -19.113 -25.633  0.00  0.00    -0.049 Br
ATOM     17  C   UNL     1      34.667 -18.804 -22.377  0.00  0.00    +0.086 C 
ATOM     18  C   UNL     1      35.096 -17.486 -22.413  0.00  0.00    +0.152 C 
ATOM     19  C   UNL     1      33.784 -19.299 -23.323  0.00  0.00    +0.024 C 
ATOM     20  C   UNL     1      34.627 -16.643 -23.419  0.00  0.00    +0.039 C 
ATOM     21  C   UNL     1      33.316 -18.455 -24.330  0.00  0.00    +0.036 C 
ATOM     22  C   UNL     1      33.737 -17.127 -24.378  0.00  0.00    +0.010 C 
BRANCH  18  23
ATOM     23  O   UNL     1      35.966 -16.994 -21.486  0.00  0.00    -0.470 OA
ATOM     24  C   UNL     1      35.402 -16.332 -20.355  0.00  0.00    +0.253 C 
ENDBRANCH  18  23
ENDBRANCH  12  17
ENDBRANCH   5  11
BRANCH   1  25
ATOM     25  C   UNL     1      36.550 -23.192 -13.973  0.00  0.00    +0.122 C 
BRANCH  25  28
ATOM     26  N   UNL     1      38.307 -27.096 -14.178  0.00  0.00    -0.230 NA
ATOM     27  N   UNL     1      40.439 -26.146 -13.698  0.00  0.00    -0.343 N 
ATOM     28  C   UNL     1      37.168 -24.562 -14.045  0.00  0.00    +0.002 C 
ATOM     29  C   UNL     1      38.527 -24.713 -13.837  0.00  0.00    +0.031 C 
ATOM     30  C   UNL     1      36.369 -25.658 -14.319  0.00  0.00    +0.018 C 
ATOM     31  C   UNL     1      39.046 -25.995 -13.913  0.00  0.00    +0.125 C 
ATOM     32  C   UNL     1      36.984 -26.898 -14.374  0.00  0.00    +0.100 C 
ATOM     33  H   UNL     1      40.849 -27.039 -13.742  0.00  0.00    +0.144 HD
ATOM     34  H   UNL     1      40.995 -25.357 -13.503  0.00  0.00    +0.144 HD
ENDBRANCH  25  28
ENDBRANCH   1  25
TORSDOF 5
ENDMDL
MODEL 6
REMARK VINA RESULT:     -10.4      6.894     11.724
REMARK  Name = 11691242
REMARK  5 active torsions:
REMARK  status: ('A' for Active; 'I' for Inactive)
REMARK    1  A    between atoms: N_1  and  C_25
REMARK    2  A    between atoms: C_5  and  N_11
REMARK    3  A    between atoms: N_12  and  C_17
REMARK    4  A    between atoms: C_18  and  O_23
REMARK    5  A    between atoms: C_25  and  C_28
REMARK                            x       y       z     vdW  Elec       q    Type
REMARK                         _______ _______ _______ _____ _____    ______ ____
ROOT
ATOM      1  N   UNL     1      34.944 -19.115 -21.483  0.00  0.00    -0.282 N 
ATOM      2  C   UNL     1      35.202 -19.991 -20.453  0.00  0.00    +0.053 C 
ATOM      3  C   UNL     1      33.968 -20.447 -19.983  0.00  0.00    +0.028 C 
ATOM      4  C   UNL     1      33.594 -19.002 -21.680  0.00  0.00    +0.066 C 
ATOM      5  C   UNL     1      33.947 -21.366 -18.915  0.00  0.00    +0.053 C 
ATOM      6  C   UNL     1      32.963 -19.814 -20.766  0.00  0.00    +0.019 C 
ATOM      7  C   UNL     1      36.420 -20.410 -19.907  0.00  0.00    +0.015 C 
ATOM      8  C   UNL     1      35.158 -21.794 -18.358  0.00  0.00    +0.015 C 
ATOM      9  C   UNL     1      36.374 -21.323 -18.848  0.00  0.00    +0.003 C 
ENDROOT
BRANCH   5  11
ATOM     10  O   UNL     1      33.376 -22.812 -16.365  0.00  0.00    -0.252 OA
ATOM     11  N   UNL     1      32.742 -21.854 -18.407  0.00  0.00    -0.268 N 
ATOM     12  N   UNL     1      31.146 -22.850 -17.068  0.00  0.00    -0.266 N 
ATOM     13  C   UNL     1      32.509 -22.537 -17.189  0.00  0.00    +0.308 C 
ATOM     14  H   UNL     1      31.948 -21.703 -18.970  0.00  0.00    +0.156 HD
ATOM     15  H   UNL     1      30.569 -22.564 -17.813  0.00  0.00    +0.157 HD
BRANCH  12  17
ATOM     16 BR   UNL     1      31.640 -25.181 -12.378  0.00  0.00    -0.049 Br
ATOM     17  C   UNL     1      30.498 -23.526 -16.007  0.00  0.00    +0.086 C 
ATOM     18  C   UNL     1      29.134 -23.766 -16.068  0.00  0.00    +0.152 C 
ATOM     19  C   UNL     1      31.253 -23.937 -14.920  0.00  0.00    +0.024 C 
ATOM     20  C   UNL     1      28.510 -24.433 -15.016  0.00  0.00    +0.039 C 
ATOM     21  C   UNL     1      30.628 -24.606 -13.867  0.00  0.00    +0.036 C 
ATOM     22  C   UNL     1      29.256 -24.853 -13.914  0.00  0.00    +0.010 C 
BRANCH  18  23
ATOM     23  O   UNL     1      28.388 -23.364 -17.136  0.00  0.00    -0.470 OA
ATOM     24  C   UNL     1      27.326 -22.448 -16.877  0.00  0.00    +0.253 C 
ENDBRANCH  18  23
ENDBRANCH  12  17
ENDBRANCH   5  11
BRANCH   1  25
ATOM     25  C   UNL     1      35.943 -18.406 -22.254  0.00  0.00    +0.122 C 
BRANCH  25  28
ATOM     26  N   UNL     1      34.326 -14.852 -24.022  0.00  0.00    -0.230 NA
ATOM     27  N   UNL     1      34.656 -13.696 -21.965  0.00  0.00    -0.343 N 
ATOM     28  C   UNL     1      35.374 -17.158 -22.874  0.00  0.00    +0.002 C 
ATOM     29  C   UNL     1      35.280 -16.001 -22.121  0.00  0.00    +0.031 C 
ATOM     30  C   UNL     1      34.953 -17.181 -24.191  0.00  0.00    +0.018 C 
ATOM     31  C   UNL     1      34.751 -14.879 -22.739  0.00  0.00    +0.125 C 
ATOM     32  C   UNL     1      34.439 -16.007 -24.716  0.00  0.00    +0.100 C 
ATOM     33  H   UNL     1      34.287 -12.876 -22.365  0.00  0.00    +0.144 HD
ATOM     34  H   UNL     1      34.961 -13.694 -21.029  0.00  0.00    +0.144 HD
ENDBRANCH  25  28
ENDBRANCH   1  25
TORSDOF 5
ENDMDL
MODEL 7
REMARK VINA RESULT:     -10.1      6.795     11.803
REMARK  Name = 11691242
REMARK  5 active torsions:
REMARK  status: ('A' for Active; 'I' for Inactive)
REMARK    1  A    between atoms: N_1  and  C_25
REMARK    2  A    between atoms: C_5  and  N_11
REMARK    3  A    between atoms: N_12  and  C_17
REMARK    4  A    between atoms: C_18  and  O_23
REMARK    5  A    between atoms: C_25  and  C_28
REMARK                            x       y       z     vdW  Elec       q    Type
REMARK                         _______ _______ _______ _____ _____    ______ ____
ROOT
ATOM      1  N   UNL     1      36.023 -19.058 -21.148  0.00  0.00    -0.282 N 
ATOM      2  C   UNL     1      34.793 -19.602 -20.854  0.00  0.00    +0.053 C 
ATOM      3  C   UNL     1      34.965 -20.432 -19.744  0.00  0.00    +0.028 C 
ATOM      4  C   UNL     1      36.964 -19.514 -20.265  0.00  0.00    +0.066 C 
ATOM      5  C   UNL     1      33.848 -21.120 -19.231  0.00  0.00    +0.053 C 
ATOM      6  C   UNL     1      36.341 -20.367 -19.383  0.00  0.00    +0.019 C 
ATOM      7  C   UNL     1      33.554 -19.425 -21.479  0.00  0.00    +0.015 C 
ATOM      8  C   UNL     1      32.601 -20.953 -19.846  0.00  0.00    +0.015 C 
ATOM      9  C   UNL     1      32.459 -20.118 -20.953  0.00  0.00    +0.003 C 
ENDROOT
BRANCH   5  11
ATOM     10  O   UNL     1      31.777 -22.048 -17.289  0.00  0.00    -0.252 OA
ATOM     11  N   UNL     1      33.964 -21.962 -18.124  0.00  0.00    -0.268 N 
ATOM     12  N   UNL     1      33.506 -23.230 -16.249  0.00  0.00    -0.266 N 
ATOM     13  C   UNL     1      32.956 -22.381 -17.223  0.00  0.00    +0.308 C 
ATOM     14  H   UNL     1      34.868 -22.311 -17.946  0.00  0.00    +0.156 HD
ATOM     15  H   UNL     1      34.471 -23.407 -16.326  0.00  0.00    +0.157 HD
BRANCH  12  17
ATOM     16 BR   UNL     1      28.957 -25.047 -14.331  0.00  0.00    -0.049 Br
ATOM     17  C   UNL     1      32.843 -23.863 -15.171  0.00  0.00    +0.086 C 
ATOM     18  C   UNL     1      33.557 -24.234 -14.041  0.00  0.00    +0.152 C 
ATOM     19  C   UNL     1      31.482 -24.099 -15.272  0.00  0.00    +0.024 C 
ATOM     20  C   UNL     1      32.891 -24.857 -12.987  0.00  0.00    +0.039 C 
ATOM     21  C   UNL     1      30.815 -24.722 -14.216  0.00  0.00    +0.036 C 
ATOM     22  C   UNL     1      31.520 -25.101 -13.074  0.00  0.00    +0.010 C 
BRANCH  18  23
ATOM     23  O   UNL     1      34.896 -24.003 -13.937  0.00  0.00    -0.470 OA
ATOM     24  C   UNL     1      35.766 -25.103 -14.195  0.00  0.00    +0.253 C 
ENDBRANCH  18  23
ENDBRANCH  12  17
ENDBRANCH   5  11
BRANCH   1  25
ATOM     25  C   UNL     1      36.299 -18.140 -22.231  0.00  0.00    +0.122 C 
BRANCH  25  28
ATOM     26  N   UNL     1      34.165 -14.456 -21.740  0.00  0.00    -0.230 NA
ATOM     27  N   UNL     1      33.804 -14.367 -24.093  0.00  0.00    -0.343 N 
ATOM     28  C   UNL     1      35.550 -16.846 -22.060  0.00  0.00    +0.002 C 
ATOM     29  C   UNL     1      35.024 -16.206 -23.168  0.00  0.00    +0.031 C 
ATOM     30  C   UNL     1      35.395 -16.309 -20.794  0.00  0.00    +0.018 C 
ATOM     31  C   UNL     1      34.342 -15.019 -22.956  0.00  0.00    +0.125 C 
ATOM     32  C   UNL     1      34.697 -15.117 -20.688  0.00  0.00    +0.100 C 
ATOM     33  H   UNL     1      33.312 -13.522 -23.988  0.00  0.00    +0.144 HD
ATOM     34  H   UNL     1      33.921 -14.762 -24.988  0.00  0.00    +0.144 HD
ENDBRANCH  25  28
ENDBRANCH   1  25
TORSDOF 5
ENDMDL
MODEL 8
REMARK VINA RESULT:     -10.0      3.677     10.102
REMARK  Name = 11691242
REMARK  5 active torsions:
REMARK  status: ('A' for Active; 'I' for Inactive)
REMARK    1  A    between atoms: N_1  and  C_25
REMARK    2  A    between atoms: C_5  and  N_11
REMARK    3  A    between atoms: N_12  and  C_17
REMARK    4  A    between atoms: C_18  and  O_23
REMARK    5  A    between atoms: C_25  and  C_28
REMARK                            x       y       z     vdW  Elec       q    Type
REMARK                         _______ _______ _______ _____ _____    ______ ____
ROOT
ATOM      1  N   UNL     1      32.186  -9.772 -21.222  0.00  0.00    -0.282 N 
ATOM      2  C   UNL     1      33.041 -10.015 -22.272  0.00  0.00    +0.053 C 
ATOM      3  C   UNL     1      32.947 -11.376 -22.573  0.00  0.00    +0.028 C 
ATOM      4  C   UNL     1      31.556 -10.929 -20.848  0.00  0.00    +0.066 C 
ATOM      5  C   UNL     1      33.731 -11.896 -23.622  0.00  0.00    +0.053 C 
ATOM      6  C   UNL     1      32.006 -11.940 -21.665  0.00  0.00    +0.019 C 
ATOM      7  C   UNL     1      33.883  -9.144 -22.972  0.00  0.00    +0.015 C 
ATOM      8  C   UNL     1      34.578 -11.036 -24.332  0.00  0.00    +0.015 C 
ATOM      9  C   UNL     1      34.651  -9.682 -24.011  0.00  0.00    +0.003 C 
ENDROOT
BRANCH   5  11
ATOM     10  O   UNL     1      34.960 -14.271 -22.293  0.00  0.00    -0.252 OA
ATOM     11  N   UNL     1      33.675 -13.247 -23.963  0.00  0.00    -0.268 N 
ATOM     12  N   UNL     1      33.963 -15.539 -23.987  0.00  0.00    -0.266 N 
ATOM     13  C   UNL     1      34.273 -14.350 -23.307  0.00  0.00    +0.308 C 
ATOM     14  H   UNL     1      33.150 -13.464 -24.768  0.00  0.00    +0.156 HD
ATOM     15  H   UNL     1      33.400 -15.444 -24.788  0.00  0.00    +0.157 HD
BRANCH  12  17
ATOM     16 BR   UNL     1      37.095 -18.602 -21.075  0.00  0.00    -0.049 Br
ATOM     17  C   UNL     1      34.362 -16.857 -23.662  0.00  0.00    +0.086 C 
ATOM     18  C   UNL     1      33.768 -17.937 -24.298  0.00  0.00    +0.152 C 
ATOM     19  C   UNL     1      35.346 -17.039 -22.704  0.00  0.00    +0.024 C 
ATOM     20  C   UNL     1      34.170 -19.230 -23.967  0.00  0.00    +0.039 C 
ATOM     21  C   UNL     1      35.749 -18.333 -22.374  0.00  0.00    +0.036 C 
ATOM     22  C   UNL     1      35.161 -19.428 -23.005  0.00  0.00    +0.010 C 
BRANCH  18  23
ATOM     23  O   UNL     1      32.800 -17.763 -25.242  0.00  0.00    -0.470 OA
ATOM     24  C   UNL     1      31.855 -18.819 -25.402  0.00  0.00    +0.253 C 
ENDBRANCH  18  23
ENDBRANCH  12  17
ENDBRANCH   5  11
BRANCH   1  25
ATOM     25  C   UNL     1      31.974  -8.488 -20.589  0.00  0.00    +0.122 C 
BRANCH  25  28
ATOM     26  N   UNL     1      30.926  -5.485 -23.462  0.00  0.00    -0.230 NA
ATOM     27  N   UNL     1      32.044  -3.850 -22.139  0.00  0.00    -0.343 N 
ATOM     28  C   UNL     1      31.606  -7.433 -21.597  0.00  0.00    +0.002 C 
ATOM     29  C   UNL     1      32.001  -6.123 -21.393  0.00  0.00    +0.031 C 
ATOM     30  C   UNL     1      30.877  -7.785 -22.718  0.00  0.00    +0.018 C 
ATOM     31  C   UNL     1      31.638  -5.190 -22.351  0.00  0.00    +0.125 C 
ATOM     32  C   UNL     1      30.563  -6.778 -23.617  0.00  0.00    +0.100 C 
ATOM     33  H   UNL     1      31.809  -3.155 -22.795  0.00  0.00    +0.144 HD
ATOM     34  H   UNL     1      32.564  -3.614 -21.337  0.00  0.00    +0.144 HD
ENDBRANCH  25  28
ENDBRANCH   1  25
TORSDOF 5
ENDMDL
MODEL 9
REMARK VINA RESULT:      -9.9      6.168     11.307
REMARK  Name = 11691242
REMARK  5 active torsions:
REMARK  status: ('A' for Active; 'I' for Inactive)
REMARK    1  A    between atoms: N_1  and  C_25
REMARK    2  A    between atoms: C_5  and  N_11
REMARK    3  A    between atoms: N_12  and  C_17
REMARK    4  A    between atoms: C_18  and  O_23
REMARK    5  A    between atoms: C_25  and  C_28
REMARK                            x       y       z     vdW  Elec       q    Type
REMARK                         _______ _______ _______ _____ _____    ______ ____
ROOT
ATOM      1  N   UNL     1      34.758 -18.416 -22.977  0.00  0.00    -0.282 N 
ATOM      2  C   UNL     1      35.665 -18.779 -22.007  0.00  0.00    +0.053 C 
ATOM      3  C   UNL     1      35.007 -19.650 -21.135  0.00  0.00    +0.028 C 
ATOM      4  C   UNL     1      33.554 -19.024 -22.750  0.00  0.00    +0.066 C 
ATOM      5  C   UNL     1      35.716 -20.176 -20.038  0.00  0.00    +0.053 C 
ATOM      6  C   UNL     1      33.675 -19.794 -21.616  0.00  0.00    +0.019 C 
ATOM      7  C   UNL     1      37.003 -18.408 -21.836  0.00  0.00    +0.015 C 
ATOM      8  C   UNL     1      37.056 -19.813 -19.854  0.00  0.00    +0.015 C 
ATOM      9  C   UNL     1      37.688 -18.943 -20.740  0.00  0.00    +0.003 C 
ENDROOT
BRANCH   5  11
ATOM     10  O   UNL     1      36.657 -21.171 -17.383  0.00  0.00    -0.252 OA
ATOM     11  N   UNL     1      35.107 -21.050 -19.136  0.00  0.00    -0.268 N 
ATOM     12  N   UNL     1      34.654 -22.375 -17.300  0.00  0.00    -0.266 N 
ATOM     13  C   UNL     1      35.585 -21.500 -17.882  0.00  0.00    +0.308 C 
ATOM     14  H   UNL     1      34.228 -21.400 -19.408  0.00  0.00    +0.156 HD
ATOM     15  H   UNL     1      33.836 -22.545 -17.821  0.00  0.00    +0.157 HD
BRANCH  12  17
ATOM     16 BR   UNL     1      37.809 -24.320 -13.567  0.00  0.00    -0.049 Br
ATOM     17  C   UNL     1      34.745 -23.042 -16.055  0.00  0.00    +0.086 C 
ATOM     18  C   UNL     1      33.592 -23.427 -15.389  0.00  0.00    +0.152 C 
ATOM     19  C   UNL     1      36.001 -23.298 -15.527  0.00  0.00    +0.024 C 
ATOM     20  C   UNL     1      33.698 -24.083 -14.164  0.00  0.00    +0.039 C 
ATOM     21  C   UNL     1      36.106 -23.955 -14.302  0.00  0.00    +0.036 C 
ATOM     22  C   UNL     1      34.955 -24.347 -13.620  0.00  0.00    +0.010 C 
BRANCH  18  23
ATOM     23  O   UNL     1      32.355 -23.179 -15.905  0.00  0.00    -0.470 OA
ATOM     24  C   UNL     1      31.233 -23.562 -15.112  0.00  0.00    +0.253 C 
ENDBRANCH  18  23
ENDBRANCH  12  17
ENDBRANCH   5  11
BRANCH   1  25
ATOM     25  C   UNL     1      35.023 -17.519 -24.081  0.00  0.00    +0.122 C 
BRANCH  25  28
ATOM     26  N   UNL     1      33.632 -13.553 -23.241  0.00  0.00    -0.230 NA
ATOM     27  N   UNL     1      32.503 -13.520 -25.339  0.00  0.00    -0.343 N 
ATOM     28  C   UNL     1      34.535 -16.126 -23.788  0.00  0.00    +0.002 C 
ATOM     29  C   UNL     1      33.741 -15.469 -24.711  0.00  0.00    +0.031 C 
ATOM     30  C   UNL     1      34.885 -15.517 -22.596  0.00  0.00    +0.018 C 
ATOM     31  C   UNL     1      33.317 -14.189 -24.392  0.00  0.00    +0.125 C 
ATOM     32  C   UNL     1      34.410 -14.235 -22.371  0.00  0.00    +0.100 C 
ATOM     33  H   UNL     1      32.179 -12.610 -25.153  0.00  0.00    +0.144 HD
ATOM     34  H   UNL     1      32.261 -13.966 -26.183  0.00  0.00    +0.144 HD
ENDBRANCH  25  28
ENDBRANCH   1  25
TORSDOF 5
ENDMDL
