MODEL 1
REMARK VINA RESULT:     -12.2      0.000      0.000
REMARK  Name = 71226662
REMARK  4 active torsions:
REMARK  status: ('A' for Active; 'I' for Inactive)
REMARK    1  A    between atoms: C_5  and  C_15
REMARK    2  A    between atoms: C_7  and  C_23
REMARK    3  A    between atoms: C_19  and  C_20
REMARK    4  A    between atoms: C_28  and  C_31
REMARK                            x       y       z     vdW  Elec       q    Type
REMARK                         _______ _______ _______ _____ _____    ______ ____
ROOT
ATOM      1  N   UNL     1      32.913 -24.244 -14.284  0.00  0.00    -0.251 N 
ATOM      2  N   UNL     1      34.849 -23.604 -15.161  0.00  0.00    -0.392 NA
ATOM      3  N   UNL     1      30.266 -23.858 -15.021  0.00  0.00    -0.231 NA
ATOM      4  N   UNL     1      30.827 -22.618 -16.898  0.00  0.00    -0.344 N 
ATOM      5  C   UNL     1      34.275 -24.265 -14.176  0.00  0.00    +0.182 C 
ATOM      6  C   UNL     1      32.600 -23.523 -15.410  0.00  0.00    +0.185 C 
ATOM      7  C   UNL     1      33.811 -23.138 -15.935  0.00  0.00    +0.136 C 
ATOM      8  C   UNL     1      31.908 -24.783 -13.507  0.00  0.00    +0.089 C 
ATOM      9  C   UNL     1      31.206 -23.329 -15.782  0.00  0.00    +0.128 C 
ATOM     10  C   UNL     1      30.639 -24.575 -13.896  0.00  0.00    +0.116 C 
ATOM     11  H   UNL     1      29.872 -22.512 -17.113  0.00  0.00    +0.143 HD
ATOM     12  H   UNL     1      31.511 -22.216 -17.482  0.00  0.00    +0.143 HD
ENDROOT
BRANCH   5  15
ATOM     13  O   UNL     1      36.395 -26.647 -14.956  0.00  0.00    -0.260 OA
ATOM     14  N   UNL     1      36.446 -25.089 -13.238  0.00  0.00    -0.263 N 
ATOM     15  C   UNL     1      34.996 -24.976 -13.046  0.00  0.00    +0.143 C 
ATOM     16  C   UNL     1      34.860 -24.238 -11.708  0.00  0.00    +0.030 C 
ATOM     17  C   UNL     1      36.124 -23.386 -11.631  0.00  0.00    +0.024 C 
ATOM     18  C   UNL     1      37.179 -24.273 -12.273  0.00  0.00    +0.095 C 
ATOM     19  C   UNL     1      37.017 -25.965 -14.149  0.00  0.00    +0.293 C 
BRANCH  19  20
ATOM     20  C   UNL     1      38.458 -26.079 -14.142  0.00  0.00    -0.007 C 
ATOM     21  C   UNL     1      39.655 -26.174 -14.136  0.00  0.00    -0.081 C 
ATOM     22  C   UNL     1      41.112 -26.289 -14.128  0.00  0.00    +0.090 C 
ENDBRANCH  19  20
ENDBRANCH   5  15
BRANCH   7  23
ATOM     23  C   UNL     1      34.027 -22.362 -17.117  0.00  0.00    +0.028 C 
ATOM     24  C   UNL     1      32.943 -21.974 -17.906  0.00  0.00    +0.002 C 
ATOM     25  C   UNL     1      35.322 -21.992 -17.482  0.00  0.00    +0.002 C 
ATOM     26  C   UNL     1      33.154 -21.219 -19.059  0.00  0.00    +0.005 C 
ATOM     27  C   UNL     1      35.532 -21.237 -18.635  0.00  0.00    +0.005 C 
ATOM     28  C   UNL     1      34.449 -20.849 -19.424  0.00  0.00    +0.054 C 
BRANCH  28  31
ATOM     29  O   UNL     1      34.841 -20.645 -21.707  0.00  0.00    -0.270 OA
ATOM     30  N   UNL     1      34.690 -18.670 -20.449  0.00  0.00    -0.266 N 
ATOM     31  C   UNL     1      34.669 -20.060 -20.625  0.00  0.00    +0.251 C 
ATOM     32  H   UNL     1      34.537 -18.352 -19.530  0.00  0.00    +0.157 HD
ATOM     33  N   UNL     1      34.883 -16.369 -21.024  0.00  0.00    -0.229 NA
ATOM     34  C   UNL     1      34.905 -17.661 -21.420  0.00  0.00    +0.134 C 
ATOM     35  C   UNL     1      35.124 -18.068 -22.727  0.00  0.00    +0.034 C 
ATOM     36  C   UNL     1      35.337 -17.086 -23.687  0.00  0.00    +0.004 C 
ATOM     37  C   UNL     1      35.092 -15.442 -21.985  0.00  0.00    +0.100 C 
ATOM     38  C   UNL     1      35.322 -15.745 -23.318  0.00  0.00    +0.021 C 
ENDBRANCH  28  31
ENDBRANCH   7  23
TORSDOF 4
ENDMDL
MODEL 2
REMARK VINA RESULT:     -10.0      1.616      2.902
REMARK  Name = 71226662
REMARK  4 active torsions:
REMARK  status: ('A' for Active; 'I' for Inactive)
REMARK    1  A    between atoms: C_5  and  C_15
REMARK    2  A    between atoms: C_7  and  C_23
REMARK    3  A    between atoms: C_19  and  C_20
REMARK    4  A    between atoms: C_28  and  C_31
REMARK                            x       y       z     vdW  Elec       q    Type
REMARK                         _______ _______ _______ _____ _____    ______ ____
ROOT
ATOM      1  N   UNL     1      35.027 -23.708 -15.229  0.00  0.00    -0.251 N 
ATOM      2  N   UNL     1      36.662 -22.762 -16.394  0.00  0.00    -0.392 NA
ATOM      3  N   UNL     1      32.266 -23.744 -15.502  0.00  0.00    -0.231 NA
ATOM      4  N   UNL     1      32.300 -22.418 -17.405  0.00  0.00    -0.344 N 
ATOM      5  C   UNL     1      36.374 -23.512 -15.350  0.00  0.00    +0.182 C 
ATOM      6  C   UNL     1      34.418 -23.038 -16.263  0.00  0.00    +0.185 C 
ATOM      7  C   UNL     1      35.448 -22.462 -16.969  0.00  0.00    +0.136 C 
ATOM      8  C   UNL     1      34.265 -24.405 -14.314  0.00  0.00    +0.089 C 
ATOM      9  C   UNL     1      32.969 -23.067 -16.391  0.00  0.00    +0.128 C 
ATOM     10  C   UNL     1      32.932 -24.400 -14.480  0.00  0.00    +0.116 C 
ATOM     11  H   UNL     1      31.318 -22.465 -17.454  0.00  0.00    +0.143 HD
ATOM     12  H   UNL     1      32.804 -21.909 -18.080  0.00  0.00    +0.143 HD
ENDROOT
BRANCH   5  15
ATOM     13  O   UNL     1      36.478 -22.295 -12.303  0.00  0.00    -0.260 OA
ATOM     14  N   UNL     1      36.813 -24.458 -13.073  0.00  0.00    -0.263 N 
ATOM     15  C   UNL     1      37.378 -24.105 -14.380  0.00  0.00    +0.143 C 
ATOM     16  C   UNL     1      37.977 -25.423 -14.888  0.00  0.00    +0.030 C 
ATOM     17  C   UNL     1      37.107 -26.494 -14.237  0.00  0.00    +0.024 C 
ATOM     18  C   UNL     1      36.797 -25.905 -12.870  0.00  0.00    +0.095 C 
ATOM     19  C   UNL     1      36.462 -23.508 -12.126  0.00  0.00    +0.293 C 
BRANCH  19  20
ATOM     20  C   UNL     1      36.047 -23.992 -10.828  0.00  0.00    -0.007 C 
ATOM     21  C   UNL     1      35.702 -24.393  -9.750  0.00  0.00    -0.081 C 
ATOM     22  C   UNL     1      35.281 -24.882  -8.438  0.00  0.00    +0.090 C 
ENDBRANCH  19  20
ENDBRANCH   5  15
BRANCH   7  23
ATOM     23  C   UNL     1      35.337 -21.654 -18.144  0.00  0.00    +0.028 C 
ATOM     24  C   UNL     1      34.090 -21.454 -18.738  0.00  0.00    +0.002 C 
ATOM     25  C   UNL     1      36.475 -21.066 -18.696  0.00  0.00    +0.002 C 
ATOM     26  C   UNL     1      33.982 -20.667 -19.884  0.00  0.00    +0.005 C 
ATOM     27  C   UNL     1      36.366 -20.279 -19.842  0.00  0.00    +0.005 C 
ATOM     28  C   UNL     1      35.121 -20.079 -20.437  0.00  0.00    +0.054 C 
BRANCH  28  31
ATOM     29  O   UNL     1      34.981 -19.810 -22.743  0.00  0.00    -0.270 OA
ATOM     30  N   UNL     1      34.960 -17.873 -21.420  0.00  0.00    -0.266 N 
ATOM     31  C   UNL     1      35.007 -19.257 -21.631  0.00  0.00    +0.251 C 
ATOM     32  H   UNL     1      34.989 -17.582 -20.479  0.00  0.00    +0.157 HD
ATOM     33  N   UNL     1      34.842 -15.556 -21.948  0.00  0.00    -0.229 NA
ATOM     34  C   UNL     1      34.875 -16.836 -22.382  0.00  0.00    +0.134 C 
ATOM     35  C   UNL     1      34.831 -17.204 -23.716  0.00  0.00    +0.034 C 
ATOM     36  C   UNL     1      34.750 -16.194 -24.668  0.00  0.00    +0.004 C 
ATOM     37  C   UNL     1      34.761 -14.601 -22.902  0.00  0.00    +0.100 C 
ATOM     38  C   UNL     1      34.713 -14.865 -24.261  0.00  0.00    +0.021 C 
ENDBRANCH  28  31
ENDBRANCH   7  23
TORSDOF 4
ENDMDL
