MODEL 1
REMARK VINA RESULT:     -12.2      0.000      0.000
REMARK  Name = 11978813
REMARK  7 active torsions:
REMARK  status: ('A' for Active; 'I' for Inactive)
REMARK    1  A    between atoms: C_1  and  N_2
REMARK    2  A    between atoms: C_1  and  C_18
REMARK    3  A    between atoms: N_3  and  C_10
REMARK    4  A    between atoms: C_18  and  C_19
REMARK    5  A    between atoms: C_19  and  C_20
REMARK    6  A    between atoms: C_20  and  O_21
REMARK    7  A    between atoms: O_21  and  C_24
REMARK                            x       y       z     vdW  Elec       q    Type
REMARK                         _______ _______ _______ _____ _____    ______ ____
ROOT
ATOM      1  C   UNL     1      34.771 -17.006 -24.525  0.00  0.00    -0.077 C 
ENDROOT
BRANCH   1   2
ATOM      2  N   UNL     1      34.157 -15.784 -24.008  0.00  0.00    +0.389 N 
ATOM      3  N   UNL     1      33.906 -12.971 -23.578  0.00  0.00    -0.312 N 
ATOM      4  C   UNL     1      35.080 -15.086 -23.106  0.00  0.00    -0.055 C 
ATOM      5  C   UNL     1      33.768 -14.896 -25.110  0.00  0.00    -0.055 C 
ATOM      6  C   UNL     1      34.428 -13.835 -22.512  0.00  0.00    +0.068 C 
ATOM      7  C   UNL     1      33.072 -13.638 -24.584  0.00  0.00    +0.068 C 
ATOM      8  H   UNL     1      33.320 -16.046 -23.485  0.00  0.00    -0.080 HD
BRANCH   3  10
ATOM      9  S   UNL     1      31.446  -9.544 -20.786  0.00  0.00    -0.086 S 
ATOM     10  C   UNL     1      33.691 -11.620 -23.285  0.00  0.00    +0.048 C 
ATOM     11  C   UNL     1      32.767 -11.194 -22.276  0.00  0.00    +0.020 C 
ATOM     12  C   UNL     1      34.403 -10.632 -23.999  0.00  0.00    +0.015 C 
ATOM     13  C   UNL     1      32.601  -9.826 -22.035  0.00  0.00    +0.031 C 
ATOM     14  C   UNL     1      31.927 -11.977 -21.416  0.00  0.00    +0.009 C 
ATOM     15  C   UNL     1      34.221  -9.280 -23.742  0.00  0.00    +0.002 C 
ATOM     16  C   UNL     1      33.322  -8.857 -22.760  0.00  0.00    +0.007 C 
ATOM     17  C   UNL     1      31.167 -11.211 -20.566  0.00  0.00    +0.035 C 
ENDBRANCH   3  10
ENDBRANCH   1   2
BRANCH   1  18
ATOM     18  C   UNL     1      33.772 -18.162 -24.482  0.00  0.00    -0.019 C 
BRANCH  18  19
ATOM     19  C   UNL     1      34.428 -19.440 -23.965  0.00  0.00    +0.045 C 
BRANCH  19  20
ATOM     20  C   UNL     1      34.998 -19.253 -22.566  0.00  0.00    +0.205 C 
BRANCH  20  21
ATOM     21  O   UNL     1      33.955 -19.342 -21.604  0.00  0.00    -0.475 OA
BRANCH  21  24
ATOM     22  O   UNL     1      31.465 -23.276 -16.225  0.00  0.00    -0.270 OA
ATOM     23  N   UNL     1      32.254 -21.997 -17.969  0.00  0.00    -0.280 N 
ATOM     24  C   UNL     1      34.178 -20.155 -20.523  0.00  0.00    +0.140 C 
ATOM     25  C   UNL     1      33.098 -20.654 -19.806  0.00  0.00    +0.052 C 
ATOM     26  C   UNL     1      33.336 -21.483 -18.706  0.00  0.00    +0.054 C 
ATOM     27  C   UNL     1      35.483 -20.469 -20.159  0.00  0.00    +0.037 C 
ATOM     28  C   UNL     1      34.642 -21.808 -18.327  0.00  0.00    +0.014 C 
ATOM     29  C   UNL     1      35.719 -21.298 -19.059  0.00  0.00    +0.004 C 
ATOM     30  C   UNL     1      34.848 -22.678 -17.171  0.00  0.00    +0.006 C 
ATOM     31  C   UNL     1      32.406 -22.822 -16.873  0.00  0.00    +0.250 C 
ATOM     32  C   UNL     1      33.803 -23.156 -16.485  0.00  0.00    +0.058 C 
ATOM     33  H   UNL     1      31.340 -21.757 -18.250  0.00  0.00    +0.155 HD
ENDBRANCH  21  24
ENDBRANCH  20  21
ENDBRANCH  19  20
ENDBRANCH  18  19
ENDBRANCH   1  18
TORSDOF 7
ENDMDL
MODEL 2
REMARK VINA RESULT:     -12.0      0.861      2.059
REMARK  Name = 11978813
REMARK  7 active torsions:
REMARK  status: ('A' for Active; 'I' for Inactive)
REMARK    1  A    between atoms: C_1  and  N_2
REMARK    2  A    between atoms: C_1  and  C_18
REMARK    3  A    between atoms: N_3  and  C_10
REMARK    4  A    between atoms: C_18  and  C_19
REMARK    5  A    between atoms: C_19  and  C_20
REMARK    6  A    between atoms: C_20  and  O_21
REMARK    7  A    between atoms: O_21  and  C_24
REMARK                            x       y       z     vdW  Elec       q    Type
REMARK                         _______ _______ _______ _____ _____    ______ ____
ROOT
ATOM      1  C   UNL     1      35.046 -16.532 -24.293  0.00  0.00    -0.077 C 
ENDROOT
BRANCH   1   2
ATOM      2  N   UNL     1      34.752 -15.159 -23.888  0.00  0.00    +0.389 N 
ATOM      3  N   UNL     1      33.279 -13.078 -22.599  0.00  0.00    -0.312 N 
ATOM      4  C   UNL     1      33.451 -14.732 -24.418  0.00  0.00    -0.055 C 
ATOM      5  C   UNL     1      34.758 -15.040 -22.425  0.00  0.00    -0.055 C 
ATOM      6  C   UNL     1      33.159 -13.276 -24.049  0.00  0.00    +0.068 C 
ATOM      7  C   UNL     1      34.508 -13.595 -21.988  0.00  0.00    +0.068 C 
ATOM      8  H   UNL     1      35.478 -14.553 -24.270  0.00  0.00    -0.080 HD
BRANCH   3  10
ATOM      9  S   UNL     1      32.773  -8.048 -22.408  0.00  0.00    -0.086 S 
ATOM     10  C   UNL     1      32.632 -11.976 -22.030  0.00  0.00    +0.048 C 
ATOM     11  C   UNL     1      32.936 -10.628 -22.411  0.00  0.00    +0.020 C 
ATOM     12  C   UNL     1      31.643 -12.184 -21.043  0.00  0.00    +0.015 C 
ATOM     13  C   UNL     1      32.250  -9.574 -21.800  0.00  0.00    +0.031 C 
ATOM     14  C   UNL     1      33.883 -10.143 -23.373  0.00  0.00    +0.009 C 
ATOM     15  C   UNL     1      30.975 -11.121 -20.451  0.00  0.00    +0.002 C 
ATOM     16  C   UNL     1      31.267  -9.805 -20.818  0.00  0.00    +0.007 C 
ATOM     17  C   UNL     1      33.895  -8.772 -23.468  0.00  0.00    +0.035 C 
ENDBRANCH   3  10
ENDBRANCH   1   2
BRANCH   1  18
ATOM     18  C   UNL     1      33.771 -17.231 -24.767  0.00  0.00    -0.019 C 
BRANCH  18  19
ATOM     19  C   UNL     1      33.791 -18.716 -24.411  0.00  0.00    +0.045 C 
BRANCH  19  20
ATOM     20  C   UNL     1      34.601 -18.981 -23.149  0.00  0.00    +0.205 C 
BRANCH  20  21
ATOM     21  O   UNL     1      33.739 -18.997 -22.018  0.00  0.00    -0.475 OA
BRANCH  21  24
ATOM     22  O   UNL     1      32.049 -23.199 -16.531  0.00  0.00    -0.270 OA
ATOM     23  N   UNL     1      32.578 -21.835 -18.309  0.00  0.00    -0.280 N 
ATOM     24  C   UNL     1      34.119 -19.784 -20.962  0.00  0.00    +0.140 C 
ATOM     25  C   UNL     1      33.149 -20.402 -20.182  0.00  0.00    +0.052 C 
ATOM     26  C   UNL     1      33.547 -21.203 -19.109  0.00  0.00    +0.054 C 
ATOM     27  C   UNL     1      35.472 -19.954 -20.685  0.00  0.00    +0.037 C 
ATOM     28  C   UNL     1      34.904 -21.383 -18.817  0.00  0.00    +0.014 C 
ATOM     29  C   UNL     1      35.868 -20.755 -19.611  0.00  0.00    +0.004 C 
ATOM     30  C   UNL     1      35.277 -22.229 -17.686  0.00  0.00    +0.006 C 
ATOM     31  C   UNL     1      32.891 -22.642 -17.233  0.00  0.00    +0.250 C 
ATOM     32  C   UNL     1      34.338 -22.822 -16.939  0.00  0.00    +0.058 C 
ATOM     33  H   UNL     1      31.628 -21.696 -18.529  0.00  0.00    +0.155 HD
ENDBRANCH  21  24
ENDBRANCH  20  21
ENDBRANCH  19  20
ENDBRANCH  18  19
ENDBRANCH   1  18
TORSDOF 7
ENDMDL
MODEL 3
REMARK VINA RESULT:     -11.9      3.512      6.264
REMARK  Name = 11978813
REMARK  7 active torsions:
REMARK  status: ('A' for Active; 'I' for Inactive)
REMARK    1  A    between atoms: C_1  and  N_2
REMARK    2  A    between atoms: C_1  and  C_18
REMARK    3  A    between atoms: N_3  and  C_10
REMARK    4  A    between atoms: C_18  and  C_19
REMARK    5  A    between atoms: C_19  and  C_20
REMARK    6  A    between atoms: C_20  and  O_21
REMARK    7  A    between atoms: O_21  and  C_24
REMARK                            x       y       z     vdW  Elec       q    Type
REMARK                         _______ _______ _______ _____ _____    ______ ____
ROOT
ATOM      1  C   UNL     1      35.920 -21.750 -18.414  0.00  0.00    -0.077 C 
ENDROOT
BRANCH   1   2
ATOM      2  N   UNL     1      35.833 -20.963 -19.643  0.00  0.00    +0.389 N 
ATOM      3  N   UNL     1      35.308 -18.641 -21.222  0.00  0.00    -0.312 N 
ATOM      4  C   UNL     1      34.454 -20.520 -19.875  0.00  0.00    -0.055 C 
ATOM      5  C   UNL     1      36.726 -19.801 -19.574  0.00  0.00    -0.055 C 
ATOM      6  C   UNL     1      34.339 -19.744 -21.189  0.00  0.00    +0.068 C 
ATOM      7  C   UNL     1      36.688 -18.999 -20.877  0.00  0.00    +0.068 C 
ATOM      8  H   UNL     1      36.124 -21.556 -20.421  0.00  0.00    -0.080 HD
BRANCH   3  10
ATOM      9  S   UNL     1      34.466 -13.686 -21.795  0.00  0.00    -0.086 S 
ATOM     10  C   UNL     1      35.065 -17.577 -22.097  0.00  0.00    +0.048 C 
ATOM     11  C   UNL     1      34.888 -16.232 -21.637  0.00  0.00    +0.020 C 
ATOM     12  C   UNL     1      34.988 -17.823 -23.486  0.00  0.00    +0.015 C 
ATOM     13  C   UNL     1      34.647 -15.216 -22.568  0.00  0.00    +0.031 C 
ATOM     14  C   UNL     1      34.916 -15.713 -20.299  0.00  0.00    +0.009 C 
ATOM     15  C   UNL     1      34.748 -16.799 -24.391  0.00  0.00    +0.002 C 
ATOM     16  C   UNL     1      34.575 -15.485 -23.949  0.00  0.00    +0.007 C 
ATOM     17  C   UNL     1      34.703 -14.357 -20.247  0.00  0.00    +0.035 C 
ENDBRANCH   3  10
ENDBRANCH   1   2
BRANCH   1  18
ATOM     18  C   UNL     1      36.851 -21.070 -17.411  0.00  0.00    -0.019 C 
BRANCH  18  19
ATOM     19  C   UNL     1      37.420 -22.078 -16.414  0.00  0.00    +0.045 C 
BRANCH  19  20
ATOM     20  C   UNL     1      36.411 -22.422 -15.326  0.00  0.00    +0.205 C 
BRANCH  20  21
ATOM     21  O   UNL     1      35.594 -23.505 -15.753  0.00  0.00    -0.475 OA
BRANCH  21  24
ATOM     22  O   UNL     1      28.638 -22.428 -16.791  0.00  0.00    -0.270 OA
ATOM     23  N   UNL     1      30.893 -22.769 -16.471  0.00  0.00    -0.280 N 
ATOM     24  C   UNL     1      34.305 -23.528 -15.287  0.00  0.00    +0.140 C 
ATOM     25  C   UNL     1      33.266 -23.135 -16.122  0.00  0.00    +0.052 C 
ATOM     26  C   UNL     1      31.956 -23.163 -15.638  0.00  0.00    +0.054 C 
ATOM     27  C   UNL     1      34.054 -23.944 -13.984  0.00  0.00    +0.037 C 
ATOM     28  C   UNL     1      31.687 -23.579 -14.330  0.00  0.00    +0.014 C 
ATOM     29  C   UNL     1      32.743 -23.971 -13.502  0.00  0.00    +0.004 C 
ATOM     30  C   UNL     1      30.303 -23.594 -13.863  0.00  0.00    +0.006 C 
ATOM     31  C   UNL     1      29.572 -22.770 -16.068  0.00  0.00    +0.250 C 
ATOM     32  C   UNL     1      29.306 -23.215 -14.673  0.00  0.00    +0.058 C 
ATOM     33  H   UNL     1      31.101 -22.479 -17.389  0.00  0.00    +0.155 HD
ENDBRANCH  21  24
ENDBRANCH  20  21
ENDBRANCH  19  20
ENDBRANCH  18  19
ENDBRANCH   1  18
TORSDOF 7
ENDMDL
MODEL 4
REMARK VINA RESULT:     -11.8      1.775      2.206
REMARK  Name = 11978813
REMARK  7 active torsions:
REMARK  status: ('A' for Active; 'I' for Inactive)
REMARK    1  A    between atoms: C_1  and  N_2
REMARK    2  A    between atoms: C_1  and  C_18
REMARK    3  A    between atoms: N_3  and  C_10
REMARK    4  A    between atoms: C_18  and  C_19
REMARK    5  A    between atoms: C_19  and  C_20
REMARK    6  A    between atoms: C_20  and  O_21
REMARK    7  A    between atoms: O_21  and  C_24
REMARK                            x       y       z     vdW  Elec       q    Type
REMARK                         _______ _______ _______ _____ _____    ______ ____
ROOT
ATOM      1  C   UNL     1      34.575 -17.227 -24.109  0.00  0.00    -0.077 C 
ENDROOT
BRANCH   1   2
ATOM      2  N   UNL     1      34.011 -15.943 -23.695  0.00  0.00    +0.389 N 
ATOM      3  N   UNL     1      33.891 -13.098 -23.466  0.00  0.00    -0.312 N 
ATOM      4  C   UNL     1      34.944 -15.230 -22.816  0.00  0.00    -0.055 C 
ATOM      5  C   UNL     1      33.697 -15.116 -24.866  0.00  0.00    -0.055 C 
ATOM      6  C   UNL     1      34.340 -13.910 -22.329  0.00  0.00    +0.068 C 
ATOM      7  C   UNL     1      33.052 -13.792 -24.449  0.00  0.00    +0.068 C 
ATOM      8  H   UNL     1      33.149 -16.127 -23.181  0.00  0.00    -0.080 HD
BRANCH   3  10
ATOM      9  S   UNL     1      31.540  -9.370 -20.984  0.00  0.00    -0.086 S 
ATOM     10  C   UNL     1      33.737 -11.721 -23.272  0.00  0.00    +0.048 C 
ATOM     11  C   UNL     1      32.812 -11.181 -22.321  0.00  0.00    +0.020 C 
ATOM     12  C   UNL     1      34.515 -10.821 -24.033  0.00  0.00    +0.015 C 
ATOM     13  C   UNL     1      32.709  -9.794 -22.179  0.00  0.00    +0.031 C 
ATOM     14  C   UNL     1      31.914 -11.862 -21.432  0.00  0.00    +0.009 C 
ATOM     15  C   UNL     1      34.395  -9.447 -23.875  0.00  0.00    +0.002 C 
ATOM     16  C   UNL     1      33.495  -8.914 -22.949  0.00  0.00    +0.007 C 
ATOM     17  C   UNL     1      31.173 -11.002 -20.658  0.00  0.00    +0.035 C 
ENDBRANCH   3  10
ENDBRANCH   1   2
BRANCH   1  18
ATOM     18  C   UNL     1      35.355 -17.861 -22.958  0.00  0.00    -0.019 C 
BRANCH  18  19
ATOM     19  C   UNL     1      34.812 -19.248 -22.621  0.00  0.00    +0.045 C 
BRANCH  19  20
ATOM     20  C   UNL     1      34.640 -19.434 -21.119  0.00  0.00    +0.205 C 
BRANCH  20  21
ATOM     21  O   UNL     1      35.674 -20.270 -20.616  0.00  0.00    -0.475 OA
BRANCH  21  24
ATOM     22  O   UNL     1      37.800 -23.135 -14.460  0.00  0.00    -0.270 OA
ATOM     23  N   UNL     1      37.130 -22.203 -16.456  0.00  0.00    -0.280 N 
ATOM     24  C   UNL     1      35.397 -20.979 -19.476  0.00  0.00    +0.140 C 
ATOM     25  C   UNL     1      36.409 -21.225 -18.557  0.00  0.00    +0.052 C 
ATOM     26  C   UNL     1      36.116 -21.947 -17.397  0.00  0.00    +0.054 C 
ATOM     27  C   UNL     1      34.104 -21.444 -19.255  0.00  0.00    +0.037 C 
ATOM     28  C   UNL     1      34.822 -22.421 -17.160  0.00  0.00    +0.014 C 
ATOM     29  C   UNL     1      33.813 -22.166 -18.095  0.00  0.00    +0.004 C 
ATOM     30  C   UNL     1      34.557 -23.172 -15.936  0.00  0.00    +0.006 C 
ATOM     31  C   UNL     1      36.920 -22.908 -15.288  0.00  0.00    +0.250 C 
ATOM     32  C   UNL     1      35.537 -23.405 -15.053  0.00  0.00    +0.058 C 
ATOM     33  H   UNL     1      38.036 -21.863 -16.640  0.00  0.00    +0.155 HD
ENDBRANCH  21  24
ENDBRANCH  20  21
ENDBRANCH  19  20
ENDBRANCH  18  19
ENDBRANCH   1  18
TORSDOF 7
ENDMDL
MODEL 5
REMARK VINA RESULT:     -11.8      1.918      2.980
REMARK  Name = 11978813
REMARK  7 active torsions:
REMARK  status: ('A' for Active; 'I' for Inactive)
REMARK    1  A    between atoms: C_1  and  N_2
REMARK    2  A    between atoms: C_1  and  C_18
REMARK    3  A    between atoms: N_3  and  C_10
REMARK    4  A    between atoms: C_18  and  C_19
REMARK    5  A    between atoms: C_19  and  C_20
REMARK    6  A    between atoms: C_20  and  O_21
REMARK    7  A    between atoms: O_21  and  C_24
REMARK                            x       y       z     vdW  Elec       q    Type
REMARK                         _______ _______ _______ _____ _____    ______ ____
ROOT
ATOM      1  C   UNL     1      35.012 -16.898 -23.849  0.00  0.00    -0.077 C 
ENDROOT
BRANCH   1   2
ATOM      2  N   UNL     1      34.741 -15.484 -23.596  0.00  0.00    +0.389 N 
ATOM      3  N   UNL     1      33.314 -13.252 -22.526  0.00  0.00    -0.312 N 
ATOM      4  C   UNL     1      33.437 -15.102 -24.150  0.00  0.00    -0.055 C 
ATOM      5  C   UNL     1      34.773 -15.202 -22.156  0.00  0.00    -0.055 C 
ATOM      6  C   UNL     1      33.167 -13.610 -23.942  0.00  0.00    +0.068 C 
ATOM      7  C   UNL     1      34.547 -13.714 -21.880  0.00  0.00    +0.068 C 
ATOM      8  H   UNL     1      35.468 -14.934 -24.055  0.00  0.00    -0.080 HD
BRANCH   3  10
ATOM      9  S   UNL     1      32.971  -8.212 -22.787  0.00  0.00    -0.086 S 
ATOM     10  C   UNL     1      32.689 -12.085 -22.073  0.00  0.00    +0.048 C 
ATOM     11  C   UNL     1      33.048 -10.787 -22.561  0.00  0.00    +0.020 C 
ATOM     12  C   UNL     1      31.667 -12.176 -21.103  0.00  0.00    +0.015 C 
ATOM     13  C   UNL     1      32.381  -9.661 -22.064  0.00  0.00    +0.031 C 
ATOM     14  C   UNL     1      34.036 -10.417 -23.533  0.00  0.00    +0.009 C 
ATOM     15  C   UNL     1      31.020 -11.044 -20.624  0.00  0.00    +0.002 C 
ATOM     16  C   UNL     1      31.365  -9.775 -21.095  0.00  0.00    +0.007 C 
ATOM     17  C   UNL     1      34.096  -9.061 -23.746  0.00  0.00    +0.035 C 
ENDBRANCH   3  10
ENDBRANCH   1   2
BRANCH   1  18
ATOM     18  C   UNL     1      35.346 -17.617 -22.543  0.00  0.00    -0.019 C 
BRANCH  18  19
ATOM     19  C   UNL     1      34.810 -19.048 -22.548  0.00  0.00    +0.045 C 
BRANCH  19  20
ATOM     20  C   UNL     1      34.472 -19.526 -21.142  0.00  0.00    +0.205 C 
BRANCH  20  21
ATOM     21  O   UNL     1      35.530 -20.331 -20.640  0.00  0.00    -0.475 OA
BRANCH  21  24
ATOM     22  O   UNL     1      37.829 -23.129 -14.516  0.00  0.00    -0.270 OA
ATOM     23  N   UNL     1      37.102 -22.219 -16.502  0.00  0.00    -0.280 N 
ATOM     24  C   UNL     1      35.284 -21.025 -19.483  0.00  0.00    +0.140 C 
ATOM     25  C   UNL     1      36.323 -21.263 -18.592  0.00  0.00    +0.052 C 
ATOM     26  C   UNL     1      36.062 -21.970 -17.415  0.00  0.00    +0.054 C 
ATOM     27  C   UNL     1      33.997 -21.481 -19.218  0.00  0.00    +0.037 C 
ATOM     28  C   UNL     1      34.773 -22.436 -17.134  0.00  0.00    +0.014 C 
ATOM     29  C   UNL     1      33.738 -22.187 -18.040  0.00  0.00    +0.004 C 
ATOM     30  C   UNL     1      34.542 -23.170 -15.892  0.00  0.00    +0.006 C 
ATOM     31  C   UNL     1      36.924 -22.909 -15.319  0.00  0.00    +0.250 C 
ATOM     32  C   UNL     1      35.547 -23.396 -15.037  0.00  0.00    +0.058 C 
ATOM     33  H   UNL     1      38.003 -21.885 -16.717  0.00  0.00    +0.155 HD
ENDBRANCH  21  24
ENDBRANCH  20  21
ENDBRANCH  19  20
ENDBRANCH  18  19
ENDBRANCH   1  18
TORSDOF 7
ENDMDL
MODEL 6
REMARK VINA RESULT:     -11.8      1.729      3.136
REMARK  Name = 11978813
REMARK  7 active torsions:
REMARK  status: ('A' for Active; 'I' for Inactive)
REMARK    1  A    between atoms: C_1  and  N_2
REMARK    2  A    between atoms: C_1  and  C_18
REMARK    3  A    between atoms: N_3  and  C_10
REMARK    4  A    between atoms: C_18  and  C_19
REMARK    5  A    between atoms: C_19  and  C_20
REMARK    6  A    between atoms: C_20  and  O_21
REMARK    7  A    between atoms: O_21  and  C_24
REMARK                            x       y       z     vdW  Elec       q    Type
REMARK                         _______ _______ _______ _____ _____    ______ ____
ROOT
ATOM      1  C   UNL     1      33.725 -14.075 -25.498  0.00  0.00    -0.077 C 
ENDROOT
BRANCH   1   2
ATOM      2  N   UNL     1      33.745 -13.256 -24.286  0.00  0.00    +0.389 N 
ATOM      3  N   UNL     1      32.707 -11.411 -22.368  0.00  0.00    -0.312 N 
ATOM      4  C   UNL     1      33.606 -11.835 -24.624  0.00  0.00    -0.055 C 
ATOM      5  C   UNL     1      32.669 -13.660 -23.373  0.00  0.00    -0.055 C 
ATOM      6  C   UNL     1      33.683 -10.962 -23.368  0.00  0.00    +0.068 C 
ATOM      7  C   UNL     1      32.713 -12.849 -22.077  0.00  0.00    +0.068 C 
ATOM      8  H   UNL     1      34.642 -13.398 -23.822  0.00  0.00    -0.080 HD
BRANCH   3  10
ATOM      9  S   UNL     1      31.619  -6.625 -21.147  0.00  0.00    -0.086 S 
ATOM     10  C   UNL     1      32.315 -10.504 -21.377  0.00  0.00    +0.048 C 
ATOM     11  C   UNL     1      32.149  -9.106 -21.643  0.00  0.00    +0.020 C 
ATOM     12  C   UNL     1      32.071 -10.969 -20.067  0.00  0.00    +0.015 C 
ATOM     13  C   UNL     1      31.755  -8.255 -20.605  0.00  0.00    +0.031 C 
ATOM     14  C   UNL     1      32.329  -8.381 -22.867  0.00  0.00    +0.009 C 
ATOM     15  C   UNL     1      31.681 -10.106 -19.052  0.00  0.00    +0.002 C 
ATOM     16  C   UNL     1      31.517  -8.741 -19.304  0.00  0.00    +0.007 C 
ATOM     17  C   UNL     1      32.075  -7.037 -22.736  0.00  0.00    +0.035 C 
ENDBRANCH   3  10
ENDBRANCH   1   2
BRANCH   1  18
ATOM     18  C   UNL     1      33.500 -15.544 -25.142  0.00  0.00    -0.019 C 
BRANCH  18  19
ATOM     19  C   UNL     1      34.809 -16.222 -24.741  0.00  0.00    +0.045 C 
BRANCH  19  20
ATOM     20  C   UNL     1      34.605 -17.200 -23.591  0.00  0.00    +0.205 C 
BRANCH  20  21
ATOM     21  O   UNL     1      35.768 -17.231 -22.774  0.00  0.00    -0.475 OA
BRANCH  21  24
ATOM     22  O   UNL     1      32.532 -22.104 -18.723  0.00  0.00    -0.270 OA
ATOM     23  N   UNL     1      33.563 -20.521 -20.040  0.00  0.00    -0.280 N 
ATOM     24  C   UNL     1      35.828 -18.216 -21.822  0.00  0.00    +0.140 C 
ATOM     25  C   UNL     1      34.662 -18.858 -21.424  0.00  0.00    +0.052 C 
ATOM     26  C   UNL     1      34.734 -19.861 -20.454  0.00  0.00    +0.054 C 
ATOM     27  C   UNL     1      37.057 -18.560 -21.267  0.00  0.00    +0.037 C 
ATOM     28  C   UNL     1      35.962 -20.218 -19.886  0.00  0.00    +0.014 C 
ATOM     29  C   UNL     1      37.127 -19.563 -20.297  0.00  0.00    +0.004 C 
ATOM     30  C   UNL     1      35.994 -21.272 -18.875  0.00  0.00    +0.006 C 
ATOM     31  C   UNL     1      33.552 -21.522 -19.089  0.00  0.00    +0.250 C 
ATOM     32  C   UNL     1      34.867 -21.887 -18.496  0.00  0.00    +0.058 C 
ATOM     33  H   UNL     1      32.707 -20.256 -20.450  0.00  0.00    +0.155 HD
ENDBRANCH  21  24
ENDBRANCH  20  21
ENDBRANCH  19  20
ENDBRANCH  18  19
ENDBRANCH   1  18
TORSDOF 7
ENDMDL
MODEL 7
REMARK VINA RESULT:     -11.7      3.561      6.437
REMARK  Name = 11978813
REMARK  7 active torsions:
REMARK  status: ('A' for Active; 'I' for Inactive)
REMARK    1  A    between atoms: C_1  and  N_2
REMARK    2  A    between atoms: C_1  and  C_18
REMARK    3  A    between atoms: N_3  and  C_10
REMARK    4  A    between atoms: C_18  and  C_19
REMARK    5  A    between atoms: C_19  and  C_20
REMARK    6  A    between atoms: C_20  and  O_21
REMARK    7  A    between atoms: O_21  and  C_24
REMARK                            x       y       z     vdW  Elec       q    Type
REMARK                         _______ _______ _______ _____ _____    ______ ____
ROOT
ATOM      1  C   UNL     1      35.444 -21.498 -18.727  0.00  0.00    -0.077 C 
ENDROOT
BRANCH   1   2
ATOM      2  N   UNL     1      35.411 -20.720 -19.964  0.00  0.00    +0.389 N 
ATOM      3  N   UNL     1      35.033 -18.388 -21.569  0.00  0.00    -0.312 N 
ATOM      4  C   UNL     1      34.061 -20.198 -20.208  0.00  0.00    -0.055 C 
ATOM      5  C   UNL     1      36.372 -19.613 -19.903  0.00  0.00    -0.055 C 
ATOM      6  C   UNL     1      34.000 -19.430 -21.530  0.00  0.00    +0.068 C 
ATOM      7  C   UNL     1      36.388 -18.824 -21.214  0.00  0.00    +0.068 C 
ATOM      8  H   UNL     1      35.669 -21.338 -20.734  0.00  0.00    -0.080 HD
BRANCH   3  10
ATOM      9  S   UNL     1      34.475 -13.399 -22.197  0.00  0.00    -0.086 S 
ATOM     10  C   UNL     1      34.859 -17.321 -22.457  0.00  0.00    +0.048 C 
ATOM     11  C   UNL     1      34.752 -15.963 -22.011  0.00  0.00    +0.020 C 
ATOM     12  C   UNL     1      34.783 -17.576 -23.844  0.00  0.00    +0.015 C 
ATOM     13  C   UNL     1      34.578 -14.945 -22.954  0.00  0.00    +0.031 C 
ATOM     14  C   UNL     1      34.796 -15.434 -20.678  0.00  0.00    +0.009 C 
ATOM     15  C   UNL     1      34.609 -16.548 -24.761  0.00  0.00    +0.002 C 
ATOM     16  C   UNL     1      34.504 -15.223 -24.333  0.00  0.00    +0.007 C 
ATOM     17  C   UNL     1      34.658 -14.067 -20.640  0.00  0.00    +0.035 C 
ENDBRANCH   3  10
ENDBRANCH   1   2
BRANCH   1  18
ATOM     18  C   UNL     1      34.349 -22.564 -18.739  0.00  0.00    -0.019 C 
BRANCH  18  19
ATOM     19  C   UNL     1      33.242 -22.230 -17.740  0.00  0.00    +0.045 C 
BRANCH  19  20
ATOM     20  C   UNL     1      33.186 -23.243 -16.605  0.00  0.00    +0.205 C 
BRANCH  20  21
ATOM     21  O   UNL     1      34.437 -23.908 -16.490  0.00  0.00    -0.475 OA
BRANCH  21  24
ATOM     22  O   UNL     1      35.318 -24.897  -9.500  0.00  0.00    -0.270 OA
ATOM     23  N   UNL     1      35.017 -24.585 -11.761  0.00  0.00    -0.280 N 
ATOM     24  C   UNL     1      35.150 -23.690 -15.339  0.00  0.00    +0.140 C 
ATOM     25  C   UNL     1      34.712 -24.251 -14.145  0.00  0.00    +0.052 C 
ATOM     26  C   UNL     1      35.446 -24.025 -12.978  0.00  0.00    +0.054 C 
ATOM     27  C   UNL     1      36.301 -22.911 -15.381  0.00  0.00    +0.037 C 
ATOM     28  C   UNL     1      36.606 -23.243 -13.004  0.00  0.00    +0.014 C 
ATOM     29  C   UNL     1      37.033 -22.686 -14.213  0.00  0.00    +0.004 C 
ATOM     30  C   UNL     1      37.344 -23.031 -11.761  0.00  0.00    +0.006 C 
ATOM     31  C   UNL     1      35.686 -24.409 -10.566  0.00  0.00    +0.250 C 
ATOM     32  C   UNL     1      36.918 -23.574 -10.614  0.00  0.00    +0.058 C 
ATOM     33  H   UNL     1      34.197 -25.132 -11.761  0.00  0.00    +0.155 HD
ENDBRANCH  21  24
ENDBRANCH  20  21
ENDBRANCH  19  20
ENDBRANCH  18  19
ENDBRANCH   1  18
TORSDOF 7
ENDMDL
MODEL 8
REMARK VINA RESULT:     -11.4      2.309      4.488
REMARK  Name = 11978813
REMARK  7 active torsions:
REMARK  status: ('A' for Active; 'I' for Inactive)
REMARK    1  A    between atoms: C_1  and  N_2
REMARK    2  A    between atoms: C_1  and  C_18
REMARK    3  A    between atoms: N_3  and  C_10
REMARK    4  A    between atoms: C_18  and  C_19
REMARK    5  A    between atoms: C_19  and  C_20
REMARK    6  A    between atoms: C_20  and  O_21
REMARK    7  A    between atoms: O_21  and  C_24
REMARK                            x       y       z     vdW  Elec       q    Type
REMARK                         _______ _______ _______ _____ _____    ______ ____
ROOT
ATOM      1  C   UNL     1      35.315 -20.235 -20.773  0.00  0.00    -0.077 C 
ENDROOT
BRANCH   1   2
ATOM      2  N   UNL     1      35.392 -19.108 -21.701  0.00  0.00    +0.389 N 
ATOM      3  N   UNL     1      34.506 -16.704 -22.964  0.00  0.00    -0.312 N 
ATOM      4  C   UNL     1      34.264 -19.135 -22.639  0.00  0.00    -0.055 C 
ATOM      5  C   UNL     1      35.402 -17.837 -20.968  0.00  0.00    -0.055 C 
ATOM      6  C   UNL     1      34.365 -17.993 -23.653  0.00  0.00    +0.068 C 
ATOM      7  C   UNL     1      35.540 -16.650 -21.925  0.00  0.00    +0.068 C 
ATOM      8  H   UNL     1      36.262 -19.190 -22.228  0.00  0.00    -0.080 HD
BRANCH   3  10
ATOM      9  S   UNL     1      32.986 -11.883 -22.767  0.00  0.00    -0.086 S 
ATOM     10  C   UNL     1      34.167 -15.542 -23.666  0.00  0.00    +0.048 C 
ATOM     11  C   UNL     1      33.765 -14.337 -23.003  0.00  0.00    +0.020 C 
ATOM     12  C   UNL     1      34.218 -15.543 -25.077  0.00  0.00    +0.015 C 
ATOM     13  C   UNL     1      33.439 -13.212 -23.767  0.00  0.00    +0.031 C 
ATOM     14  C   UNL     1      33.630 -14.068 -21.600  0.00  0.00    +0.009 C 
ATOM     15  C   UNL     1      33.889 -14.414 -25.815  0.00  0.00    +0.002 C 
ATOM     16  C   UNL     1      33.497 -13.236 -25.174  0.00  0.00    +0.007 C 
ATOM     17  C   UNL     1      33.218 -12.784 -21.339  0.00  0.00    +0.035 C 
ENDBRANCH   3  10
ENDBRANCH   1   2
BRANCH   1  18
ATOM     18  C   UNL     1      36.466 -20.178 -19.769  0.00  0.00    -0.019 C 
BRANCH  18  19
ATOM     19  C   UNL     1      36.413 -21.357 -18.800  0.00  0.00    +0.045 C 
BRANCH  19  20
ATOM     20  C   UNL     1      34.981 -21.798 -18.529  0.00  0.00    +0.205 C 
BRANCH  20  21
ATOM     21  O   UNL     1      34.976 -22.889 -17.618  0.00  0.00    -0.475 OA
BRANCH  21  24
ATOM     22  O   UNL     1      28.020 -22.244 -16.271  0.00  0.00    -0.270 OA
ATOM     23  N   UNL     1      30.268 -22.446 -16.724  0.00  0.00    -0.280 N 
ATOM     24  C   UNL     1      33.923 -22.959 -16.743  0.00  0.00    +0.140 C 
ATOM     25  C   UNL     1      32.640 -22.664 -17.188  0.00  0.00    +0.052 C 
ATOM     26  C   UNL     1      31.573 -22.741 -16.289  0.00  0.00    +0.054 C 
ATOM     27  C   UNL     1      34.153 -23.325 -15.421  0.00  0.00    +0.037 C 
ATOM     28  C   UNL     1      31.788 -23.107 -14.956  0.00  0.00    +0.014 C 
ATOM     29  C   UNL     1      33.085 -23.400 -14.523  0.00  0.00    +0.004 C 
ATOM     30  C   UNL     1      30.645 -23.174 -14.048  0.00  0.00    +0.006 C 
ATOM     31  C   UNL     1      29.163 -22.499 -15.898  0.00  0.00    +0.250 C 
ATOM     32  C   UNL     1      29.412 -22.890 -14.484  0.00  0.00    +0.058 C 
ATOM     33  H   UNL     1      30.136 -22.189 -17.666  0.00  0.00    +0.155 HD
ENDBRANCH  21  24
ENDBRANCH  20  21
ENDBRANCH  19  20
ENDBRANCH  18  19
ENDBRANCH   1  18
TORSDOF 7
ENDMDL
MODEL 9
REMARK VINA RESULT:     -11.2      1.523      2.486
REMARK  Name = 11978813
REMARK  7 active torsions:
REMARK  status: ('A' for Active; 'I' for Inactive)
REMARK    1  A    between atoms: C_1  and  N_2
REMARK    2  A    between atoms: C_1  and  C_18
REMARK    3  A    between atoms: N_3  and  C_10
REMARK    4  A    between atoms: C_18  and  C_19
REMARK    5  A    between atoms: C_19  and  C_20
REMARK    6  A    between atoms: C_20  and  O_21
REMARK    7  A    between atoms: O_21  and  C_24
REMARK                            x       y       z     vdW  Elec       q    Type
REMARK                         _______ _______ _______ _____ _____    ______ ____
ROOT
ATOM      1  C   UNL     1      33.426 -14.555 -25.376  0.00  0.00    -0.077 C 
ENDROOT
BRANCH   1   2
ATOM      2  N   UNL     1      33.786 -13.336 -24.653  0.00  0.00    +0.389 N 
ATOM      3  N   UNL     1      33.311 -10.837 -23.353  0.00  0.00    -0.312 N 
ATOM      4  C   UNL     1      33.429 -12.148 -25.437  0.00  0.00    -0.055 C 
ATOM      5  C   UNL     1      33.117 -13.294 -23.348  0.00  0.00    -0.055 C 
ATOM      6  C   UNL     1      33.854 -10.866 -24.716  0.00  0.00    +0.068 C 
ATOM      7  C   UNL     1      33.530 -12.050 -22.557  0.00  0.00    +0.068 C 
ATOM      8  H   UNL     1      34.796 -13.341 -24.505  0.00  0.00    -0.080 HD
BRANCH   3  10
ATOM      9  S   UNL     1      31.550  -8.202 -19.410  0.00  0.00    -0.086 S 
ATOM     10  C   UNL     1      33.203  -9.598 -22.713  0.00  0.00    +0.048 C 
ATOM     11  C   UNL     1      32.504  -9.434 -21.473  0.00  0.00    +0.020 C 
ATOM     12  C   UNL     1      33.800  -8.460 -23.298  0.00  0.00    +0.015 C 
ATOM     13  C   UNL     1      32.435  -8.165 -20.889  0.00  0.00    +0.031 C 
ATOM     14  C   UNL     1      31.817 -10.410 -20.677  0.00  0.00    +0.009 C 
ATOM     15  C   UNL     1      33.719  -7.210 -22.700  0.00  0.00    +0.002 C 
ATOM     16  C   UNL     1      33.038  -7.044 -21.491  0.00  0.00    +0.007 C 
ATOM     17  C   UNL     1      31.260  -9.876 -19.540  0.00  0.00    +0.035 C 
ENDBRANCH   3  10
ENDBRANCH   1   2
BRANCH   1  18
ATOM     18  C   UNL     1      33.439 -15.756 -24.431  0.00  0.00    -0.019 C 
BRANCH  18  19
ATOM     19  C   UNL     1      34.450 -16.807 -24.888  0.00  0.00    +0.045 C 
BRANCH  19  20
ATOM     20  C   UNL     1      34.566 -17.947 -23.885  0.00  0.00    +0.205 C 
BRANCH  20  21
ATOM     21  O   UNL     1      35.238 -17.496 -22.717  0.00  0.00    -0.475 OA
BRANCH  21  24
ATOM     22  O   UNL     1      32.739 -22.478 -18.296  0.00  0.00    -0.270 OA
ATOM     23  N   UNL     1      33.531 -20.862 -19.732  0.00  0.00    -0.280 N 
ATOM     24  C   UNL     1      35.449 -18.421 -21.728  0.00  0.00    +0.140 C 
ATOM     25  C   UNL     1      34.378 -19.161 -21.242  0.00  0.00    +0.052 C 
ATOM     26  C   UNL     1      34.603 -20.103 -20.235  0.00  0.00    +0.054 C 
ATOM     27  C   UNL     1      36.732 -18.607 -21.224  0.00  0.00    +0.037 C 
ATOM     28  C   UNL     1      35.888 -20.301 -19.717  0.00  0.00    +0.014 C 
ATOM     29  C   UNL     1      36.955 -19.549 -20.217  0.00  0.00    +0.004 C 
ATOM     30  C   UNL     1      36.080 -21.296 -18.664  0.00  0.00    +0.006 C 
ATOM     31  C   UNL     1      33.672 -21.811 -18.739  0.00  0.00    +0.250 C 
ATOM     32  C   UNL     1      35.045 -22.007 -18.201  0.00  0.00    +0.058 C 
ATOM     33  H   UNL     1      32.633 -20.708 -20.108  0.00  0.00    +0.155 HD
ENDBRANCH  21  24
ENDBRANCH  20  21
ENDBRANCH  19  20
ENDBRANCH  18  19
ENDBRANCH   1  18
TORSDOF 7
ENDMDL
