MODEL 1
REMARK VINA RESULT:     -12.4      0.000      0.000
REMARK  Name = 9810927
REMARK  6 active torsions:
REMARK  status: ('A' for Active; 'I' for Inactive)
REMARK    1  A    between atoms: N_1  and  C_13
REMARK    2  A    between atoms: C_11  and  O_24
REMARK    3  A    between atoms: C_12  and  O_26
REMARK    4  A    between atoms: C_14  and  C_18
REMARK    5  A    between atoms: C_19  and  C_20
REMARK    6  A    between atoms: N_28  and  C_32
REMARK                            x       y       z     vdW  Elec       q    Type
REMARK                         _______ _______ _______ _____ _____    ______ ____
ROOT
ATOM      1  N   UNL     1      36.157 -23.219 -15.606  0.00  0.00    -0.247 N 
ATOM      2  N   UNL     1      37.203 -21.592 -16.717  0.00  0.00    -0.242 NA
ATOM      3  N   UNL     1      34.181 -23.467 -16.998  0.00  0.00    -0.228 NA
ATOM      4  N   UNL     1      34.221 -21.915 -18.882  0.00  0.00    -0.228 NA
ATOM      5  C   UNL     1      35.358 -22.912 -16.672  0.00  0.00    +0.152 C 
ATOM      6  C   UNL     1      37.252 -22.398 -15.677  0.00  0.00    +0.223 C 
ATOM      7  C   UNL     1      36.025 -21.902 -17.347  0.00  0.00    +0.140 C 
ATOM      8  C   UNL     1      35.414 -21.401 -18.493  0.00  0.00    +0.150 C 
ATOM      9  C   UNL     1      33.687 -22.902 -18.121  0.00  0.00    +0.253 C 
ATOM     10  N   UNL     1      36.019 -20.377 -19.241  0.00  0.00    -0.295 N 
ATOM     11  H   UNL     1      36.882 -20.077 -18.872  0.00  0.00    +0.154 HD
ENDROOT
BRANCH  10  14
ATOM     12 CL   UNL     1      34.410 -17.509 -24.164  0.00  0.00    -0.082 Cl
ATOM     13  F   UNL     1      37.837 -18.837 -20.680  0.00  0.00    -0.203 F 
ATOM     14  C   UNL     1      35.638 -19.693 -20.414  0.00  0.00    +0.077 C 
ATOM     15  C   UNL     1      36.572 -18.929 -21.114  0.00  0.00    +0.154 C 
ATOM     16  C   UNL     1      34.324 -19.781 -20.873  0.00  0.00    +0.018 C 
ATOM     17  C   UNL     1      36.192 -18.254 -22.273  0.00  0.00    +0.042 C 
ATOM     18  C   UNL     1      33.944 -19.106 -22.032  0.00  0.00    +0.013 C 
ATOM     19  C   UNL     1      34.877 -18.343 -22.733  0.00  0.00    +0.060 C 
ENDBRANCH  10  14
BRANCH   1  23
ATOM     20  O   UNL     1      34.485 -24.495 -14.493  0.00  0.00    -0.326 OA
ATOM     21  C   UNL     1      36.364 -23.821 -13.184  0.00  0.00    +0.187 C 
ATOM     22  C   UNL     1      35.080 -23.330 -12.543  0.00  0.00    +0.178 C 
ATOM     23  C   UNL     1      35.900 -24.230 -14.577  0.00  0.00    +0.225 C 
ATOM     24  C   UNL     1      34.042 -24.274 -13.134  0.00  0.00    +0.223 C 
BRANCH  24  28
ATOM     25  O   UNL     1      31.992 -23.875 -14.402  0.00  0.00    -0.421 OA
ATOM     26  N   UNL     1      31.865 -23.283 -12.249  0.00  0.00    -0.109 NA
ATOM     27  N   UNL     1      30.647 -23.004 -12.842  0.00  0.00    -0.112 NA
ATOM     28  C   UNL     1      32.610 -23.787 -13.197  0.00  0.00    +0.255 A 
ATOM     29  C   UNL     1      30.768 -23.365 -14.097  0.00  0.00    +0.225 A 
BRANCH  29  30
ATOM     30  C   UNL     1      29.787 -23.299 -15.189  0.00  0.00    +0.070 C 
ATOM     31  C   UNL     1      29.199 -24.710 -15.557  0.00  0.00    +0.009 C 
ATOM     32  C   UNL     1      30.395 -22.709 -16.513  0.00  0.00    +0.009 C 
ATOM     33  C   UNL     1      28.512 -22.408 -14.918  0.00  0.00    +0.009 C 
ENDBRANCH  29  30
ENDBRANCH  24  28
BRANCH  21  34
ATOM     34  O   UNL     1      36.842 -24.990 -12.521  0.00  0.00    -0.378 OA
ATOM     35  H   UNL     1      36.764 -24.871 -11.560  0.00  0.00    +0.211 HD
ENDBRANCH  21  34
BRANCH  22  36
ATOM     36  O   UNL     1      35.119 -23.399 -11.132  0.00  0.00    -0.379 OA
ATOM     37  H   UNL     1      36.027 -23.248 -10.825  0.00  0.00    +0.211 HD
ENDBRANCH  22  36
ENDBRANCH   1  23
TORSDOF 6
ENDMDL
MODEL 2
REMARK VINA RESULT:     -11.9      7.406     11.531
REMARK  Name = 9810927
REMARK  6 active torsions:
REMARK  status: ('A' for Active; 'I' for Inactive)
REMARK    1  A    between atoms: N_1  and  C_13
REMARK    2  A    between atoms: C_11  and  O_24
REMARK    3  A    between atoms: C_12  and  O_26
REMARK    4  A    between atoms: C_14  and  C_18
REMARK    5  A    between atoms: C_19  and  C_20
REMARK    6  A    between atoms: N_28  and  C_32
REMARK                            x       y       z     vdW  Elec       q    Type
REMARK                         _______ _______ _______ _____ _____    ______ ____
ROOT
ATOM      1  N   UNL     1      34.664 -16.499 -23.953  0.00  0.00    -0.247 N 
ATOM      2  N   UNL     1      34.222 -18.670 -23.694  0.00  0.00    -0.242 NA
ATOM      3  N   UNL     1      35.235 -15.917 -21.664  0.00  0.00    -0.228 NA
ATOM      4  N   UNL     1      35.080 -17.856 -20.189  0.00  0.00    -0.228 NA
ATOM      5  C   UNL     1      34.857 -16.771 -22.627  0.00  0.00    +0.152 C 
ATOM      6  C   UNL     1      34.283 -17.672 -24.550  0.00  0.00    +0.223 C 
ATOM      7  C   UNL     1      34.578 -18.122 -22.488  0.00  0.00    +0.140 C 
ATOM      8  C   UNL     1      34.702 -18.661 -21.212  0.00  0.00    +0.150 C 
ATOM      9  C   UNL     1      35.319 -16.553 -20.475  0.00  0.00    +0.253 C 
ATOM     10  N   UNL     1      34.440 -20.023 -20.979  0.00  0.00    -0.295 N 
ATOM     11  H   UNL     1      34.174 -20.517 -21.788  0.00  0.00    +0.154 HD
ENDROOT
BRANCH  10  14
ATOM     12 CL   UNL     1      34.608 -23.378 -16.104  0.00  0.00    -0.082 Cl
ATOM     13  F   UNL     1      36.848 -20.644 -19.731  0.00  0.00    -0.203 F 
ATOM     14  C   UNL     1      34.482 -20.822 -19.817  0.00  0.00    +0.077 C 
ATOM     15  C   UNL     1      35.704 -21.116 -19.214  0.00  0.00    +0.154 C 
ATOM     16  C   UNL     1      33.298 -21.318 -19.272  0.00  0.00    +0.018 C 
ATOM     17  C   UNL     1      35.744 -21.906 -18.066  0.00  0.00    +0.042 C 
ATOM     18  C   UNL     1      33.337 -22.109 -18.125  0.00  0.00    +0.013 C 
ATOM     19  C   UNL     1      34.559 -22.403 -17.521  0.00  0.00    +0.060 C 
ENDBRANCH  10  14
BRANCH   1  23
ATOM     20  O   UNL     1      34.734 -14.140 -23.650  0.00  0.00    -0.326 OA
ATOM     21  C   UNL     1      33.785 -14.928 -25.694  0.00  0.00    +0.187 C 
ATOM     22  C   UNL     1      32.790 -14.045 -24.964  0.00  0.00    +0.178 C 
ATOM     23  C   UNL     1      34.829 -15.204 -24.618  0.00  0.00    +0.225 C 
ATOM     24  C   UNL     1      33.694 -13.221 -24.057  0.00  0.00    +0.223 C 
BRANCH  24  28
ATOM     25  O   UNL     1      32.915 -11.297 -22.769  0.00  0.00    -0.421 OA
ATOM     26  N   UNL     1      32.683 -13.256 -21.715  0.00  0.00    -0.109 NA
ATOM     27  N   UNL     1      32.208 -12.263 -20.879  0.00  0.00    -0.112 NA
ATOM     28  C   UNL     1      33.082 -12.643 -22.798  0.00  0.00    +0.255 A 
ATOM     29  C   UNL     1      32.363 -11.137 -21.535  0.00  0.00    +0.225 A 
BRANCH  29  30
ATOM     30  C   UNL     1      32.028  -9.766 -21.131  0.00  0.00    +0.070 C 
ATOM     31  C   UNL     1      31.921  -9.605 -19.570  0.00  0.00    +0.009 C 
ATOM     32  C   UNL     1      30.656  -9.278 -21.726  0.00  0.00    +0.009 C 
ATOM     33  C   UNL     1      33.056  -8.648 -21.564  0.00  0.00    +0.009 C 
ENDBRANCH  29  30
ENDBRANCH  24  28
BRANCH  21  34
ATOM     34  O   UNL     1      34.420 -14.205 -26.746  0.00  0.00    -0.378 OA
ATOM     35  H   UNL     1      34.992 -14.805 -27.251  0.00  0.00    +0.211 HD
ENDBRANCH  21  34
BRANCH  22  36
ATOM     36  O   UNL     1      32.038 -13.234 -25.844  0.00  0.00    -0.379 OA
ATOM     37  H   UNL     1      32.638 -12.783 -26.460  0.00  0.00    +0.211 HD
ENDBRANCH  22  36
ENDBRANCH   1  23
TORSDOF 6
ENDMDL
MODEL 3
REMARK VINA RESULT:     -11.2      5.772     10.201
REMARK  Name = 9810927
REMARK  6 active torsions:
REMARK  status: ('A' for Active; 'I' for Inactive)
REMARK    1  A    between atoms: N_1  and  C_13
REMARK    2  A    between atoms: C_11  and  O_24
REMARK    3  A    between atoms: C_12  and  O_26
REMARK    4  A    between atoms: C_14  and  C_18
REMARK    5  A    between atoms: C_19  and  C_20
REMARK    6  A    between atoms: N_28  and  C_32
REMARK                            x       y       z     vdW  Elec       q    Type
REMARK                         _______ _______ _______ _____ _____    ______ ____
ROOT
ATOM      1  N   UNL     1      34.175 -20.061 -20.996  0.00  0.00    -0.247 N 
ATOM      2  N   UNL     1      32.235 -20.413 -19.952  0.00  0.00    -0.242 NA
ATOM      3  N   UNL     1      35.662 -21.316 -19.540  0.00  0.00    -0.228 NA
ATOM      4  N   UNL     1      34.439 -22.343 -17.695  0.00  0.00    -0.228 NA
ATOM      5  C   UNL     1      34.462 -20.845 -19.913  0.00  0.00    +0.152 C 
ATOM      6  C   UNL     1      32.825 -19.828 -20.975  0.00  0.00    +0.223 C 
ATOM      7  C   UNL     1      33.247 -21.052 -19.281  0.00  0.00    +0.140 C 
ATOM      8  C   UNL     1      33.262 -21.834 -18.131  0.00  0.00    +0.150 C 
ATOM      9  C   UNL     1      35.550 -22.056 -18.416  0.00  0.00    +0.253 C 
ATOM     10  N   UNL     1      32.074 -22.096 -17.425  0.00  0.00    -0.295 N 
ATOM     11  H   UNL     1      31.276 -21.681 -17.827  0.00  0.00    +0.154 HD
ENDROOT
BRANCH  10  14
ATOM     12 CL   UNL     1      30.921 -25.203 -12.519  0.00  0.00    -0.082 Cl
ATOM     13  F   UNL     1      29.462 -22.542 -16.573  0.00  0.00    -0.203 F 
ATOM     14  C   UNL     1      31.797 -22.836 -16.256  0.00  0.00    +0.077 C 
ATOM     15  C   UNL     1      30.478 -23.043 -15.855  0.00  0.00    +0.154 C 
ATOM     16  C   UNL     1      32.846 -23.361 -15.502  0.00  0.00    +0.018 C 
ATOM     17  C   UNL     1      30.207 -23.775 -14.700  0.00  0.00    +0.042 C 
ATOM     18  C   UNL     1      32.576 -24.092 -14.346  0.00  0.00    +0.013 C 
ATOM     19  C   UNL     1      31.256 -24.300 -13.945  0.00  0.00    +0.060 C 
ENDBRANCH  10  14
BRANCH   1  23
ATOM     20  O   UNL     1      35.503 -18.206 -21.671  0.00  0.00    -0.326 OA
ATOM     21  C   UNL     1      34.569 -19.543 -23.414  0.00  0.00    +0.187 C 
ATOM     22  C   UNL     1      34.144 -18.096 -23.583  0.00  0.00    +0.178 C 
ATOM     23  C   UNL     1      35.123 -19.558 -21.994  0.00  0.00    +0.225 C 
ATOM     24  C   UNL     1      35.218 -17.350 -22.802  0.00  0.00    +0.223 C 
BRANCH  24  28
ATOM     25  O   UNL     1      34.224 -15.139 -23.109  0.00  0.00    -0.421 OA
ATOM     26  N   UNL     1      35.085 -15.480 -21.073  0.00  0.00    -0.109 NA
ATOM     27  N   UNL     1      34.563 -14.200 -21.107  0.00  0.00    -0.112 NA
ATOM     28  C   UNL     1      34.863 -15.982 -22.259  0.00  0.00    +0.255 A 
ATOM     29  C   UNL     1      34.072 -14.046 -22.314  0.00  0.00    +0.225 A 
BRANCH  29  30
ATOM     30  C   UNL     1      33.394 -12.885 -22.906  0.00  0.00    +0.070 C 
ATOM     31  C   UNL     1      32.243 -12.327 -21.992  0.00  0.00    +0.009 C 
ATOM     32  C   UNL     1      32.740 -13.212 -24.299  0.00  0.00    +0.009 C 
ATOM     33  C   UNL     1      34.304 -11.627 -23.193  0.00  0.00    +0.009 C 
ENDBRANCH  29  30
ENDBRANCH  24  28
BRANCH  21  34
ATOM     34  O   UNL     1      35.637 -19.859 -24.305  0.00  0.00    -0.378 OA
ATOM     35  H   UNL     1      36.036 -20.705 -24.043  0.00  0.00    +0.211 HD
ENDBRANCH  21  34
BRANCH  22  36
ATOM     36  O   UNL     1      34.100 -17.699 -24.939  0.00  0.00    -0.379 OA
ATOM     37  H   UNL     1      34.665 -16.919 -25.066  0.00  0.00    +0.211 HD
ENDBRANCH  22  36
ENDBRANCH   1  23
TORSDOF 6
ENDMDL
MODEL 4
REMARK VINA RESULT:     -11.2      6.500      9.118
REMARK  Name = 9810927
REMARK  6 active torsions:
REMARK  status: ('A' for Active; 'I' for Inactive)
REMARK    1  A    between atoms: N_1  and  C_13
REMARK    2  A    between atoms: C_11  and  O_24
REMARK    3  A    between atoms: C_12  and  O_26
REMARK    4  A    between atoms: C_14  and  C_18
REMARK    5  A    between atoms: C_19  and  C_20
REMARK    6  A    between atoms: N_28  and  C_32
REMARK                            x       y       z     vdW  Elec       q    Type
REMARK                         _______ _______ _______ _____ _____    ______ ____
ROOT
ATOM      1  N   UNL     1      35.086 -16.269 -21.810  0.00  0.00    -0.247 N 
ATOM      2  N   UNL     1      34.388 -14.632 -20.465  0.00  0.00    -0.242 NA
ATOM      3  N   UNL     1      34.501 -15.311 -23.965  0.00  0.00    -0.228 NA
ATOM      4  N   UNL     1      33.473 -13.112 -23.710  0.00  0.00    -0.228 NA
ATOM      5  C   UNL     1      34.575 -15.297 -22.626  0.00  0.00    +0.152 C 
ATOM      6  C   UNL     1      34.949 -15.822 -20.522  0.00  0.00    +0.223 C 
ATOM      7  C   UNL     1      34.150 -14.292 -21.772  0.00  0.00    +0.140 C 
ATOM      8  C   UNL     1      33.580 -13.167 -22.360  0.00  0.00    +0.150 C 
ATOM      9  C   UNL     1      33.933 -14.172 -24.418  0.00  0.00    +0.253 C 
ATOM     10  N   UNL     1      33.122 -12.098 -21.571  0.00  0.00    -0.295 N 
ATOM     11  H   UNL     1      33.248 -12.239 -20.604  0.00  0.00    +0.154 HD
ENDROOT
BRANCH  10  14
ATOM     12 CL   UNL     1      30.589  -6.916 -22.906  0.00  0.00    -0.082 Cl
ATOM     13  F   UNL     1      30.812 -11.239 -20.278  0.00  0.00    -0.203 F 
ATOM     14  C   UNL     1      32.517 -10.863 -21.887  0.00  0.00    +0.077 C 
ATOM     15  C   UNL     1      31.360 -10.460 -21.222  0.00  0.00    +0.154 C 
ATOM     16  C   UNL     1      33.078 -10.047 -22.868  0.00  0.00    +0.018 C 
ATOM     17  C   UNL     1      30.763  -9.240 -21.537  0.00  0.00    +0.042 C 
ATOM     18  C   UNL     1      32.481  -8.826 -23.184  0.00  0.00    +0.013 C 
ATOM     19  C   UNL     1      31.325  -8.422 -22.518  0.00  0.00    +0.060 C 
ENDBRANCH  10  14
BRANCH   1  23
ATOM     20  O   UNL     1      34.741 -18.618 -21.953  0.00  0.00    -0.326 OA
ATOM     21  C   UNL     1      36.970 -17.890 -21.508  0.00  0.00    +0.187 C 
ATOM     22  C   UNL     1      36.506 -18.839 -20.420  0.00  0.00    +0.178 C 
ATOM     23  C   UNL     1      35.668 -17.548 -22.223  0.00  0.00    +0.225 C 
ATOM     24  C   UNL     1      35.386 -19.604 -21.113  0.00  0.00    +0.223 C 
BRANCH  24  28
ATOM     25  O   UNL     1      34.716 -21.225 -19.413  0.00  0.00    -0.421 OA
ATOM     26  N   UNL     1      33.045 -19.937 -20.157  0.00  0.00    -0.109 NA
ATOM     27  N   UNL     1      32.528 -20.801 -19.209  0.00  0.00    -0.112 NA
ATOM     28  C   UNL     1      34.317 -20.224 -20.238  0.00  0.00    +0.255 A 
ATOM     29  C   UNL     1      33.539 -21.533 -18.803  0.00  0.00    +0.225 A 
BRANCH  29  30
ATOM     30  C   UNL     1      33.572 -22.609 -17.804  0.00  0.00    +0.070 C 
ATOM     31  C   UNL     1      34.768 -22.457 -16.793  0.00  0.00    +0.009 C 
ATOM     32  C   UNL     1      33.716 -24.034 -18.454  0.00  0.00    +0.009 C 
ATOM     33  C   UNL     1      32.299 -22.732 -16.880  0.00  0.00    +0.009 C 
ENDBRANCH  29  30
ENDBRANCH  24  28
BRANCH  21  34
ATOM     34  O   UNL     1      37.815 -18.567 -22.437  0.00  0.00    -0.378 OA
ATOM     35  H   UNL     1      38.146 -17.933 -23.094  0.00  0.00    +0.211 HD
ENDBRANCH  21  34
BRANCH  22  36
ATOM     36  O   UNL     1      37.537 -19.696 -19.972  0.00  0.00    -0.379 OA
ATOM     37  H   UNL     1      37.396 -20.587 -20.331  0.00  0.00    +0.211 HD
ENDBRANCH  22  36
ENDBRANCH   1  23
TORSDOF 6
ENDMDL
MODEL 5
REMARK VINA RESULT:     -11.1      2.261      3.020
REMARK  Name = 9810927
REMARK  6 active torsions:
REMARK  status: ('A' for Active; 'I' for Inactive)
REMARK    1  A    between atoms: N_1  and  C_13
REMARK    2  A    between atoms: C_11  and  O_24
REMARK    3  A    between atoms: C_12  and  O_26
REMARK    4  A    between atoms: C_14  and  C_18
REMARK    5  A    between atoms: C_19  and  C_20
REMARK    6  A    between atoms: N_28  and  C_32
REMARK                            x       y       z     vdW  Elec       q    Type
REMARK                         _______ _______ _______ _____ _____    ______ ____
ROOT
ATOM      1  N   UNL     1      35.785 -21.947 -18.119  0.00  0.00    -0.247 N 
ATOM      2  N   UNL     1      36.907 -20.318 -19.152  0.00  0.00    -0.242 NA
ATOM      3  N   UNL     1      33.597 -21.651 -19.133  0.00  0.00    -0.228 NA
ATOM      4  N   UNL     1      33.604 -19.811 -20.737  0.00  0.00    -0.228 NA
ATOM      5  C   UNL     1      34.891 -21.341 -18.956  0.00  0.00    +0.152 C 
ATOM      6  C   UNL     1      36.981 -21.296 -18.272  0.00  0.00    +0.223 C 
ATOM      7  C   UNL     1      35.606 -20.336 -19.587  0.00  0.00    +0.140 C 
ATOM      8  C   UNL     1      34.915 -19.555 -20.508  0.00  0.00    +0.150 C 
ATOM      9  C   UNL     1      33.035 -20.828 -20.045  0.00  0.00    +0.253 C 
ATOM     10  N   UNL     1      35.562 -18.513 -21.196  0.00  0.00    -0.295 N 
ATOM     11  H   UNL     1      36.512 -18.413 -20.957  0.00  0.00    +0.154 HD
ENDROOT
BRANCH  10  14
ATOM     12 CL   UNL     1      33.715 -14.602 -25.238  0.00  0.00    -0.082 Cl
ATOM     13  F   UNL     1      34.695 -19.330 -23.712  0.00  0.00    -0.203 F 
ATOM     14  C   UNL     1      35.121 -17.583 -22.161  0.00  0.00    +0.077 C 
ATOM     15  C   UNL     1      34.693 -18.023 -23.412  0.00  0.00    +0.154 C 
ATOM     16  C   UNL     1      35.116 -16.221 -21.860  0.00  0.00    +0.018 C 
ATOM     17  C   UNL     1      34.258 -17.101 -24.364  0.00  0.00    +0.042 C 
ATOM     18  C   UNL     1      34.682 -15.299 -22.812  0.00  0.00    +0.013 C 
ATOM     19  C   UNL     1      34.252 -15.739 -24.064  0.00  0.00    +0.060 C 
ENDBRANCH  10  14
BRANCH   1  23
ATOM     20  O   UNL     1      34.145 -23.479 -17.330  0.00  0.00    -0.326 OA
ATOM     21  C   UNL     1      35.791 -22.769 -15.753  0.00  0.00    +0.187 C 
ATOM     22  C   UNL     1      34.401 -22.468 -15.226  0.00  0.00    +0.178 C 
ATOM     23  C   UNL     1      35.526 -23.076 -17.223  0.00  0.00    +0.225 C 
ATOM     24  C   UNL     1      33.537 -23.440 -16.018  0.00  0.00    +0.223 C 
BRANCH  24  28
ATOM     25  O   UNL     1      31.179 -23.821 -15.503  0.00  0.00    -0.421 OA
ATOM     26  N   UNL     1      31.541 -22.159 -16.956  0.00  0.00    -0.109 NA
ATOM     27  N   UNL     1      30.176 -22.264 -16.759  0.00  0.00    -0.112 NA
ATOM     28  C   UNL     1      32.077 -23.084 -16.205  0.00  0.00    +0.255 A 
ATOM     29  C   UNL     1      30.012 -23.246 -15.904  0.00  0.00    +0.225 A 
BRANCH  29  30
ATOM     30  C   UNL     1      28.774 -23.793 -15.334  0.00  0.00    +0.070 C 
ATOM     31  C   UNL     1      27.878 -24.509 -16.411  0.00  0.00    +0.009 C 
ATOM     32  C   UNL     1      27.875 -22.687 -14.669  0.00  0.00    +0.009 C 
ATOM     33  C   UNL     1      28.956 -24.877 -14.201  0.00  0.00    +0.009 C 
ENDBRANCH  29  30
ENDBRANCH  24  28
BRANCH  21  34
ATOM     34  O   UNL     1      36.313 -23.950 -15.146  0.00  0.00    -0.378 OA
ATOM     35  H   UNL     1      36.623 -24.557 -15.837  0.00  0.00    +0.211 HD
ENDBRANCH  21  34
BRANCH  22  36
ATOM     36  O   UNL     1      34.294 -22.675 -13.832  0.00  0.00    -0.379 OA
ATOM     37  H   UNL     1      33.905 -23.549 -13.664  0.00  0.00    +0.211 HD
ENDBRANCH  22  36
ENDBRANCH   1  23
TORSDOF 6
ENDMDL
MODEL 6
REMARK VINA RESULT:     -10.9      1.582      2.497
REMARK  Name = 9810927
REMARK  6 active torsions:
REMARK  status: ('A' for Active; 'I' for Inactive)
REMARK    1  A    between atoms: N_1  and  C_13
REMARK    2  A    between atoms: C_11  and  O_24
REMARK    3  A    between atoms: C_12  and  O_26
REMARK    4  A    between atoms: C_14  and  C_18
REMARK    5  A    between atoms: C_19  and  C_20
REMARK    6  A    between atoms: N_28  and  C_32
REMARK                            x       y       z     vdW  Elec       q    Type
REMARK                         _______ _______ _______ _____ _____    ______ ____
ROOT
ATOM      1  N   UNL     1      34.718 -22.552 -17.704  0.00  0.00    -0.247 N 
ATOM      2  N   UNL     1      33.252 -21.539 -19.046  0.00  0.00    -0.242 NA
ATOM      3  N   UNL     1      36.769 -21.484 -18.452  0.00  0.00    -0.228 NA
ATOM      4  N   UNL     1      36.333 -19.872 -20.232  0.00  0.00    -0.228 NA
ATOM      5  C   UNL     1      35.444 -21.690 -18.480  0.00  0.00    +0.152 C 
ATOM      6  C   UNL     1      33.408 -22.424 -18.084  0.00  0.00    +0.223 C 
ATOM      7  C   UNL     1      34.516 -21.072 -19.303  0.00  0.00    +0.140 C 
ATOM      8  C   UNL     1      35.003 -20.131 -20.205  0.00  0.00    +0.150 C 
ATOM      9  C   UNL     1      37.122 -20.555 -19.367  0.00  0.00    +0.253 C 
ATOM     10  N   UNL     1      34.133 -19.455 -21.078  0.00  0.00    -0.295 N 
ATOM     11  H   UNL     1      33.189 -19.716 -20.975  0.00  0.00    +0.154 HD
ENDROOT
BRANCH  10  14
ATOM     12 CL   UNL     1      35.010 -15.352 -25.255  0.00  0.00    -0.082 Cl
ATOM     13  F   UNL     1      35.142 -16.939 -20.448  0.00  0.00    -0.203 F 
ATOM     14  C   UNL     1      34.343 -18.476 -22.072  0.00  0.00    +0.077 C 
ATOM     15  C   UNL     1      34.850 -17.224 -21.724  0.00  0.00    +0.154 C 
ATOM     16  C   UNL     1      34.042 -18.762 -23.403  0.00  0.00    +0.018 C 
ATOM     17  C   UNL     1      35.056 -16.258 -22.709  0.00  0.00    +0.042 C 
ATOM     18  C   UNL     1      34.247 -17.796 -24.387  0.00  0.00    +0.013 C 
ATOM     19  C   UNL     1      34.755 -16.544 -24.041  0.00  0.00    +0.060 C 
ENDBRANCH  10  14
BRANCH   1  23
ATOM     20  O   UNL     1      34.137 -24.077 -15.974  0.00  0.00    -0.326 OA
ATOM     21  C   UNL     1      36.082 -22.742 -15.613  0.00  0.00    +0.187 C 
ATOM     22  C   UNL     1      35.095 -22.543 -14.478  0.00  0.00    +0.178 C 
ATOM     23  C   UNL     1      35.234 -23.446 -16.665  0.00  0.00    +0.225 C 
ATOM     24  C   UNL     1      34.250 -23.807 -14.558  0.00  0.00    +0.223 C 
BRANCH  24  28
ATOM     25  O   UNL     1      31.841 -23.569 -14.887  0.00  0.00    -0.421 OA
ATOM     26  N   UNL     1      32.450 -23.840 -12.751  0.00  0.00    -0.109 NA
ATOM     27  N   UNL     1      31.073 -23.718 -12.790  0.00  0.00    -0.112 NA
ATOM     28  C   UNL     1      32.847 -23.747 -13.993  0.00  0.00    +0.255 A 
ATOM     29  C   UNL     1      30.763 -23.562 -14.056  0.00  0.00    +0.225 A 
BRANCH  29  30
ATOM     30  C   UNL     1      29.446 -23.388 -14.682  0.00  0.00    +0.070 C 
ATOM     31  C   UNL     1      28.557 -24.683 -14.587  0.00  0.00    +0.009 C 
ATOM     32  C   UNL     1      29.545 -23.025 -16.209  0.00  0.00    +0.009 C 
ATOM     33  C   UNL     1      28.537 -22.251 -14.072  0.00  0.00    +0.009 C 
ENDBRANCH  29  30
ENDBRANCH  24  28
BRANCH  21  34
ATOM     34  O   UNL     1      37.124 -23.634 -15.221  0.00  0.00    -0.378 OA
ATOM     35  H   UNL     1      37.547 -23.301 -14.413  0.00  0.00    +0.211 HD
ENDBRANCH  21  34
BRANCH  22  36
ATOM     36  O   UNL     1      35.733 -22.408 -13.223  0.00  0.00    -0.379 OA
ATOM     37  H   UNL     1      36.192 -21.554 -13.184  0.00  0.00    +0.211 HD
ENDBRANCH  22  36
ENDBRANCH   1  23
TORSDOF 6
ENDMDL
MODEL 7
REMARK VINA RESULT:     -10.7     11.756     15.830
REMARK  Name = 9810927
REMARK  6 active torsions:
REMARK  status: ('A' for Active; 'I' for Inactive)
REMARK    1  A    between atoms: N_1  and  C_13
REMARK    2  A    between atoms: C_11  and  O_24
REMARK    3  A    between atoms: C_12  and  O_26
REMARK    4  A    between atoms: C_14  and  C_18
REMARK    5  A    between atoms: C_19  and  C_20
REMARK    6  A    between atoms: N_28  and  C_32
REMARK                            x       y       z     vdW  Elec       q    Type
REMARK                         _______ _______ _______ _____ _____    ______ ____
ROOT
ATOM      1  N   UNL     1      32.334  -9.841 -22.129  0.00  0.00    -0.247 N 
ATOM      2  N   UNL     1      33.528 -11.013 -23.605  0.00  0.00    -0.242 NA
ATOM      3  N   UNL     1      31.731 -11.617 -20.584  0.00  0.00    -0.228 NA
ATOM      4  N   UNL     1      32.648 -13.764 -21.295  0.00  0.00    -0.228 NA
ATOM      5  C   UNL     1      32.328 -11.134 -21.683  0.00  0.00    +0.152 C 
ATOM      6  C   UNL     1      33.067  -9.821 -23.287  0.00  0.00    +0.223 C 
ATOM      7  C   UNL     1      33.074 -11.842 -22.612  0.00  0.00    +0.140 C 
ATOM      8  C   UNL     1      33.226 -13.207 -22.388  0.00  0.00    +0.150 C 
ATOM      9  C   UNL     1      31.946 -12.946 -20.473  0.00  0.00    +0.253 C 
ATOM     10  N   UNL     1      33.967 -14.004 -23.278  0.00  0.00    -0.295 N 
ATOM     11  H   UNL     1      34.344 -13.501 -24.036  0.00  0.00    +0.154 HD
ENDROOT
BRANCH  10  14
ATOM     12 CL   UNL     1      35.278 -19.776 -23.367  0.00  0.00    -0.082 Cl
ATOM     13  F   UNL     1      33.193 -15.632 -25.398  0.00  0.00    -0.203 F 
ATOM     14  C   UNL     1      34.278 -15.380 -23.301  0.00  0.00    +0.077 C 
ATOM     15  C   UNL     1      33.877 -16.170 -24.378  0.00  0.00    +0.154 C 
ATOM     16  C   UNL     1      34.988 -15.948 -22.245  0.00  0.00    +0.018 C 
ATOM     17  C   UNL     1      34.186 -17.529 -24.398  0.00  0.00    +0.042 C 
ATOM     18  C   UNL     1      35.297 -17.308 -22.264  0.00  0.00    +0.013 C 
ATOM     19  C   UNL     1      34.897 -18.099 -23.341  0.00  0.00    +0.060 C 
ENDBRANCH  10  14
BRANCH   1  23
ATOM     20  O   UNL     1      31.593  -7.602 -22.439  0.00  0.00    -0.326 OA
ATOM     21  C   UNL     1      32.420  -8.164 -20.271  0.00  0.00    +0.187 C 
ATOM     22  C   UNL     1      33.195  -6.988 -20.836  0.00  0.00    +0.178 C 
ATOM     23  C   UNL     1      31.684  -8.691 -21.498  0.00  0.00    +0.225 C 
ATOM     24  C   UNL     1      32.229  -6.432 -21.874  0.00  0.00    +0.223 C 
BRANCH  24  28
ATOM     25  O   UNL     1      32.215  -4.456 -23.309  0.00  0.00    -0.421 OA
ATOM     26  N   UNL     1      33.834  -5.922 -23.789  0.00  0.00    -0.109 NA
ATOM     27  N   UNL     1      33.942  -4.863 -24.672  0.00  0.00    -0.112 NA
ATOM     28  C   UNL     1      32.817  -5.637 -23.021  0.00  0.00    +0.255 A 
ATOM     29  C   UNL     1      32.977  -4.032 -24.354  0.00  0.00    +0.225 A 
BRANCH  29  30
ATOM     30  C   UNL     1      32.620  -2.740 -24.955  0.00  0.00    +0.070 C 
ATOM     31  C   UNL     1      31.887  -1.786 -23.942  0.00  0.00    +0.009 C 
ATOM     32  C   UNL     1      31.665  -2.893 -26.195  0.00  0.00    +0.009 C 
ATOM     33  C   UNL     1      33.824  -1.875 -25.498  0.00  0.00    +0.009 C 
ENDBRANCH  29  30
ENDBRANCH  24  28
BRANCH  21  34
ATOM     34  O   UNL     1      31.444  -7.717 -19.332  0.00  0.00    -0.378 OA
ATOM     35  H   UNL     1      31.624  -6.794 -19.094  0.00  0.00    +0.211 HD
ENDBRANCH  21  34
BRANCH  22  36
ATOM     36  O   UNL     1      33.522  -6.031 -19.849  0.00  0.00    -0.379 OA
ATOM     37  H   UNL     1      32.710  -5.721 -19.416  0.00  0.00    +0.211 HD
ENDBRANCH  22  36
ENDBRANCH   1  23
TORSDOF 6
ENDMDL
MODEL 8
REMARK VINA RESULT:     -10.7     11.704     15.787
REMARK  Name = 9810927
REMARK  6 active torsions:
REMARK  status: ('A' for Active; 'I' for Inactive)
REMARK    1  A    between atoms: N_1  and  C_13
REMARK    2  A    between atoms: C_11  and  O_24
REMARK    3  A    between atoms: C_12  and  O_26
REMARK    4  A    between atoms: C_14  and  C_18
REMARK    5  A    between atoms: C_19  and  C_20
REMARK    6  A    between atoms: N_28  and  C_32
REMARK                            x       y       z     vdW  Elec       q    Type
REMARK                         _______ _______ _______ _____ _____    ______ ____
ROOT
ATOM      1  N   UNL     1      32.328  -9.844 -22.129  0.00  0.00    -0.247 N 
ATOM      2  N   UNL     1      33.509 -11.028 -23.606  0.00  0.00    -0.242 NA
ATOM      3  N   UNL     1      31.714 -11.610 -20.578  0.00  0.00    -0.228 NA
ATOM      4  N   UNL     1      32.613 -13.766 -21.286  0.00  0.00    -0.228 NA
ATOM      5  C   UNL     1      32.313 -11.135 -21.681  0.00  0.00    +0.152 C 
ATOM      6  C   UNL     1      33.058  -9.832 -23.289  0.00  0.00    +0.223 C 
ATOM      7  C   UNL     1      33.051 -11.852 -22.609  0.00  0.00    +0.140 C 
ATOM      8  C   UNL     1      33.192 -13.217 -22.381  0.00  0.00    +0.150 C 
ATOM      9  C   UNL     1      31.920 -12.940 -20.464  0.00  0.00    +0.253 C 
ATOM     10  N   UNL     1      33.925 -14.022 -23.271  0.00  0.00    -0.295 N 
ATOM     11  H   UNL     1      34.305 -13.524 -24.032  0.00  0.00    +0.154 HD
ENDROOT
BRANCH  10  14
ATOM     12 CL   UNL     1      35.184 -19.806 -23.365  0.00  0.00    -0.082 Cl
ATOM     13  F   UNL     1      35.279 -15.244 -21.169  0.00  0.00    -0.203 F 
ATOM     14  C   UNL     1      34.226 -15.400 -23.291  0.00  0.00    +0.077 C 
ATOM     15  C   UNL     1      34.906 -15.984 -22.223  0.00  0.00    +0.154 C 
ATOM     16  C   UNL     1      33.843 -16.178 -24.383  0.00  0.00    +0.018 C 
ATOM     17  C   UNL     1      35.202 -17.346 -22.245  0.00  0.00    +0.042 C 
ATOM     18  C   UNL     1      34.139 -17.541 -24.406  0.00  0.00    +0.013 C 
ATOM     19  C   UNL     1      34.818 -18.125 -23.338  0.00  0.00    +0.060 C 
ENDBRANCH  10  14
BRANCH   1  23
ATOM     20  O   UNL     1      31.610  -7.597 -22.442  0.00  0.00    -0.326 OA
ATOM     21  C   UNL     1      32.428  -8.166 -20.273  0.00  0.00    +0.187 C 
ATOM     22  C   UNL     1      33.215  -6.998 -20.836  0.00  0.00    +0.178 C 
ATOM     23  C   UNL     1      31.688  -8.686 -21.500  0.00  0.00    +0.225 C 
ATOM     24  C   UNL     1      32.257  -6.434 -21.877  0.00  0.00    +0.223 C 
BRANCH  24  28
ATOM     25  O   UNL     1      32.242  -4.475 -23.337  0.00  0.00    -0.421 OA
ATOM     26  N   UNL     1      33.889  -5.926 -23.769  0.00  0.00    -0.109 NA
ATOM     27  N   UNL     1      33.999  -4.876 -24.663  0.00  0.00    -0.112 NA
ATOM     28  C   UNL     1      32.854  -5.645 -23.022  0.00  0.00    +0.255 A 
ATOM     29  C   UNL     1      33.018  -4.055 -24.373  0.00  0.00    +0.225 A 
BRANCH  29  30
ATOM     30  C   UNL     1      32.654  -2.775 -24.996  0.00  0.00    +0.070 C 
ATOM     31  C   UNL     1      33.899  -2.017 -25.587  0.00  0.00    +0.009 C 
ATOM     32  C   UNL     1      31.965  -1.786 -23.987  0.00  0.00    +0.009 C 
ATOM     33  C   UNL     1      31.644  -2.860 -26.206  0.00  0.00    +0.009 C 
ENDBRANCH  29  30
ENDBRANCH  24  28
BRANCH  21  34
ATOM     34  O   UNL     1      31.454  -7.710 -19.335  0.00  0.00    -0.378 OA
ATOM     35  H   UNL     1      31.652  -6.793 -19.085  0.00  0.00    +0.211 HD
ENDBRANCH  21  34
BRANCH  22  36
ATOM     36  O   UNL     1      33.550  -6.044 -19.849  0.00  0.00    -0.379 OA
ATOM     37  H   UNL     1      33.322  -5.156 -20.167  0.00  0.00    +0.211 HD
ENDBRANCH  22  36
ENDBRANCH   1  23
TORSDOF 6
ENDMDL
MODEL 9
REMARK VINA RESULT:      -9.9      7.700     11.761
REMARK  Name = 9810927
REMARK  6 active torsions:
REMARK  status: ('A' for Active; 'I' for Inactive)
REMARK    1  A    between atoms: N_1  and  C_13
REMARK    2  A    between atoms: C_11  and  O_24
REMARK    3  A    between atoms: C_12  and  O_26
REMARK    4  A    between atoms: C_14  and  C_18
REMARK    5  A    between atoms: C_19  and  C_20
REMARK    6  A    between atoms: N_28  and  C_32
REMARK                            x       y       z     vdW  Elec       q    Type
REMARK                         _______ _______ _______ _____ _____    ______ ____
ROOT
ATOM      1  N   UNL     1      34.845 -15.247 -23.284  0.00  0.00    -0.247 N 
ATOM      2  N   UNL     1      34.975 -15.912 -21.158  0.00  0.00    -0.242 NA
ATOM      3  N   UNL     1      34.374 -17.376 -24.355  0.00  0.00    -0.228 NA
ATOM      4  N   UNL     1      34.257 -19.186 -22.722  0.00  0.00    -0.228 NA
ATOM      5  C   UNL     1      34.622 -16.596 -23.293  0.00  0.00    +0.152 C 
ATOM      6  C   UNL     1      35.053 -14.885 -21.979  0.00  0.00    +0.223 C 
ATOM      7  C   UNL     1      34.705 -16.988 -21.966  0.00  0.00    +0.140 C 
ATOM      8  C   UNL     1      34.512 -18.339 -21.696  0.00  0.00    +0.150 C 
ATOM      9  C   UNL     1      34.205 -18.660 -23.970  0.00  0.00    +0.253 C 
ATOM     10  N   UNL     1      34.578 -18.825 -20.378  0.00  0.00    -0.295 N 
ATOM     11  H   UNL     1      34.767 -18.126 -19.710  0.00  0.00    +0.154 HD
ENDROOT
BRANCH  10  14
ATOM     12 CL   UNL     1      33.937 -24.229 -18.049  0.00  0.00    -0.082 Cl
ATOM     13  F   UNL     1      36.780 -20.434 -19.825  0.00  0.00    -0.203 F 
ATOM     14  C   UNL     1      34.428 -20.113 -19.823  0.00  0.00    +0.077 C 
ATOM     15  C   UNL     1      35.551 -20.896 -19.557  0.00  0.00    +0.154 C 
ATOM     16  C   UNL     1      33.153 -20.602 -19.541  0.00  0.00    +0.018 C 
ATOM     17  C   UNL     1      35.399 -22.169 -19.008  0.00  0.00    +0.042 C 
ATOM     18  C   UNL     1      33.001 -21.876 -18.993  0.00  0.00    +0.013 C 
ATOM     19  C   UNL     1      34.123 -22.659 -18.726  0.00  0.00    +0.060 C 
ENDBRANCH  10  14
BRANCH   1  23
ATOM     20  O   UNL     1      34.862 -12.979 -24.000  0.00  0.00    -0.326 OA
ATOM     21  C   UNL     1      33.668 -14.524 -25.373  0.00  0.00    +0.187 C 
ATOM     22  C   UNL     1      32.751 -13.396 -24.940  0.00  0.00    +0.178 C 
ATOM     23  C   UNL     1      34.863 -14.351 -24.442  0.00  0.00    +0.225 C 
ATOM     24  C   UNL     1      33.739 -12.289 -24.597  0.00  0.00    +0.223 C 
BRANCH  24  28
ATOM     25  O   UNL     1      32.707 -11.666 -22.472  0.00  0.00    -0.421 OA
ATOM     26  N   UNL     1      33.370  -9.926 -23.712  0.00  0.00    -0.109 NA
ATOM     27  N   UNL     1      32.808  -9.432 -22.549  0.00  0.00    -0.112 NA
ATOM     28  C   UNL     1      33.287 -11.227 -23.618  0.00  0.00    +0.255 A 
ATOM     29  C   UNL     1      32.435 -10.483 -21.857  0.00  0.00    +0.225 A 
BRANCH  29  30
ATOM     30  C   UNL     1      31.785 -10.554 -20.542  0.00  0.00    +0.070 C 
ATOM     31  C   UNL     1      32.215 -11.827 -19.724  0.00  0.00    +0.009 C 
ATOM     32  C   UNL     1      30.216 -10.598 -20.644  0.00  0.00    +0.009 C 
ATOM     33  C   UNL     1      32.075  -9.351 -19.562  0.00  0.00    +0.009 C 
ENDBRANCH  29  30
ENDBRANCH  24  28
BRANCH  21  34
ATOM     34  O   UNL     1      34.120 -14.319 -26.710  0.00  0.00    -0.378 OA
ATOM     35  H   UNL     1      34.194 -13.366 -26.883  0.00  0.00    +0.211 HD
ENDBRANCH  21  34
BRANCH  22  36
ATOM     36  O   UNL     1      31.851 -13.008 -25.959  0.00  0.00    -0.379 OA
ATOM     37  H   UNL     1      30.945 -13.018 -25.611  0.00  0.00    +0.211 HD
ENDBRANCH  22  36
ENDBRANCH   1  23
TORSDOF 6
ENDMDL
