MODEL 1
REMARK VINA RESULT:     -12.5      0.000      0.000
REMARK  Name = 25191001
REMARK  7 active torsions:
REMARK  status: ('A' for Active; 'I' for Inactive)
REMARK    1  A    between atoms: C_1  and  N_9
REMARK    2  A    between atoms: C_2  and  O_24
REMARK    3  A    between atoms: N_8  and  C_14
REMARK    4  A    between atoms: C_15  and  C_23
REMARK    5  A    between atoms: O_24  and  C_26
REMARK    6  A    between atoms: C_28  and  C_33
REMARK    7  A    between atoms: N_32  and  C_35
REMARK                            x       y       z     vdW  Elec       q    Type
REMARK                         _______ _______ _______ _____ _____    ______ ____
ROOT
ATOM      1  C   UNL     1      34.986 -21.858 -18.278  0.00  0.00    +0.052 C 
ATOM      2  C   UNL     1      34.207 -23.348 -16.051  0.00  0.00    +0.145 C 
ATOM      3  C   UNL     1      35.823 -21.940 -17.165  0.00  0.00    +0.018 C 
ATOM      4  C   UNL     1      33.759 -22.522 -18.277  0.00  0.00    +0.018 C 
ATOM      5  C   UNL     1      35.434 -22.685 -16.052  0.00  0.00    +0.039 C 
ATOM      6  C   UNL     1      33.369 -23.267 -17.164  0.00  0.00    +0.039 C 
ENDROOT
BRANCH   1   9
ATOM      7  O   UNL     1      33.431 -19.924 -19.940  0.00  0.00    -0.252 OA
ATOM      8  N   UNL     1      35.384 -19.654 -21.206  0.00  0.00    -0.268 N 
ATOM      9  N   UNL     1      35.381 -21.101 -19.406  0.00  0.00    -0.268 N 
ATOM     10  C   UNL     1      34.607 -20.201 -20.156  0.00  0.00    +0.308 C 
ATOM     11  H   UNL     1      36.315 -19.970 -21.257  0.00  0.00    +0.156 HD
ATOM     12  H   UNL     1      36.312 -21.220 -19.701  0.00  0.00    +0.156 HD
BRANCH   8  14
ATOM     13 CL   UNL     1      33.775 -15.754 -25.345  0.00  0.00    -0.082 Cl
ATOM     14  C   UNL     1      35.005 -18.726 -22.177  0.00  0.00    +0.052 C 
ATOM     15  C   UNL     1      34.616 -16.438 -22.845  0.00  0.00    +0.083 C 
ATOM     16  C   UNL     1      34.994 -17.364 -21.874  0.00  0.00    +0.019 C 
ATOM     17  C   UNL     1      34.637 -19.161 -23.450  0.00  0.00    +0.016 C 
ATOM     18  C   UNL     1      34.248 -16.871 -24.119  0.00  0.00    +0.062 C 
ATOM     19  C   UNL     1      34.259 -18.234 -24.421  0.00  0.00    +0.013 C 
BRANCH  15  23
ATOM     20  F   UNL     1      35.359 -14.215 -23.328  0.00  0.00    -0.166 F 
ATOM     21  F   UNL     1      33.375 -14.426 -22.479  0.00  0.00    -0.166 F 
ATOM     22  F   UNL     1      35.127 -14.763 -21.236  0.00  0.00    -0.166 F 
ATOM     23  C   UNL     1      34.618 -14.988 -22.481  0.00  0.00    +0.419 C 
ENDBRANCH  15  23
ENDBRANCH   8  14
ENDBRANCH   1   9
BRANCH   2  24
ATOM     24  O   UNL     1      33.825 -24.074 -14.965  0.00  0.00    -0.453 OA
BRANCH  24  26
ATOM     25  N   UNL     1      36.760 -25.048 -12.152  0.00  0.00    -0.239 NA
ATOM     26  C   UNL     1      34.797 -24.398 -14.034  0.00  0.00    +0.149 C 
ATOM     27  C   UNL     1      35.934 -25.097 -14.424  0.00  0.00    +0.061 C 
ATOM     28  C   UNL     1      36.877 -25.395 -13.454  0.00  0.00    +0.137 C 
ATOM     29  C   UNL     1      34.641 -24.023 -12.704  0.00  0.00    +0.058 C 
ATOM     30  C   UNL     1      35.642 -24.370 -11.810  0.00  0.00    +0.102 C 
BRANCH  28  33
ATOM     31  O   UNL     1      38.014 -27.278 -14.266  0.00  0.00    -0.269 OA
ATOM     32  N   UNL     1      39.304 -25.462 -13.623  0.00  0.00    -0.313 N 
ATOM     33  C   UNL     1      38.084 -26.124 -13.805  0.00  0.00    +0.263 C 
ATOM     34  H   UNL     1      39.288 -24.550 -13.254  0.00  0.00    +0.149 HD
ATOM     35  C   UNL     1      40.586 -26.044 -13.948  0.00  0.00    +0.128 C 
ENDBRANCH  28  33
ENDBRANCH  24  26
ENDBRANCH   2  24
TORSDOF 6
ENDMDL
MODEL 2
REMARK VINA RESULT:     -12.4      5.427     11.859
REMARK  Name = 25191001
REMARK  7 active torsions:
REMARK  status: ('A' for Active; 'I' for Inactive)
REMARK    1  A    between atoms: C_1  and  N_9
REMARK    2  A    between atoms: C_2  and  O_24
REMARK    3  A    between atoms: N_8  and  C_14
REMARK    4  A    between atoms: C_15  and  C_23
REMARK    5  A    between atoms: O_24  and  C_26
REMARK    6  A    between atoms: C_28  and  C_33
REMARK    7  A    between atoms: N_32  and  C_35
REMARK                            x       y       z     vdW  Elec       q    Type
REMARK                         _______ _______ _______ _____ _____    ______ ____
ROOT
ATOM      1  C   UNL     1      34.961 -18.564 -22.749  0.00  0.00    +0.052 C 
ATOM      2  C   UNL     1      34.116 -16.759 -24.702  0.00  0.00    +0.145 C 
ATOM      3  C   UNL     1      34.074 -18.976 -23.744  0.00  0.00    +0.018 C 
ATOM      4  C   UNL     1      35.425 -17.249 -22.731  0.00  0.00    +0.018 C 
ATOM      5  C   UNL     1      33.653 -18.075 -24.720  0.00  0.00    +0.039 C 
ATOM      6  C   UNL     1      35.003 -16.346 -23.708  0.00  0.00    +0.039 C 
ENDROOT
BRANCH   1   9
ATOM      7  O   UNL     1      33.509 -19.649 -20.375  0.00  0.00    -0.252 OA
ATOM      8  N   UNL     1      35.459 -20.860 -19.908  0.00  0.00    -0.268 N 
ATOM      9  N   UNL     1      35.388 -19.479 -21.758  0.00  0.00    -0.268 N 
ATOM     10  C   UNL     1      34.663 -19.959 -20.656  0.00  0.00    +0.308 C 
ATOM     11  H   UNL     1      36.368 -21.014 -20.253  0.00  0.00    +0.156 HD
ATOM     12  H   UNL     1      36.306 -19.820 -21.852  0.00  0.00    +0.156 HD
BRANCH   8  14
ATOM     13 CL   UNL     1      34.013 -23.829 -15.006  0.00  0.00    -0.082 Cl
ATOM     14  C   UNL     1      35.126 -21.560 -18.748  0.00  0.00    +0.052 C 
ATOM     15  C   UNL     1      35.742 -22.428 -16.579  0.00  0.00    +0.083 C 
ATOM     16  C   UNL     1      36.075 -21.728 -17.739  0.00  0.00    +0.019 C 
ATOM     17  C   UNL     1      33.845 -22.090 -18.597  0.00  0.00    +0.016 C 
ATOM     18  C   UNL     1      34.461 -22.958 -16.427  0.00  0.00    +0.062 C 
ATOM     19  C   UNL     1      33.512 -22.789 -17.437  0.00  0.00    +0.013 C 
BRANCH  15  23
ATOM     20  F   UNL     1      36.411 -22.092 -14.306  0.00  0.00    -0.166 F 
ATOM     21  F   UNL     1      37.131 -23.886 -15.288  0.00  0.00    -0.166 F 
ATOM     22  F   UNL     1      37.949 -21.948 -15.837  0.00  0.00    -0.166 F 
ATOM     23  C   UNL     1      36.787 -22.586 -15.521  0.00  0.00    +0.419 C 
ENDBRANCH  15  23
ENDBRANCH   8  14
ENDBRANCH   1   9
BRANCH   2  24
ATOM     24  O   UNL     1      33.703 -15.878 -25.653  0.00  0.00    -0.453 OA
BRANCH  24  26
ATOM     25  N   UNL     1      33.369 -11.856 -24.563  0.00  0.00    -0.239 NA
ATOM     26  C   UNL     1      33.591 -14.546 -25.292  0.00  0.00    +0.149 C 
ATOM     27  C   UNL     1      33.243 -14.202 -23.991  0.00  0.00    +0.061 C 
ATOM     28  C   UNL     1      33.146 -12.855 -23.679  0.00  0.00    +0.137 C 
ATOM     29  C   UNL     1      33.829 -13.547 -26.229  0.00  0.00    +0.058 C 
ATOM     30  C   UNL     1      33.706 -12.229 -25.819  0.00  0.00    +0.102 C 
BRANCH  28  33
ATOM     31  O   UNL     1      32.626 -11.232 -22.070  0.00  0.00    -0.269 OA
ATOM     32  N   UNL     1      32.608 -13.446 -21.380  0.00  0.00    -0.313 N 
ATOM     33  C   UNL     1      32.786 -12.438 -22.335  0.00  0.00    +0.263 C 
ATOM     34  H   UNL     1      32.751 -14.379 -21.658  0.00  0.00    +0.149 HD
ATOM     35  C   UNL     1      32.226 -13.192 -20.011  0.00  0.00    +0.128 C 
ENDBRANCH  28  33
ENDBRANCH  24  26
ENDBRANCH   2  24
TORSDOF 6
ENDMDL
MODEL 3
REMARK VINA RESULT:     -12.2      4.238      7.264
REMARK  Name = 25191001
REMARK  7 active torsions:
REMARK  status: ('A' for Active; 'I' for Inactive)
REMARK    1  A    between atoms: C_1  and  N_9
REMARK    2  A    between atoms: C_2  and  O_24
REMARK    3  A    between atoms: N_8  and  C_14
REMARK    4  A    between atoms: C_15  and  C_23
REMARK    5  A    between atoms: O_24  and  C_26
REMARK    6  A    between atoms: C_28  and  C_33
REMARK    7  A    between atoms: N_32  and  C_35
REMARK                            x       y       z     vdW  Elec       q    Type
REMARK                         _______ _______ _______ _____ _____    ______ ____
ROOT
ATOM      1  C   UNL     1      34.916 -16.281 -22.577  0.00  0.00    +0.052 C 
ATOM      2  C   UNL     1      35.532 -18.701 -21.332  0.00  0.00    +0.145 C 
ATOM      3  C   UNL     1      34.913 -17.466 -23.314  0.00  0.00    +0.018 C 
ATOM      4  C   UNL     1      35.227 -16.306 -21.218  0.00  0.00    +0.018 C 
ATOM      5  C   UNL     1      35.221 -18.675 -22.691  0.00  0.00    +0.039 C 
ATOM      6  C   UNL     1      35.535 -17.516 -20.594  0.00  0.00    +0.039 C 
ENDROOT
BRANCH   1   9
ATOM      7  O   UNL     1      34.612 -13.543 -21.425  0.00  0.00    -0.252 OA
ATOM      8  N   UNL     1      34.153 -12.825 -23.607  0.00  0.00    -0.268 N 
ATOM      9  N   UNL     1      34.605 -15.055 -23.210  0.00  0.00    -0.268 N 
ATOM     10  C   UNL     1      34.473 -13.788 -22.619  0.00  0.00    +0.308 C 
ATOM     11  H   UNL     1      34.073 -13.167 -24.527  0.00  0.00    +0.156 HD
ATOM     12  H   UNL     1      34.463 -15.094 -24.183  0.00  0.00    +0.156 HD
BRANCH   8  14
ATOM     13 CL   UNL     1      33.273  -7.015 -22.966  0.00  0.00    -0.082 Cl
ATOM     14  C   UNL     1      33.938 -11.455 -23.451  0.00  0.00    +0.052 C 
ATOM     15  C   UNL     1      32.648  -9.632 -22.530  0.00  0.00    +0.083 C 
ATOM     16  C   UNL     1      32.862 -11.001 -22.687  0.00  0.00    +0.019 C 
ATOM     17  C   UNL     1      34.798 -10.541 -24.058  0.00  0.00    +0.016 C 
ATOM     18  C   UNL     1      33.508  -8.716 -23.137  0.00  0.00    +0.062 C 
ATOM     19  C   UNL     1      34.583  -9.171 -23.902  0.00  0.00    +0.013 C 
BRANCH  15  23
ATOM     20  F   UNL     1      30.638  -8.344 -22.364  0.00  0.00    -0.166 F 
ATOM     21  F   UNL     1      30.700 -10.214 -21.269  0.00  0.00    -0.166 F 
ATOM     22  F   UNL     1      31.870  -8.515 -20.581  0.00  0.00    -0.166 F 
ATOM     23  C   UNL     1      31.485  -9.185 -21.704  0.00  0.00    +0.419 C 
ENDBRANCH  15  23
ENDBRANCH   8  14
ENDBRANCH   1   9
BRANCH   2  24
ATOM     24  O   UNL     1      35.835 -19.880 -20.724  0.00  0.00    -0.453 OA
BRANCH  24  26
ATOM     25  N   UNL     1      32.832 -21.736 -18.485  0.00  0.00    -0.239 NA
ATOM     26  C   UNL     1      34.841 -20.496 -19.982  0.00  0.00    +0.149 C 
ATOM     27  C   UNL     1      35.176 -21.348 -18.936  0.00  0.00    +0.061 C 
ATOM     28  C   UNL     1      34.144 -21.938 -18.224  0.00  0.00    +0.137 C 
ATOM     29  C   UNL     1      33.504 -20.262 -20.281  0.00  0.00    +0.058 C 
ATOM     30  C   UNL     1      32.545 -20.901 -19.510  0.00  0.00    +0.102 C 
BRANCH  28  33
ATOM     31  O   UNL     1      33.750 -23.862 -16.943  0.00  0.00    -0.269 OA
ATOM     32  N   UNL     1      35.520 -22.509 -16.300  0.00  0.00    -0.313 N 
ATOM     33  C   UNL     1      34.435 -22.837 -17.121  0.00  0.00    +0.263 C 
ATOM     34  H   UNL     1      36.019 -21.684 -16.497  0.00  0.00    +0.149 HD
ATOM     35  C   UNL     1      35.948 -23.315 -15.180  0.00  0.00    +0.128 C 
ENDBRANCH  28  33
ENDBRANCH  24  26
ENDBRANCH   2  24
TORSDOF 6
ENDMDL
MODEL 4
REMARK VINA RESULT:     -12.2      2.873      4.570
REMARK  Name = 25191001
REMARK  7 active torsions:
REMARK  status: ('A' for Active; 'I' for Inactive)
REMARK    1  A    between atoms: C_1  and  N_9
REMARK    2  A    between atoms: C_2  and  O_24
REMARK    3  A    between atoms: N_8  and  C_14
REMARK    4  A    between atoms: C_15  and  C_23
REMARK    5  A    between atoms: O_24  and  C_26
REMARK    6  A    between atoms: C_28  and  C_33
REMARK    7  A    between atoms: N_32  and  C_35
REMARK                            x       y       z     vdW  Elec       q    Type
REMARK                         _______ _______ _______ _____ _____    ______ ____
ROOT
ATOM      1  C   UNL     1      35.559 -20.997 -19.007  0.00  0.00    +0.052 C 
ATOM      2  C   UNL     1      34.976 -22.852 -17.006  0.00  0.00    +0.145 C 
ATOM      3  C   UNL     1      34.349 -21.691 -19.030  0.00  0.00    +0.018 C 
ATOM      4  C   UNL     1      36.478 -21.231 -17.984  0.00  0.00    +0.018 C 
ATOM      5  C   UNL     1      34.057 -22.618 -18.029  0.00  0.00    +0.039 C 
ATOM      6  C   UNL     1      36.187 -22.158 -16.982  0.00  0.00    +0.039 C 
ENDROOT
BRANCH   1   9
ATOM      7  O   UNL     1      33.756 -19.146 -20.505  0.00  0.00    -0.252 OA
ATOM      8  N   UNL     1      35.671 -18.425 -21.645  0.00  0.00    -0.268 N 
ATOM      9  N   UNL     1      35.855 -20.059 -20.023  0.00  0.00    -0.268 N 
ATOM     10  C   UNL     1      34.966 -19.208 -20.699  0.00  0.00    +0.308 C 
ATOM     11  H   UNL     1      36.642 -18.582 -21.691  0.00  0.00    +0.156 HD
ATOM     12  H   UNL     1      36.800 -19.995 -20.289  0.00  0.00    +0.156 HD
BRANCH   8  14
ATOM     13 CL   UNL     1      33.561 -14.359 -25.380  0.00  0.00    -0.082 Cl
ATOM     14  C   UNL     1      35.173 -17.459 -22.520  0.00  0.00    +0.052 C 
ATOM     15  C   UNL     1      34.464 -15.189 -22.947  0.00  0.00    +0.083 C 
ATOM     16  C   UNL     1      34.962 -16.154 -22.072  0.00  0.00    +0.019 C 
ATOM     17  C   UNL     1      34.886 -17.797 -23.842  0.00  0.00    +0.016 C 
ATOM     18  C   UNL     1      34.178 -15.527 -24.270  0.00  0.00    +0.062 C 
ATOM     19  C   UNL     1      34.388 -16.832 -24.717  0.00  0.00    +0.013 C 
BRANCH  15  23
ATOM     20  F   UNL     1      34.832 -13.581 -21.213  0.00  0.00    -0.166 F 
ATOM     21  F   UNL     1      34.756 -12.834 -23.247  0.00  0.00    -0.166 F 
ATOM     22  F   UNL     1      32.933 -13.502 -22.268  0.00  0.00    -0.166 F 
ATOM     23  C   UNL     1      34.253 -13.803 -22.428  0.00  0.00    +0.419 C 
ENDBRANCH  15  23
ENDBRANCH   8  14
ENDBRANCH   1   9
BRANCH   2  24
ATOM     24  O   UNL     1      34.693 -23.758 -16.030  0.00  0.00    -0.453 OA
BRANCH  24  26
ATOM     25  N   UNL     1      31.272 -23.120 -13.714  0.00  0.00    -0.239 NA
ATOM     26  C   UNL     1      33.560 -23.545 -15.263  0.00  0.00    +0.149 C 
ATOM     27  C   UNL     1      32.348 -23.246 -15.875  0.00  0.00    +0.061 C 
ATOM     28  C   UNL     1      31.243 -23.044 -15.064  0.00  0.00    +0.137 C 
ATOM     29  C   UNL     1      33.629 -23.633 -13.877  0.00  0.00    +0.058 C 
ATOM     30  C   UNL     1      32.468 -23.413 -13.154  0.00  0.00    +0.102 C 
BRANCH  28  33
ATOM     31  O   UNL     1      29.867 -22.372 -16.839  0.00  0.00    -0.269 OA
ATOM     32  N   UNL     1      28.828 -22.867 -14.826  0.00  0.00    -0.313 N 
ATOM     33  C   UNL     1      29.951 -22.728 -15.649  0.00  0.00    +0.263 C 
ATOM     34  H   UNL     1      28.966 -23.153 -13.894  0.00  0.00    +0.149 HD
ATOM     35  C   UNL     1      27.476 -22.614 -15.268  0.00  0.00    +0.128 C 
ENDBRANCH  28  33
ENDBRANCH  24  26
ENDBRANCH   2  24
TORSDOF 6
ENDMDL
MODEL 5
REMARK VINA RESULT:     -12.0      5.861     11.886
REMARK  Name = 25191001
REMARK  7 active torsions:
REMARK  status: ('A' for Active; 'I' for Inactive)
REMARK    1  A    between atoms: C_1  and  N_9
REMARK    2  A    between atoms: C_2  and  O_24
REMARK    3  A    between atoms: N_8  and  C_14
REMARK    4  A    between atoms: C_15  and  C_23
REMARK    5  A    between atoms: O_24  and  C_26
REMARK    6  A    between atoms: C_28  and  C_33
REMARK    7  A    between atoms: N_32  and  C_35
REMARK                            x       y       z     vdW  Elec       q    Type
REMARK                         _______ _______ _______ _____ _____    ______ ____
ROOT
ATOM      1  C   UNL     1      35.249 -20.840 -19.387  0.00  0.00    +0.052 C 
ATOM      2  C   UNL     1      35.916 -19.002 -21.377  0.00  0.00    +0.145 C 
ATOM      3  C   UNL     1      36.552 -20.351 -19.477  0.00  0.00    +0.018 C 
ATOM      4  C   UNL     1      34.279 -20.411 -20.294  0.00  0.00    +0.018 C 
ATOM      5  C   UNL     1      36.885 -19.432 -20.471  0.00  0.00    +0.039 C 
ATOM      6  C   UNL     1      34.612 -19.492 -21.289  0.00  0.00    +0.039 C 
ENDROOT
BRANCH   1   9
ATOM      7  O   UNL     1      36.439 -21.269 -16.682  0.00  0.00    -0.252 OA
ATOM      8  N   UNL     1      34.868 -22.986 -16.414  0.00  0.00    -0.268 N 
ATOM      9  N   UNL     1      34.911 -21.774 -18.379  0.00  0.00    -0.268 N 
ATOM     10  C   UNL     1      35.505 -21.935 -17.118  0.00  0.00    +0.308 C 
ATOM     11  H   UNL     1      34.131 -23.433 -16.890  0.00  0.00    +0.156 HD
ATOM     12  H   UNL     1      34.169 -22.385 -18.588  0.00  0.00    +0.156 HD
BRANCH   8  14
ATOM     13 CL   UNL     1      36.003 -25.033 -10.987  0.00  0.00    -0.082 Cl
ATOM     14  C   UNL     1      35.145 -23.471 -15.135  0.00  0.00    +0.052 C 
ATOM     15  C   UNL     1      36.696 -24.432 -13.553  0.00  0.00    +0.083 C 
ATOM     16  C   UNL     1      36.420 -23.948 -14.831  0.00  0.00    +0.019 C 
ATOM     17  C   UNL     1      34.146 -23.480 -14.162  0.00  0.00    +0.016 C 
ATOM     18  C   UNL     1      35.698 -24.441 -12.578  0.00  0.00    +0.062 C 
ATOM     19  C   UNL     1      34.422 -23.965 -12.884  0.00  0.00    +0.013 C 
BRANCH  15  23
ATOM     20  F   UNL     1      38.113 -26.247 -12.900  0.00  0.00    -0.166 F 
ATOM     21  F   UNL     1      38.922 -24.835 -14.332  0.00  0.00    -0.166 F 
ATOM     22  F   UNL     1      38.678 -24.250 -12.252  0.00  0.00    -0.166 F 
ATOM     23  C   UNL     1      38.075 -24.933 -13.266  0.00  0.00    +0.419 C 
ENDBRANCH  15  23
ENDBRANCH   8  14
ENDBRANCH   1   9
BRANCH   2  24
ATOM     24  O   UNL     1      36.242 -18.107 -22.350  0.00  0.00    -0.453 OA
BRANCH  24  26
ATOM     25  N   UNL     1      34.045 -14.555 -22.529  0.00  0.00    -0.239 NA
ATOM     26  C   UNL     1      35.515 -16.930 -22.410  0.00  0.00    +0.149 C 
ATOM     27  C   UNL     1      35.033 -16.468 -23.630  0.00  0.00    +0.061 C 
ATOM     28  C   UNL     1      34.310 -15.286 -23.636  0.00  0.00    +0.137 C 
ATOM     29  C   UNL     1      35.262 -16.207 -21.250  0.00  0.00    +0.058 C 
ATOM     30  C   UNL     1      34.529 -15.036 -21.362  0.00  0.00    +0.102 C 
BRANCH  28  33
ATOM     31  O   UNL     1      33.583 -15.507 -25.854  0.00  0.00    -0.269 OA
ATOM     32  N   UNL     1      33.495 -13.386 -24.920  0.00  0.00    -0.313 N 
ATOM     33  C   UNL     1      33.783 -14.755 -24.881  0.00  0.00    +0.263 C 
ATOM     34  H   UNL     1      33.678 -12.850 -24.115  0.00  0.00    +0.149 HD
ATOM     35  C   UNL     1      32.945 -12.716 -26.075  0.00  0.00    +0.128 C 
ENDBRANCH  28  33
ENDBRANCH  24  26
ENDBRANCH   2  24
TORSDOF 6
ENDMDL
MODEL 6
REMARK VINA RESULT:     -12.0      5.484      9.567
REMARK  Name = 25191001
REMARK  7 active torsions:
REMARK  status: ('A' for Active; 'I' for Inactive)
REMARK    1  A    between atoms: C_1  and  N_9
REMARK    2  A    between atoms: C_2  and  O_24
REMARK    3  A    between atoms: N_8  and  C_14
REMARK    4  A    between atoms: C_15  and  C_23
REMARK    5  A    between atoms: O_24  and  C_26
REMARK    6  A    between atoms: C_28  and  C_33
REMARK    7  A    between atoms: N_32  and  C_35
REMARK                            x       y       z     vdW  Elec       q    Type
REMARK                         _______ _______ _______ _____ _____    ______ ____
ROOT
ATOM      1  C   UNL     1      34.168 -14.093 -23.875  0.00  0.00    +0.052 C 
ATOM      2  C   UNL     1      34.571 -16.848 -23.683  0.00  0.00    +0.145 C 
ATOM      3  C   UNL     1      33.721 -14.937 -24.892  0.00  0.00    +0.018 C 
ATOM      4  C   UNL     1      34.817 -14.627 -22.762  0.00  0.00    +0.018 C 
ATOM      5  C   UNL     1      33.922 -16.314 -24.796  0.00  0.00    +0.039 C 
ATOM      6  C   UNL     1      35.019 -16.005 -22.665  0.00  0.00    +0.039 C 
ENDROOT
BRANCH   1   9
ATOM      7  O   UNL     1      32.674 -12.232 -22.079  0.00  0.00    -0.252 OA
ATOM      8  N   UNL     1      33.290 -10.527 -23.562  0.00  0.00    -0.268 N 
ATOM      9  N   UNL     1      33.965 -12.697 -23.974  0.00  0.00    -0.268 N 
ATOM     10  C   UNL     1      33.251 -11.864 -23.098  0.00  0.00    +0.308 C 
ATOM     11  H   UNL     1      33.792 -10.379 -24.397  0.00  0.00    +0.156 HD
ATOM     12  H   UNL     1      34.375 -12.255 -24.752  0.00  0.00    +0.156 HD
BRANCH   8  14
ATOM     13 CL   UNL     1      30.837  -5.701 -21.191  0.00  0.00    -0.082 Cl
ATOM     14  C   UNL     1      32.714  -9.390 -22.994  0.00  0.00    +0.052 C 
ATOM     15  C   UNL     1      32.301  -7.996 -21.065  0.00  0.00    +0.083 C 
ATOM     16  C   UNL     1      32.877  -9.132 -21.633  0.00  0.00    +0.019 C 
ATOM     17  C   UNL     1      31.977  -8.512 -23.788  0.00  0.00    +0.016 C 
ATOM     18  C   UNL     1      31.564  -7.116 -21.858  0.00  0.00    +0.062 C 
ATOM     19  C   UNL     1      31.401  -7.375 -23.220  0.00  0.00    +0.013 C 
BRANCH  15  23
ATOM     20  F   UNL     1      33.319  -6.700 -19.331  0.00  0.00    -0.166 F 
ATOM     21  F   UNL     1      31.339  -7.488 -18.935  0.00  0.00    -0.166 F 
ATOM     22  F   UNL     1      33.052  -8.827 -18.968  0.00  0.00    -0.166 F 
ATOM     23  C   UNL     1      32.498  -7.755 -19.603  0.00  0.00    +0.419 C 
ENDBRANCH  15  23
ENDBRANCH   8  14
ENDBRANCH   1   9
BRANCH   2  24
ATOM     24  O   UNL     1      34.770 -18.191 -23.589  0.00  0.00    -0.453 OA
BRANCH  24  26
ATOM     25  N   UNL     1      35.847 -19.743 -19.860  0.00  0.00    -0.239 NA
ATOM     26  C   UNL     1      35.125 -18.705 -22.353  0.00  0.00    +0.149 C 
ATOM     27  C   UNL     1      34.212 -19.451 -21.617  0.00  0.00    +0.061 C 
ATOM     28  C   UNL     1      34.618 -19.944 -20.388  0.00  0.00    +0.137 C 
ATOM     29  C   UNL     1      36.399 -18.477 -21.845  0.00  0.00    +0.058 C 
ATOM     30  C   UNL     1      36.708 -19.012 -20.604  0.00  0.00    +0.102 C 
BRANCH  28  33
ATOM     31  O   UNL     1      32.476 -20.544 -19.645  0.00  0.00    -0.269 OA
ATOM     32  N   UNL     1      34.270 -21.707 -18.746  0.00  0.00    -0.313 N 
ATOM     33  C   UNL     1      33.705 -20.730 -19.576  0.00  0.00    +0.263 C 
ATOM     34  H   UNL     1      35.250 -21.801 -18.740  0.00  0.00    +0.149 HD
ATOM     35  C   UNL     1      33.495 -22.583 -17.899  0.00  0.00    +0.128 C 
ENDBRANCH  28  33
ENDBRANCH  24  26
ENDBRANCH   2  24
TORSDOF 6
ENDMDL
MODEL 7
REMARK VINA RESULT:     -11.9      5.031      8.222
REMARK  Name = 25191001
REMARK  7 active torsions:
REMARK  status: ('A' for Active; 'I' for Inactive)
REMARK    1  A    between atoms: C_1  and  N_9
REMARK    2  A    between atoms: C_2  and  O_24
REMARK    3  A    between atoms: N_8  and  C_14
REMARK    4  A    between atoms: C_15  and  C_23
REMARK    5  A    between atoms: O_24  and  C_26
REMARK    6  A    between atoms: C_28  and  C_33
REMARK    7  A    between atoms: N_32  and  C_35
REMARK                            x       y       z     vdW  Elec       q    Type
REMARK                         _______ _______ _______ _____ _____    ______ ____
ROOT
ATOM      1  C   UNL     1      34.602 -15.244 -22.758  0.00  0.00    +0.052 C 
ATOM      2  C   UNL     1      35.363 -17.849 -22.111  0.00  0.00    +0.145 C 
ATOM      3  C   UNL     1      34.584 -16.239 -23.735  0.00  0.00    +0.018 C 
ATOM      4  C   UNL     1      35.002 -15.552 -21.457  0.00  0.00    +0.018 C 
ATOM      5  C   UNL     1      34.964 -17.542 -23.412  0.00  0.00    +0.039 C 
ATOM      6  C   UNL     1      35.382 -16.855 -21.133  0.00  0.00    +0.039 C 
ENDROOT
BRANCH   1   9
ATOM      7  O   UNL     1      33.474 -13.081 -21.035  0.00  0.00    -0.252 OA
ATOM      8  N   UNL     1      33.440 -11.752 -22.964  0.00  0.00    -0.268 N 
ATOM      9  N   UNL     1      34.218 -13.923 -23.086  0.00  0.00    -0.268 N 
ATOM     10  C   UNL     1      33.690 -12.940 -22.235  0.00  0.00    +0.308 C 
ATOM     11  H   UNL     1      33.663 -11.784 -23.922  0.00  0.00    +0.156 HD
ATOM     12  H   UNL     1      34.336 -13.661 -24.028  0.00  0.00    +0.156 HD
BRANCH   8  14
ATOM     13 CL   UNL     1      31.217  -6.642 -20.992  0.00  0.00    -0.082 Cl
ATOM     14  C   UNL     1      32.921 -10.541 -22.504  0.00  0.00    +0.052 C 
ATOM     15  C   UNL     1      32.834  -8.129 -22.605  0.00  0.00    +0.083 C 
ATOM     16  C   UNL     1      33.354  -9.339 -23.064  0.00  0.00    +0.019 C 
ATOM     17  C   UNL     1      31.969 -10.533 -21.485  0.00  0.00    +0.016 C 
ATOM     18  C   UNL     1      31.882  -8.120 -21.586  0.00  0.00    +0.062 C 
ATOM     19  C   UNL     1      31.449  -9.323 -21.025  0.00  0.00    +0.013 C 
BRANCH  15  23
ATOM     20  F   UNL     1      34.197  -7.066 -24.260  0.00  0.00    -0.166 F 
ATOM     21  F   UNL     1      32.325  -6.094 -23.756  0.00  0.00    -0.166 F 
ATOM     22  F   UNL     1      33.979  -6.061 -22.344  0.00  0.00    -0.166 F 
ATOM     23  C   UNL     1      33.324  -6.863 -23.231  0.00  0.00    +0.419 C 
ENDBRANCH  15  23
ENDBRANCH   8  14
ENDBRANCH   1   9
BRANCH   2  24
ATOM     24  O   UNL     1      35.737 -19.120 -21.796  0.00  0.00    -0.453 OA
BRANCH  24  26
ATOM     25  N   UNL     1      33.415 -21.185 -19.000  0.00  0.00    -0.239 NA
ATOM     26  C   UNL     1      34.968 -19.805 -20.870  0.00  0.00    +0.149 C 
ATOM     27  C   UNL     1      35.580 -20.525 -19.850  0.00  0.00    +0.061 C 
ATOM     28  C   UNL     1      34.766 -21.191 -18.948  0.00  0.00    +0.137 C 
ATOM     29  C   UNL     1      33.581 -19.774 -20.957  0.00  0.00    +0.058 C 
ATOM     30  C   UNL     1      32.856 -20.475 -20.006  0.00  0.00    +0.102 C 
BRANCH  28  33
ATOM     31  O   UNL     1      34.784 -22.982 -17.435  0.00  0.00    -0.269 OA
ATOM     32  N   UNL     1      36.573 -21.509 -17.349  0.00  0.00    -0.313 N 
ATOM     33  C   UNL     1      35.350 -21.959 -17.862  0.00  0.00    +0.263 C 
ATOM     34  H   UNL     1      36.966 -20.692 -17.733  0.00  0.00    +0.149 HD
ATOM     35  C   UNL     1      37.289 -22.177 -16.287  0.00  0.00    +0.128 C 
ENDBRANCH  28  33
ENDBRANCH  24  26
ENDBRANCH   2  24
TORSDOF 6
ENDMDL
MODEL 8
REMARK VINA RESULT:     -11.9      5.916     11.866
REMARK  Name = 25191001
REMARK  7 active torsions:
REMARK  status: ('A' for Active; 'I' for Inactive)
REMARK    1  A    between atoms: C_1  and  N_9
REMARK    2  A    between atoms: C_2  and  O_24
REMARK    3  A    between atoms: N_8  and  C_14
REMARK    4  A    between atoms: C_15  and  C_23
REMARK    5  A    between atoms: O_24  and  C_26
REMARK    6  A    between atoms: C_28  and  C_33
REMARK    7  A    between atoms: N_32  and  C_35
REMARK                            x       y       z     vdW  Elec       q    Type
REMARK                         _______ _______ _______ _____ _____    ______ ____
ROOT
ATOM      1  C   UNL     1      35.673 -20.562 -19.497  0.00  0.00    +0.052 C 
ATOM      2  C   UNL     1      35.706 -18.569 -21.450  0.00  0.00    +0.145 C 
ATOM      3  C   UNL     1      36.865 -19.904 -19.803  0.00  0.00    +0.018 C 
ATOM      4  C   UNL     1      34.498 -20.223 -20.168  0.00  0.00    +0.018 C 
ATOM      5  C   UNL     1      36.882 -18.908 -20.779  0.00  0.00    +0.039 C 
ATOM      6  C   UNL     1      34.514 -19.226 -21.144  0.00  0.00    +0.039 C 
ENDROOT
BRANCH   1   9
ATOM      7  O   UNL     1      37.086 -20.711 -16.870  0.00  0.00    -0.252 OA
ATOM      8  N   UNL     1      36.053 -22.794 -16.588  0.00  0.00    -0.268 N 
ATOM      9  N   UNL     1      35.657 -21.573 -18.508  0.00  0.00    -0.268 N 
ATOM     10  C   UNL     1      36.343 -21.595 -17.284  0.00  0.00    +0.308 C 
ATOM     11  H   UNL     1      35.438 -23.414 -17.044  0.00  0.00    +0.156 HD
ATOM     12  H   UNL     1      35.096 -22.358 -18.703  0.00  0.00    +0.156 HD
BRANCH   8  14
ATOM     13 CL   UNL     1      38.076 -24.577 -11.329  0.00  0.00    -0.082 Cl
ATOM     14  C   UNL     1      36.522 -23.214 -15.343  0.00  0.00    +0.052 C 
ATOM     15  C   UNL     1      36.112 -23.737 -13.021  0.00  0.00    +0.083 C 
ATOM     16  C   UNL     1      35.643 -23.317 -14.265  0.00  0.00    +0.019 C 
ATOM     17  C   UNL     1      37.870 -23.531 -15.177  0.00  0.00    +0.016 C 
ATOM     18  C   UNL     1      37.460 -24.054 -12.853  0.00  0.00    +0.062 C 
ATOM     19  C   UNL     1      38.340 -23.951 -13.932  0.00  0.00    +0.013 C 
BRANCH  15  23
ATOM     20  F   UNL     1      33.860 -23.512 -12.244  0.00  0.00    -0.166 F 
ATOM     21  F   UNL     1      35.055 -25.086 -11.351  0.00  0.00    -0.166 F 
ATOM     22  F   UNL     1      35.455 -23.007 -10.855  0.00  0.00    -0.166 F 
ATOM     23  C   UNL     1      35.138 -23.835 -11.891  0.00  0.00    +0.419 C 
ENDBRANCH  15  23
ENDBRANCH   8  14
ENDBRANCH   1   9
BRANCH   2  24
ATOM     24  O   UNL     1      35.722 -17.598 -22.404  0.00  0.00    -0.453 OA
BRANCH  24  26
ATOM     25  N   UNL     1      34.250 -13.828 -21.359  0.00  0.00    -0.239 NA
ATOM     26  C   UNL     1      35.235 -16.349 -22.059  0.00  0.00    +0.149 C 
ATOM     27  C   UNL     1      34.877 -15.441 -23.048  0.00  0.00    +0.061 C 
ATOM     28  C   UNL     1      34.393 -14.205 -22.651  0.00  0.00    +0.137 C 
ATOM     29  C   UNL     1      35.101 -15.999 -20.720  0.00  0.00    +0.058 C 
ATOM     30  C   UNL     1      34.608 -14.737 -20.425  0.00  0.00    +0.102 C 
BRANCH  28  33
ATOM     31  O   UNL     1      33.307 -13.543 -24.620  0.00  0.00    -0.269 OA
ATOM     32  N   UNL     1      34.425 -11.898 -23.427  0.00  0.00    -0.313 N 
ATOM     33  C   UNL     1      34.004 -13.216 -23.641  0.00  0.00    +0.263 C 
ATOM     34  H   UNL     1      34.974 -11.709 -22.632  0.00  0.00    +0.149 HD
ATOM     35  C   UNL     1      34.098 -10.801 -24.307  0.00  0.00    +0.128 C 
ENDBRANCH  28  33
ENDBRANCH  24  26
ENDBRANCH   2  24
TORSDOF 6
ENDMDL
MODEL 9
REMARK VINA RESULT:     -11.9      5.780      9.723
REMARK  Name = 25191001
REMARK  7 active torsions:
REMARK  status: ('A' for Active; 'I' for Inactive)
REMARK    1  A    between atoms: C_1  and  N_9
REMARK    2  A    between atoms: C_2  and  O_24
REMARK    3  A    between atoms: N_8  and  C_14
REMARK    4  A    between atoms: C_15  and  C_23
REMARK    5  A    between atoms: O_24  and  C_26
REMARK    6  A    between atoms: C_28  and  C_33
REMARK    7  A    between atoms: N_32  and  C_35
REMARK                            x       y       z     vdW  Elec       q    Type
REMARK                         _______ _______ _______ _____ _____    ______ ____
ROOT
ATOM      1  C   UNL     1      34.253 -14.093 -23.726  0.00  0.00    +0.052 C 
ATOM      2  C   UNL     1      34.580 -16.860 -23.567  0.00  0.00    +0.145 C 
ATOM      3  C   UNL     1      33.811 -14.909 -24.768  0.00  0.00    +0.018 C 
ATOM      4  C   UNL     1      34.859 -14.661 -22.605  0.00  0.00    +0.018 C 
ATOM      5  C   UNL     1      33.974 -16.292 -24.688  0.00  0.00    +0.039 C 
ATOM      6  C   UNL     1      35.022 -16.045 -22.525  0.00  0.00    +0.039 C 
ENDROOT
BRANCH   1   9
ATOM      7  O   UNL     1      32.628 -12.242 -22.037  0.00  0.00    -0.252 OA
ATOM      8  N   UNL     1      33.421 -10.516 -23.408  0.00  0.00    -0.268 N 
ATOM      9  N   UNL     1      34.089 -12.691 -23.808  0.00  0.00    -0.268 N 
ATOM     10  C   UNL     1      33.309 -11.863 -22.985  0.00  0.00    +0.308 C 
ATOM     11  H   UNL     1      34.005 -10.360 -24.186  0.00  0.00    +0.156 HD
ATOM     12  H   UNL     1      34.582 -12.240 -24.531  0.00  0.00    +0.156 HD
BRANCH   8  14
ATOM     13 CL   UNL     1      30.838  -5.728 -21.099  0.00  0.00    -0.082 Cl
ATOM     14  C   UNL     1      32.815  -9.380 -22.870  0.00  0.00    +0.052 C 
ATOM     15  C   UNL     1      32.374  -7.007 -22.952  0.00  0.00    +0.083 C 
ATOM     16  C   UNL     1      32.980  -8.142 -23.490  0.00  0.00    +0.019 C 
ATOM     17  C   UNL     1      32.045  -9.484 -21.712  0.00  0.00    +0.016 C 
ATOM     18  C   UNL     1      31.603  -7.110 -21.793  0.00  0.00    +0.062 C 
ATOM     19  C   UNL     1      31.439  -8.349 -21.173  0.00  0.00    +0.013 C 
BRANCH  15  23
ATOM     20  F   UNL     1      31.455  -5.241 -24.279  0.00  0.00    -0.166 F 
ATOM     21  F   UNL     1      32.949  -4.689 -22.807  0.00  0.00    -0.166 F 
ATOM     22  F   UNL     1      33.541  -5.759 -24.604  0.00  0.00    -0.166 F 
ATOM     23  C   UNL     1      32.574  -5.698 -23.646  0.00  0.00    +0.419 C 
ENDBRANCH  15  23
ENDBRANCH   8  14
ENDBRANCH   1   9
BRANCH   2  24
ATOM     24  O   UNL     1      34.741 -18.209 -23.490  0.00  0.00    -0.453 OA
BRANCH  24  26
ATOM     25  N   UNL     1      35.897 -19.822 -19.811  0.00  0.00    -0.239 NA
ATOM     26  C   UNL     1      35.123 -18.743 -22.271  0.00  0.00    +0.149 C 
ATOM     27  C   UNL     1      34.225 -19.498 -21.526  0.00  0.00    +0.061 C 
ATOM     28  C   UNL     1      34.656 -20.011 -20.314  0.00  0.00    +0.137 C 
ATOM     29  C   UNL     1      36.409 -18.526 -21.788  0.00  0.00    +0.058 C 
ATOM     30  C   UNL     1      36.744 -19.082 -20.563  0.00  0.00    +0.102 C 
BRANCH  28  33
ATOM     31  O   UNL     1      32.532 -20.603 -19.517  0.00  0.00    -0.269 OA
ATOM     32  N   UNL     1      34.338 -21.815 -18.711  0.00  0.00    -0.313 N 
ATOM     33  C   UNL     1      33.760 -20.808 -19.494  0.00  0.00    +0.263 C 
ATOM     34  H   UNL     1      35.316 -21.922 -18.740  0.00  0.00    +0.149 HD
ATOM     35  C   UNL     1      33.578 -22.703 -17.863  0.00  0.00    +0.128 C 
ENDBRANCH  28  33
ENDBRANCH  24  26
ENDBRANCH   2  24
TORSDOF 6
ENDMDL
