MODEL 1
REMARK VINA RESULT:     -12.7      0.000      0.000
REMARK  Name = 24779676
REMARK  4 active torsions:
REMARK  status: ('A' for Active; 'I' for Inactive)
REMARK    1  A    between atoms: N_2  and  C_22
REMARK    2  A    between atoms: N_3  and  C_14
REMARK    3  A    between atoms: C_10  and  C_21
REMARK    4  A    between atoms: C_22  and  C_24
REMARK                            x       y       z     vdW  Elec       q    Type
REMARK                         _______ _______ _______ _____ _____    ______ ____
ROOT
ATOM      1  N   UNL     1      32.804 -24.015 -13.968  0.00  0.00    -0.123 N 
ATOM      2  N   UNL     1      34.228 -22.763 -17.494  0.00  0.00    -0.254 N 
ATOM      3  N   UNL     1      34.909 -24.855 -13.306  0.00  0.00    -0.274 N 
ATOM      4  N   UNL     1      34.574 -23.809 -15.406  0.00  0.00    -0.295 NA
ATOM      5  N   UNL     1      32.429 -22.970 -16.042  0.00  0.00    -0.314 NA
ATOM      6  N   UNL     1      32.220 -24.392 -12.818  0.00  0.00    -0.170 NA
ATOM      7  C   UNL     1      34.144 -24.227 -14.250  0.00  0.00    +0.279 C 
ATOM      8  C   UNL     1      31.962 -23.398 -14.848  0.00  0.00    +0.219 C 
ATOM      9  C   UNL     1      33.703 -23.180 -16.294  0.00  0.00    +0.203 C 
ATOM     10  C   UNL     1      30.735 -23.371 -14.226  0.00  0.00    +0.203 C 
ATOM     11  C   UNL     1      30.954 -23.996 -12.981  0.00  0.00    +0.116 C 
ATOM     12  H   UNL     1      35.182 -22.922 -17.679  0.00  0.00    +0.161 HD
ATOM     13  H   UNL     1      34.453 -25.119 -12.474  0.00  0.00    +0.156 HD
ENDROOT
BRANCH   3  14
ATOM     14  C   UNL     1      36.268 -25.164 -13.396  0.00  0.00    +0.051 C 
ATOM     15  C   UNL     1      36.691 -26.220 -14.202  0.00  0.00    +0.015 C 
ATOM     16  C   UNL     1      37.201 -24.416 -12.677  0.00  0.00    +0.015 C 
ATOM     17  C   UNL     1      38.049 -26.527 -14.292  0.00  0.00    +0.001 C 
ATOM     18  C   UNL     1      38.559 -24.723 -12.768  0.00  0.00    +0.001 C 
ATOM     19  C   UNL     1      38.983 -25.779 -13.574  0.00  0.00    +0.000 C 
ENDBRANCH   3  14
BRANCH  10  21
ATOM     20  N   UNL     1      28.545 -22.383 -15.169  0.00  0.00    -0.195 NA
ATOM     21  C   UNL     1      29.530 -22.827 -14.745  0.00  0.00    +0.087 C 
ENDBRANCH  10  21
BRANCH   2  22
ATOM     22  C   UNL     1      33.433 -22.107 -18.483  0.00  0.00    +0.125 C 
BRANCH  22  24
ATOM     23 CL   UNL     1      36.788 -18.268 -21.674  0.00  0.00    -0.082 Cl
ATOM     24  C   UNL     1      34.271 -21.148 -19.282  0.00  0.00    -0.002 C 
ATOM     25  C   UNL     1      33.662 -20.252 -20.161  0.00  0.00    -0.002 C 
ATOM     26  C   UNL     1      35.660 -21.152 -19.142  0.00  0.00    -0.002 C 
ATOM     27  C   UNL     1      34.440 -19.362 -20.900  0.00  0.00    +0.011 C 
ATOM     28  C   UNL     1      36.437 -20.261 -19.882  0.00  0.00    +0.011 C 
ATOM     29  C   UNL     1      35.828 -19.367 -20.761  0.00  0.00    +0.058 C 
ENDBRANCH  22  24
ENDBRANCH   2  22
TORSDOF 4
ENDMDL
MODEL 2
REMARK VINA RESULT:     -11.6      1.514      5.490
REMARK  Name = 24779676
REMARK  4 active torsions:
REMARK  status: ('A' for Active; 'I' for Inactive)
REMARK    1  A    between atoms: N_2  and  C_22
REMARK    2  A    between atoms: N_3  and  C_14
REMARK    3  A    between atoms: C_10  and  C_21
REMARK    4  A    between atoms: C_22  and  C_24
REMARK                            x       y       z     vdW  Elec       q    Type
REMARK                         _______ _______ _______ _____ _____    ______ ____
ROOT
ATOM      1  N   UNL     1      33.982 -23.874 -14.286  0.00  0.00    -0.123 N 
ATOM      2  N   UNL     1      34.251 -22.384 -17.992  0.00  0.00    -0.254 N 
ATOM      3  N   UNL     1      31.622 -23.824 -14.332  0.00  0.00    -0.274 N 
ATOM      4  N   UNL     1      32.933 -23.101 -16.168  0.00  0.00    -0.295 NA
ATOM      5  N   UNL     1      35.320 -23.165 -16.086  0.00  0.00    -0.314 NA
ATOM      6  N   UNL     1      34.012 -24.377 -13.040  0.00  0.00    -0.170 NA
ATOM      7  C   UNL     1      32.810 -23.585 -14.966  0.00  0.00    +0.279 C 
ATOM      8  C   UNL     1      35.215 -23.668 -14.836  0.00  0.00    +0.219 C 
ATOM      9  C   UNL     1      34.198 -22.896 -16.717  0.00  0.00    +0.203 C 
ATOM     10  C   UNL     1      36.117 -24.065 -13.876  0.00  0.00    +0.203 C 
ATOM     11  C   UNL     1      35.320 -24.492 -12.794  0.00  0.00    +0.116 C 
ATOM     12  H   UNL     1      33.408 -22.184 -18.461  0.00  0.00    +0.161 HD
ATOM     13  H   UNL     1      31.676 -24.193 -13.420  0.00  0.00    +0.156 HD
ENDROOT
BRANCH   3  14
ATOM     14  C   UNL     1      30.340 -23.601 -14.838  0.00  0.00    +0.051 C 
ATOM     15  C   UNL     1      29.674 -22.411 -14.549  0.00  0.00    +0.015 C 
ATOM     16  C   UNL     1      29.726 -24.570 -15.632  0.00  0.00    +0.015 C 
ATOM     17  C   UNL     1      28.393 -22.188 -15.055  0.00  0.00    +0.001 C 
ATOM     18  C   UNL     1      28.446 -24.347 -16.139  0.00  0.00    +0.001 C 
ATOM     19  C   UNL     1      27.779 -23.156 -15.850  0.00  0.00    +0.000 C 
ENDBRANCH   3  14
BRANCH  10  21
ATOM     20  N   UNL     1      38.691 -24.022 -14.062  0.00  0.00    -0.195 NA
ATOM     21  C   UNL     1      37.533 -24.041 -13.978  0.00  0.00    +0.087 C 
ENDBRANCH  10  21
BRANCH   2  22
ATOM     22  C   UNL     1      35.489 -22.132 -18.659  0.00  0.00    +0.125 C 
BRANCH  22  24
ATOM     23 CL   UNL     1      35.077 -17.199 -22.074  0.00  0.00    -0.082 Cl
ATOM     24  C   UNL     1      35.386 -20.900 -19.513  0.00  0.00    -0.002 C 
ATOM     25  C   UNL     1      34.145 -20.492 -20.005  0.00  0.00    -0.002 C 
ATOM     26  C   UNL     1      36.531 -20.161 -19.813  0.00  0.00    -0.002 C 
ATOM     27  C   UNL     1      34.050 -19.348 -20.797  0.00  0.00    +0.011 C 
ATOM     28  C   UNL     1      36.435 -19.017 -20.605  0.00  0.00    +0.011 C 
ATOM     29  C   UNL     1      35.195 -18.611 -21.097  0.00  0.00    +0.058 C 
ENDBRANCH  22  24
ENDBRANCH   2  22
TORSDOF 4
ENDMDL
MODEL 3
REMARK VINA RESULT:     -11.6      1.513      5.479
REMARK  Name = 24779676
REMARK  4 active torsions:
REMARK  status: ('A' for Active; 'I' for Inactive)
REMARK    1  A    between atoms: N_2  and  C_22
REMARK    2  A    between atoms: N_3  and  C_14
REMARK    3  A    between atoms: C_10  and  C_21
REMARK    4  A    between atoms: C_22  and  C_24
REMARK                            x       y       z     vdW  Elec       q    Type
REMARK                         _______ _______ _______ _____ _____    ______ ____
ROOT
ATOM      1  N   UNL     1      33.985 -23.875 -14.286  0.00  0.00    -0.123 N 
ATOM      2  N   UNL     1      34.249 -22.371 -17.987  0.00  0.00    -0.254 N 
ATOM      3  N   UNL     1      31.625 -23.822 -14.327  0.00  0.00    -0.274 N 
ATOM      4  N   UNL     1      32.933 -23.093 -16.163  0.00  0.00    -0.295 NA
ATOM      5  N   UNL     1      35.320 -23.161 -16.086  0.00  0.00    -0.314 NA
ATOM      6  N   UNL     1      34.015 -24.383 -13.042  0.00  0.00    -0.170 NA
ATOM      7  C   UNL     1      32.812 -23.582 -14.963  0.00  0.00    +0.279 C 
ATOM      8  C   UNL     1      35.216 -23.668 -14.837  0.00  0.00    +0.219 C 
ATOM      9  C   UNL     1      34.198 -22.888 -16.713  0.00  0.00    +0.203 C 
ATOM     10  C   UNL     1      36.119 -24.071 -13.880  0.00  0.00    +0.203 C 
ATOM     11  C   UNL     1      35.324 -24.501 -12.799  0.00  0.00    +0.116 C 
ATOM     12  H   UNL     1      33.406 -22.168 -18.453  0.00  0.00    +0.161 HD
ATOM     13  H   UNL     1      31.680 -24.194 -13.417  0.00  0.00    +0.156 HD
ENDROOT
BRANCH   3  14
ATOM     14  C   UNL     1      30.342 -23.595 -14.830  0.00  0.00    +0.051 C 
ATOM     15  C   UNL     1      29.724 -24.560 -15.625  0.00  0.00    +0.015 C 
ATOM     16  C   UNL     1      29.680 -22.402 -14.539  0.00  0.00    +0.015 C 
ATOM     17  C   UNL     1      28.442 -24.332 -16.127  0.00  0.00    +0.001 C 
ATOM     18  C   UNL     1      28.398 -22.175 -15.040  0.00  0.00    +0.001 C 
ATOM     19  C   UNL     1      27.779 -23.140 -15.834  0.00  0.00    +0.000 C 
ENDBRANCH   3  14
BRANCH  10  21
ATOM     20  N   UNL     1      38.693 -24.030 -14.070  0.00  0.00    -0.195 NA
ATOM     21  C   UNL     1      37.536 -24.048 -13.985  0.00  0.00    +0.087 C 
ENDBRANCH  10  21
BRANCH   2  22
ATOM     22  C   UNL     1      35.486 -22.118 -18.654  0.00  0.00    +0.125 C 
BRANCH  22  24
ATOM     23 CL   UNL     1      35.065 -17.192 -22.078  0.00  0.00    -0.082 Cl
ATOM     24  C   UNL     1      35.381 -20.886 -19.509  0.00  0.00    -0.002 C 
ATOM     25  C   UNL     1      36.525 -20.147 -19.812  0.00  0.00    -0.002 C 
ATOM     26  C   UNL     1      34.139 -20.483 -20.002  0.00  0.00    -0.002 C 
ATOM     27  C   UNL     1      36.426 -19.004 -20.607  0.00  0.00    +0.011 C 
ATOM     28  C   UNL     1      34.042 -19.341 -20.796  0.00  0.00    +0.011 C 
ATOM     29  C   UNL     1      35.185 -18.602 -21.098  0.00  0.00    +0.058 C 
ENDBRANCH  22  24
ENDBRANCH   2  22
TORSDOF 4
ENDMDL
MODEL 4
REMARK VINA RESULT:     -11.3      1.759      5.486
REMARK  Name = 24779676
REMARK  4 active torsions:
REMARK  status: ('A' for Active; 'I' for Inactive)
REMARK    1  A    between atoms: N_2  and  C_22
REMARK    2  A    between atoms: N_3  and  C_14
REMARK    3  A    between atoms: C_10  and  C_21
REMARK    4  A    between atoms: C_22  and  C_24
REMARK                            x       y       z     vdW  Elec       q    Type
REMARK                         _______ _______ _______ _____ _____    ______ ____
ROOT
ATOM      1  N   UNL     1      35.992 -24.599 -13.777  0.00  0.00    -0.123 N 
ATOM      2  N   UNL     1      35.659 -22.162 -16.935  0.00  0.00    -0.254 N 
ATOM      3  N   UNL     1      33.663 -24.580 -13.392  0.00  0.00    -0.274 N 
ATOM      4  N   UNL     1      34.657 -23.366 -15.168  0.00  0.00    -0.295 NA
ATOM      5  N   UNL     1      37.018 -23.409 -15.527  0.00  0.00    -0.314 NA
ATOM      6  N   UNL     1      36.222 -25.419 -12.737  0.00  0.00    -0.170 NA
ATOM      7  C   UNL     1      34.729 -24.158 -14.138  0.00  0.00    +0.279 C 
ATOM      8  C   UNL     1      37.116 -24.231 -14.459  0.00  0.00    +0.219 C 
ATOM      9  C   UNL     1      35.813 -22.999 -15.855  0.00  0.00    +0.203 C 
ATOM     10  C   UNL     1      38.159 -24.857 -13.815  0.00  0.00    +0.203 C 
ATOM     11  C   UNL     1      37.549 -25.573 -12.765  0.00  0.00    +0.116 C 
ATOM     12  H   UNL     1      34.754 -21.857 -17.178  0.00  0.00    +0.161 HD
ATOM     13  H   UNL     1      33.863 -25.180 -12.637  0.00  0.00    +0.156 HD
ENDROOT
BRANCH   3  14
ATOM     14  C   UNL     1      32.320 -24.251 -13.587  0.00  0.00    +0.051 C 
ATOM     15  C   UNL     1      31.957 -22.930 -13.852  0.00  0.00    +0.015 C 
ATOM     16  C   UNL     1      31.342 -25.242 -13.514  0.00  0.00    +0.015 C 
ATOM     17  C   UNL     1      30.615 -22.602 -14.047  0.00  0.00    +0.001 C 
ATOM     18  C   UNL     1      30.000 -24.914 -13.710  0.00  0.00    +0.001 C 
ATOM     19  C   UNL     1      29.637 -23.594 -13.975  0.00  0.00    +0.000 C 
ENDBRANCH   3  14
BRANCH  10  21
ATOM     20  N   UNL     1      40.661 -24.721 -14.431  0.00  0.00    -0.195 NA
ATOM     21  C   UNL     1      39.536 -24.782 -14.154  0.00  0.00    +0.087 C 
ENDBRANCH  10  21
BRANCH   2  22
ATOM     22  C   UNL     1      36.770 -21.718 -17.716  0.00  0.00    +0.125 C 
BRANCH  22  24
ATOM     23 CL   UNL     1      34.887 -18.380 -22.351  0.00  0.00    -0.082 Cl
ATOM     24  C   UNL     1      36.299 -20.883 -18.874  0.00  0.00    -0.002 C 
ATOM     25  C   UNL     1      37.171 -19.981 -19.485  0.00  0.00    -0.002 C 
ATOM     26  C   UNL     1      34.990 -21.011 -19.340  0.00  0.00    -0.002 C 
ATOM     27  C   UNL     1      36.734 -19.207 -20.559  0.00  0.00    +0.011 C 
ATOM     28  C   UNL     1      34.554 -20.237 -20.415  0.00  0.00    +0.011 C 
ATOM     29  C   UNL     1      35.426 -19.336 -21.025  0.00  0.00    +0.058 C 
ENDBRANCH  22  24
ENDBRANCH   2  22
TORSDOF 4
ENDMDL
MODEL 5
REMARK VINA RESULT:     -10.2      2.634      6.840
REMARK  Name = 24779676
REMARK  4 active torsions:
REMARK  status: ('A' for Active; 'I' for Inactive)
REMARK    1  A    between atoms: N_2  and  C_22
REMARK    2  A    between atoms: N_3  and  C_14
REMARK    3  A    between atoms: C_10  and  C_21
REMARK    4  A    between atoms: C_22  and  C_24
REMARK                            x       y       z     vdW  Elec       q    Type
REMARK                         _______ _______ _______ _____ _____    ______ ____
ROOT
ATOM      1  N   UNL     1      31.459 -22.832 -16.441  0.00  0.00    -0.123 N 
ATOM      2  N   UNL     1      35.079 -23.768 -15.013  0.00  0.00    -0.254 N 
ATOM      3  N   UNL     1      32.377 -21.654 -18.270  0.00  0.00    -0.274 N 
ATOM      4  N   UNL     1      33.736 -22.710 -16.642  0.00  0.00    -0.295 NA
ATOM      5  N   UNL     1      32.771 -23.893 -14.803  0.00  0.00    -0.314 NA
ATOM      6  N   UNL     1      30.196 -22.578 -16.829  0.00  0.00    -0.170 NA
ATOM      7  C   UNL     1      32.574 -22.389 -17.134  0.00  0.00    +0.279 C 
ATOM      8  C   UNL     1      31.555 -23.570 -15.297  0.00  0.00    +0.219 C 
ATOM      9  C   UNL     1      33.819 -23.465 -15.472  0.00  0.00    +0.203 C 
ATOM     10  C   UNL     1      30.259 -23.816 -14.907  0.00  0.00    +0.203 C 
ATOM     11  C   UNL     1      29.467 -23.182 -15.886  0.00  0.00    +0.116 C 
ATOM     12  H   UNL     1      35.861 -23.445 -15.517  0.00  0.00    +0.161 HD
ATOM     13  H   UNL     1      31.442 -21.485 -18.528  0.00  0.00    +0.156 HD
ENDROOT
BRANCH   3  14
ATOM     14  C   UNL     1      33.359 -21.117 -19.104  0.00  0.00    +0.051 C 
ATOM     15  C   UNL     1      33.006 -20.212 -20.105  0.00  0.00    +0.015 C 
ATOM     16  C   UNL     1      34.694 -21.485 -18.935  0.00  0.00    +0.015 C 
ATOM     17  C   UNL     1      33.989 -19.675 -20.937  0.00  0.00    +0.001 C 
ATOM     18  C   UNL     1      35.677 -20.948 -19.767  0.00  0.00    +0.001 C 
ATOM     19  C   UNL     1      35.324 -20.043 -20.768  0.00  0.00    +0.000 C 
ENDBRANCH   3  14
BRANCH  10  21
ATOM     20  N   UNL     1      29.494 -25.149 -12.834  0.00  0.00    -0.195 NA
ATOM     21  C   UNL     1      29.838 -24.549 -13.767  0.00  0.00    +0.087 C 
ENDBRANCH  10  21
BRANCH   2  22
ATOM     22  C   UNL     1      35.290 -24.535 -13.826  0.00  0.00    +0.125 C 
BRANCH  22  24
ATOM     23 CL   UNL     1      40.965 -26.511 -13.579  0.00  0.00    -0.082 Cl
ATOM     24  C   UNL     1      36.708 -25.030 -13.764  0.00  0.00    -0.002 C 
ATOM     25  C   UNL     1      37.078 -26.182 -14.459  0.00  0.00    -0.002 C 
ATOM     26  C   UNL     1      37.657 -24.335 -13.012  0.00  0.00    -0.002 C 
ATOM     27  C   UNL     1      38.394 -26.639 -14.401  0.00  0.00    +0.011 C 
ATOM     28  C   UNL     1      38.973 -24.793 -12.955  0.00  0.00    +0.011 C 
ATOM     29  C   UNL     1      39.341 -25.945 -13.650  0.00  0.00    +0.058 C 
ENDBRANCH  22  24
ENDBRANCH   2  22
TORSDOF 4
ENDMDL
MODEL 6
REMARK VINA RESULT:      -9.9      3.046      7.452
REMARK  Name = 24779676
REMARK  4 active torsions:
REMARK  status: ('A' for Active; 'I' for Inactive)
REMARK    1  A    between atoms: N_2  and  C_22
REMARK    2  A    between atoms: N_3  and  C_14
REMARK    3  A    between atoms: C_10  and  C_21
REMARK    4  A    between atoms: C_22  and  C_24
REMARK                            x       y       z     vdW  Elec       q    Type
REMARK                         _______ _______ _______ _____ _____    ______ ____
ROOT
ATOM      1  N   UNL     1      36.382 -22.669 -16.089  0.00  0.00    -0.123 N 
ATOM      2  N   UNL     1      32.424 -23.177 -16.404  0.00  0.00    -0.254 N 
ATOM      3  N   UNL     1      36.462 -21.320 -18.025  0.00  0.00    -0.274 N 
ATOM      4  N   UNL     1      34.436 -22.247 -17.218  0.00  0.00    -0.295 NA
ATOM      5  N   UNL     1      34.393 -23.609 -15.256  0.00  0.00    -0.314 NA
ATOM      6  N   UNL     1      37.707 -22.566 -15.885  0.00  0.00    -0.170 NA
ATOM      7  C   UNL     1      35.722 -22.061 -17.145  0.00  0.00    +0.279 C 
ATOM      8  C   UNL     1      35.729 -23.429 -15.162  0.00  0.00    +0.219 C 
ATOM      9  C   UNL     1      33.783 -23.026 -16.264  0.00  0.00    +0.203 C 
ATOM     10  C   UNL     1      36.702 -23.856 -14.286  0.00  0.00    +0.203 C 
ATOM     11  C   UNL     1      37.897 -23.295 -14.781  0.00  0.00    +0.116 C 
ATOM     12  H   UNL     1      31.970 -22.738 -17.161  0.00  0.00    +0.161 HD
ATOM     13  H   UNL     1      37.429 -21.263 -17.849  0.00  0.00    +0.156 HD
ENDROOT
BRANCH   3  14
ATOM     14  C   UNL     1      35.992 -20.635 -19.147  0.00  0.00    +0.051 C 
ATOM     15  C   UNL     1      36.837 -19.766 -19.838  0.00  0.00    +0.015 C 
ATOM     16  C   UNL     1      34.678 -20.819 -19.577  0.00  0.00    +0.015 C 
ATOM     17  C   UNL     1      36.368 -19.083 -20.960  0.00  0.00    +0.001 C 
ATOM     18  C   UNL     1      34.209 -20.135 -20.699  0.00  0.00    +0.001 C 
ATOM     19  C   UNL     1      35.054 -19.267 -21.390  0.00  0.00    +0.000 C 
ENDBRANCH   3  14
BRANCH  10  21
ATOM     20  N   UNL     1      36.363 -25.352 -12.210  0.00  0.00    -0.195 NA
ATOM     21  C   UNL     1      36.516 -24.679 -13.144  0.00  0.00    +0.087 C 
ENDBRANCH  10  21
BRANCH   2  22
ATOM     22  C   UNL     1      31.647 -23.951 -15.488  0.00  0.00    +0.125 C 
BRANCH  22  24
ATOM     23 CL   UNL     1      25.970 -21.971 -15.346  0.00  0.00    -0.082 Cl
ATOM     24  C   UNL     1      30.228 -23.456 -15.452  0.00  0.00    -0.002 C 
ATOM     25  C   UNL     1      29.817 -22.584 -14.443  0.00  0.00    -0.002 C 
ATOM     26  C   UNL     1      29.321 -23.868 -16.429  0.00  0.00    -0.002 C 
ATOM     27  C   UNL     1      28.501 -22.125 -14.411  0.00  0.00    +0.011 C 
ATOM     28  C   UNL     1      28.004 -23.409 -16.396  0.00  0.00    +0.011 C 
ATOM     29  C   UNL     1      27.595 -22.537 -15.387  0.00  0.00    +0.058 C 
ENDBRANCH  22  24
ENDBRANCH   2  22
TORSDOF 4
ENDMDL
