MODEL 1
REMARK VINA RESULT:     -10.9      0.000      0.000
REMARK  Name = 9863827
REMARK  4 active torsions:
REMARK  status: ('A' for Active; 'I' for Inactive)
REMARK    1  A    between atoms: N_2  and  C_23
REMARK    2  A    between atoms: C_7  and  C_27
REMARK    3  A    between atoms: C_9  and  C_15
REMARK    4  A    between atoms: C_27  and  O_28
REMARK                            x       y       z     vdW  Elec       q    Type
REMARK                         _______ _______ _______ _____ _____    ______ ____
ROOT
ATOM      1  O   UNL     1      34.201 -15.021 -26.234  0.00  0.00    -0.286 OA
ATOM      2  N   UNL     1      33.956 -14.086 -22.273  0.00  0.00    -0.287 N 
ATOM      3  C   UNL     1      34.301 -15.420 -22.631  0.00  0.00    +0.051 C 
ATOM      4  C   UNL     1      33.717 -13.154 -23.263  0.00  0.00    +0.075 C 
ATOM      5  C   UNL     1      34.394 -15.771 -23.996  0.00  0.00    +0.053 C 
ATOM      6  C   UNL     1      34.558 -16.419 -21.677  0.00  0.00    -0.008 C 
ATOM      7  C   UNL     1      33.777 -13.381 -24.581  0.00  0.00    +0.129 C 
ATOM      8  C   UNL     1      34.131 -14.748 -25.041  0.00  0.00    +0.204 C 
ATOM      9  C   UNL     1      34.894 -17.717 -22.069  0.00  0.00    -0.001 C 
ATOM     10  C   UNL     1      34.731 -17.074 -24.386  0.00  0.00    +0.004 C 
ATOM     11  C   UNL     1      34.495 -16.184 -20.198  0.00  0.00    +0.032 C 
ATOM     12  C   UNL     1      34.981 -18.043 -23.420  0.00  0.00    -0.000 C 
ENDROOT
BRANCH   9  15
ATOM     13  N   UNL     1      36.752 -19.883 -19.671  0.00  0.00    -0.230 NA
ATOM     14  N   UNL     1      36.045 -21.700 -18.320  0.00  0.00    -0.317 N 
ATOM     15  C   UNL     1      35.164 -18.761 -21.097  0.00  0.00    +0.019 C 
ATOM     16  C   UNL     1      34.155 -19.608 -20.666  0.00  0.00    +0.000 C 
ATOM     17  C   UNL     1      36.433 -18.932 -20.578  0.00  0.00    +0.100 C 
ATOM     18  C   UNL     1      34.443 -20.598 -19.733  0.00  0.00    +0.010 C 
ATOM     19  C   UNL     1      35.746 -20.694 -19.271  0.00  0.00    +0.124 C 
ATOM     20  C   UNL     1      33.360 -21.510 -19.269  0.00  0.00    +0.034 C 
ATOM     21  C   UNL     1      37.070 -21.554 -17.339  0.00  0.00    +0.110 C 
ATOM     22  H   UNL     1      35.524 -22.536 -18.337  0.00  0.00    +0.148 HD
ENDBRANCH   9  15
BRANCH   2  23
ATOM     23  C   UNL     1      33.828 -13.597 -20.880  0.00  0.00    +0.077 C 
ATOM     24  C   UNL     1      33.113 -12.322 -20.582  0.00  0.00    +0.022 C 
ATOM     25  C   UNL     1      32.514 -13.636 -20.177  0.00  0.00    +0.022 C 
ENDBRANCH   2  23
BRANCH   7  27
ATOM     26  O   UNL     1      34.036 -11.183 -25.448  0.00  0.00    -0.245 OA
ATOM     27  C   UNL     1      33.492 -12.272 -25.493  0.00  0.00    +0.342 C 
BRANCH  27  28
ATOM     28  O   UNL     1      32.544 -12.645 -26.378  0.00  0.00    -0.477 OA
ATOM     29  H   UNL     1      31.965 -12.006 -26.743  0.00  0.00    +0.295 HD
ENDBRANCH  27  28
ENDBRANCH   7  27
TORSDOF 4
ENDMDL
MODEL 2
REMARK VINA RESULT:     -10.3      7.124     11.563
REMARK  Name = 9863827
REMARK  4 active torsions:
REMARK  status: ('A' for Active; 'I' for Inactive)
REMARK    1  A    between atoms: N_2  and  C_23
REMARK    2  A    between atoms: C_7  and  C_27
REMARK    3  A    between atoms: C_9  and  C_15
REMARK    4  A    between atoms: C_27  and  O_28
REMARK                            x       y       z     vdW  Elec       q    Type
REMARK                         _______ _______ _______ _____ _____    ______ ____
ROOT
ATOM      1  O   UNL     1      38.333 -23.951 -13.193  0.00  0.00    -0.286 OA
ATOM      2  N   UNL     1      34.388 -24.024 -14.220  0.00  0.00    -0.287 N 
ATOM      3  C   UNL     1      35.296 -23.344 -15.080  0.00  0.00    +0.051 C 
ATOM      4  C   UNL     1      34.860 -24.634 -13.075  0.00  0.00    +0.075 C 
ATOM      5  C   UNL     1      36.669 -23.304 -14.749  0.00  0.00    +0.053 C 
ATOM      6  C   UNL     1      34.887 -22.702 -16.260  0.00  0.00    -0.008 C 
ATOM      7  C   UNL     1      36.135 -24.656 -12.670  0.00  0.00    +0.129 C 
ATOM      8  C   UNL     1      37.149 -23.969 -13.510  0.00  0.00    +0.204 C 
ATOM      9  C   UNL     1      35.810 -22.045 -17.079  0.00  0.00    -0.001 C 
ATOM     10  C   UNL     1      37.592 -22.645 -15.571  0.00  0.00    +0.004 C 
ATOM     11  C   UNL     1      33.463 -22.667 -16.730  0.00  0.00    +0.032 C 
ATOM     12  C   UNL     1      37.158 -22.018 -16.735  0.00  0.00    -0.000 C 
ENDROOT
BRANCH   9  15
ATOM     13  N   UNL     1      36.034 -20.185 -20.301  0.00  0.00    -0.230 NA
ATOM     14  N   UNL     1      34.361 -19.452 -21.813  0.00  0.00    -0.317 N 
ATOM     15  C   UNL     1      35.403 -21.377 -18.302  0.00  0.00    +0.019 C 
ATOM     16  C   UNL     1      34.065 -21.284 -18.649  0.00  0.00    +0.000 C 
ATOM     17  C   UNL     1      36.344 -20.821 -19.148  0.00  0.00    +0.100 C 
ATOM     18  C   UNL     1      33.707 -20.638 -19.828  0.00  0.00    +0.010 C 
ATOM     19  C   UNL     1      34.721 -20.110 -20.612  0.00  0.00    +0.124 C 
ATOM     20  C   UNL     1      32.268 -20.536 -20.203  0.00  0.00    +0.034 C 
ATOM     21  C   UNL     1      35.210 -19.421 -22.959  0.00  0.00    +0.110 C 
ATOM     22  H   UNL     1      33.489 -18.996 -21.860  0.00  0.00    +0.148 HD
ENDBRANCH   9  15
BRANCH   2  23
ATOM     23  C   UNL     1      32.930 -24.136 -14.459  0.00  0.00    +0.077 C 
ATOM     24  C   UNL     1      32.040 -24.789 -13.455  0.00  0.00    +0.022 C 
ATOM     25  C   UNL     1      31.964 -23.308 -13.680  0.00  0.00    +0.022 C 
ENDBRANCH   2  23
BRANCH   7  27
ATOM     26  O   UNL     1      35.845 -25.225 -10.380  0.00  0.00    -0.245 OA
ATOM     27  C   UNL     1      36.459 -25.354 -11.424  0.00  0.00    +0.342 C 
BRANCH  27  28
ATOM     28  O   UNL     1      37.534 -26.147 -11.616  0.00  0.00    -0.477 OA
ATOM     29  H   UNL     1      38.221 -25.875 -12.191  0.00  0.00    +0.295 HD
ENDBRANCH  27  28
ENDBRANCH   7  27
TORSDOF 4
ENDMDL
MODEL 3
REMARK VINA RESULT:      -9.4      6.524     10.734
REMARK  Name = 9863827
REMARK  4 active torsions:
REMARK  status: ('A' for Active; 'I' for Inactive)
REMARK    1  A    between atoms: N_2  and  C_23
REMARK    2  A    between atoms: C_7  and  C_27
REMARK    3  A    between atoms: C_9  and  C_15
REMARK    4  A    between atoms: C_27  and  O_28
REMARK                            x       y       z     vdW  Elec       q    Type
REMARK                         _______ _______ _______ _____ _____    ______ ____
ROOT
ATOM      1  O   UNL     1      37.571 -23.277 -13.806  0.00  0.00    -0.286 OA
ATOM      2  N   UNL     1      33.906 -23.378 -15.590  0.00  0.00    -0.287 N 
ATOM      3  C   UNL     1      34.959 -22.684 -16.251  0.00  0.00    +0.051 C 
ATOM      4  C   UNL     1      34.149 -23.992 -14.377  0.00  0.00    +0.075 C 
ATOM      5  C   UNL     1      36.239 -22.634 -15.656  0.00  0.00    +0.053 C 
ATOM      6  C   UNL     1      34.783 -22.037 -17.485  0.00  0.00    -0.008 C 
ATOM      7  C   UNL     1      35.320 -24.005 -13.729  0.00  0.00    +0.129 C 
ATOM      8  C   UNL     1      36.473 -23.304 -14.350  0.00  0.00    +0.204 C 
ATOM      9  C   UNL     1      35.843 -21.367 -18.102  0.00  0.00    -0.001 C 
ATOM     10  C   UNL     1      37.299 -21.961 -16.276  0.00  0.00    +0.004 C 
ATOM     11  C   UNL     1      33.480 -22.012 -18.226  0.00  0.00    +0.032 C 
ATOM     12  C   UNL     1      37.097 -21.329 -17.500  0.00  0.00    -0.000 C 
ENDROOT
BRANCH   9  15
ATOM     13  N   UNL     1      34.296 -20.242 -21.302  0.00  0.00    -0.230 NA
ATOM     14  N   UNL     1      35.101 -18.822 -23.024  0.00  0.00    -0.317 N 
ATOM     15  C   UNL     1      35.678 -20.694 -19.378  0.00  0.00    +0.019 C 
ATOM     16  C   UNL     1      36.684 -19.890 -19.892  0.00  0.00    +0.000 C 
ATOM     17  C   UNL     1      34.514 -20.839 -20.108  0.00  0.00    +0.100 C 
ATOM     18  C   UNL     1      36.497 -19.258 -21.116  0.00  0.00    +0.010 C 
ATOM     19  C   UNL     1      35.296 -19.465 -21.776  0.00  0.00    +0.124 C 
ATOM     20  C   UNL     1      37.577 -18.393 -21.671  0.00  0.00    +0.034 C 
ATOM     21  C   UNL     1      33.813 -18.428 -23.494  0.00  0.00    +0.110 C 
ATOM     22  H   UNL     1      35.886 -18.641 -23.590  0.00  0.00    +0.148 HD
ENDBRANCH   9  15
BRANCH   2  23
ATOM     23  C   UNL     1      32.524 -23.501 -16.111  0.00  0.00    +0.077 C 
ATOM     24  C   UNL     1      31.470 -24.202 -15.322  0.00  0.00    +0.022 C 
ATOM     25  C   UNL     1      31.409 -22.714 -15.508  0.00  0.00    +0.022 C 
ENDBRANCH   2  23
BRANCH   7  27
ATOM     26  O   UNL     1      34.751 -24.417 -11.458  0.00  0.00    -0.245 OA
ATOM     27  C   UNL     1      35.400 -24.708 -12.447  0.00  0.00    +0.342 C 
BRANCH  27  28
ATOM     28  O   UNL     1      36.295 -25.714 -12.538  0.00  0.00    -0.477 OA
ATOM     29  H   UNL     1      37.041 -25.730 -11.972  0.00  0.00    +0.295 HD
ENDBRANCH  27  28
ENDBRANCH   7  27
TORSDOF 4
ENDMDL
MODEL 4
REMARK VINA RESULT:      -9.4      3.657      6.265
REMARK  Name = 9863827
REMARK  4 active torsions:
REMARK  status: ('A' for Active; 'I' for Inactive)
REMARK    1  A    between atoms: N_2  and  C_23
REMARK    2  A    between atoms: C_7  and  C_27
REMARK    3  A    between atoms: C_9  and  C_15
REMARK    4  A    between atoms: C_27  and  O_28
REMARK                            x       y       z     vdW  Elec       q    Type
REMARK                         _______ _______ _______ _____ _____    ______ ____
ROOT
ATOM      1  O   UNL     1      33.460  -7.179 -23.930  0.00  0.00    -0.286 OA
ATOM      2  N   UNL     1      31.836  -9.630 -21.106  0.00  0.00    -0.287 N 
ATOM      3  C   UNL     1      32.679 -10.208 -22.097  0.00  0.00    +0.051 C 
ATOM      4  C   UNL     1      31.592  -8.271 -21.126  0.00  0.00    +0.075 C 
ATOM      5  C   UNL     1      33.256  -9.382 -23.087  0.00  0.00    +0.053 C 
ATOM      6  C   UNL     1      32.970 -11.582 -22.137  0.00  0.00    -0.008 C 
ATOM      7  C   UNL     1      32.086  -7.402 -22.016  0.00  0.00    +0.129 C 
ATOM      8  C   UNL     1      32.976  -7.922 -23.085  0.00  0.00    +0.204 C 
ATOM      9  C   UNL     1      33.803 -12.111 -23.127  0.00  0.00    -0.001 C 
ATOM     10  C   UNL     1      34.091  -9.915 -24.077  0.00  0.00    +0.004 C 
ATOM     11  C   UNL     1      32.426 -12.571 -21.150  0.00  0.00    +0.032 C 
ATOM     12  C   UNL     1      34.363 -11.280 -24.093  0.00  0.00    -0.000 C 
ENDROOT
BRANCH   9  15
ATOM     13  N   UNL     1      35.203 -15.435 -22.186  0.00  0.00    -0.230 NA
ATOM     14  N   UNL     1      35.062 -17.556 -23.239  0.00  0.00    -0.317 N 
ATOM     15  C   UNL     1      34.115 -13.528 -23.183  0.00  0.00    +0.019 C 
ATOM     16  C   UNL     1      33.655 -14.316 -24.226  0.00  0.00    +0.000 C 
ATOM     17  C   UNL     1      34.876 -14.123 -22.195  0.00  0.00    +0.100 C 
ATOM     18  C   UNL     1      33.969 -15.670 -24.252  0.00  0.00    +0.010 C 
ATOM     19  C   UNL     1      34.740 -16.176 -23.217  0.00  0.00    +0.124 C 
ATOM     20  C   UNL     1      33.477 -16.519 -25.373  0.00  0.00    +0.034 C 
ATOM     21  C   UNL     1      35.270 -18.317 -22.051  0.00  0.00    +0.110 C 
ATOM     22  H   UNL     1      35.147 -18.008 -24.110  0.00  0.00    +0.148 HD
ENDBRANCH   9  15
BRANCH   2  23
ATOM     23  C   UNL     1      31.174 -10.390 -20.019  0.00  0.00    +0.077 C 
ATOM     24  C   UNL     1      31.847 -10.577 -18.701  0.00  0.00    +0.022 C 
ATOM     25  C   UNL     1      30.642  -9.690 -18.815  0.00  0.00    +0.022 C 
ENDBRANCH   2  23
BRANCH   7  27
ATOM     26  O   UNL     1      30.584  -5.579 -21.753  0.00  0.00    -0.245 OA
ATOM     27  C   UNL     1      31.723  -5.989 -21.886  0.00  0.00    +0.342 C 
BRANCH  27  28
ATOM     28  O   UNL     1      32.836  -5.228 -21.940  0.00  0.00    -0.477 OA
ATOM     29  H   UNL     1      32.773  -4.321 -22.162  0.00  0.00    +0.295 HD
ENDBRANCH  27  28
ENDBRANCH   7  27
TORSDOF 4
ENDMDL
MODEL 5
REMARK VINA RESULT:      -8.6      5.905     10.275
REMARK  Name = 9863827
REMARK  4 active torsions:
REMARK  status: ('A' for Active; 'I' for Inactive)
REMARK    1  A    between atoms: N_2  and  C_23
REMARK    2  A    between atoms: C_7  and  C_27
REMARK    3  A    between atoms: C_9  and  C_15
REMARK    4  A    between atoms: C_27  and  O_28
REMARK                            x       y       z     vdW  Elec       q    Type
REMARK                         _______ _______ _______ _____ _____    ______ ____
ROOT
ATOM      1  O   UNL     1      31.381 -23.633 -15.493  0.00  0.00    -0.286 OA
ATOM      2  N   UNL     1      35.374 -22.923 -15.910  0.00  0.00    -0.287 N 
ATOM      3  C   UNL     1      34.487 -22.383 -16.885  0.00  0.00    +0.051 C 
ATOM      4  C   UNL     1      34.866 -23.664 -14.861  0.00  0.00    +0.075 C 
ATOM      5  C   UNL     1      33.099 -22.613 -16.764  0.00  0.00    +0.053 C 
ATOM      6  C   UNL     1      34.934 -21.621 -17.976  0.00  0.00    -0.008 C 
ATOM      7  C   UNL     1      33.572 -23.940 -14.654  0.00  0.00    +0.129 C 
ATOM      8  C   UNL     1      32.579 -23.414 -15.625  0.00  0.00    +0.204 C 
ATOM      9  C   UNL     1      34.031 -21.108 -18.912  0.00  0.00    -0.001 C 
ATOM     10  C   UNL     1      32.196 -22.098 -17.703  0.00  0.00    +0.004 C 
ATOM     11  C   UNL     1      36.378 -21.302 -18.225  0.00  0.00    +0.032 C 
ATOM     12  C   UNL     1      32.667 -21.345 -18.775  0.00  0.00    -0.000 C 
ENDROOT
BRANCH   9  15
ATOM     13  N   UNL     1      33.945 -19.242 -22.137  0.00  0.00    -0.230 NA
ATOM     14  N   UNL     1      35.633 -18.070 -23.322  0.00  0.00    -0.317 N 
ATOM     15  C   UNL     1      34.476 -20.318 -20.046  0.00  0.00    +0.019 C 
ATOM     16  C   UNL     1      35.791 -19.890 -20.142  0.00  0.00    +0.000 C 
ATOM     17  C   UNL     1      33.597 -19.974 -21.055  0.00  0.00    +0.100 C 
ATOM     18  C   UNL     1      36.187 -19.134 -21.239  0.00  0.00    +0.010 C 
ATOM     19  C   UNL     1      35.234 -18.840 -22.202  0.00  0.00    +0.124 C 
ATOM     20  C   UNL     1      37.600 -18.673 -21.345  0.00  0.00    +0.034 C 
ATOM     21  C   UNL     1      34.739 -17.201 -24.017  0.00  0.00    +0.110 C 
ATOM     22  H   UNL     1      36.564 -18.137 -23.635  0.00  0.00    +0.148 HD
ENDBRANCH   9  15
BRANCH   2  23
ATOM     23  C   UNL     1      36.845 -22.751 -15.927  0.00  0.00    +0.077 C 
ATOM     24  C   UNL     1      37.539 -22.004 -14.838  0.00  0.00    +0.022 C 
ATOM     25  C   UNL     1      37.710 -23.489 -14.961  0.00  0.00    +0.022 C 
ENDBRANCH   2  23
BRANCH   7  27
ATOM     26  O   UNL     1      33.705 -24.616 -12.379  0.00  0.00    -0.245 OA
ATOM     27  C   UNL     1      33.209 -24.742 -13.484  0.00  0.00    +0.342 C 
BRANCH  27  28
ATOM     28  O   UNL     1      32.254 -25.633 -13.825  0.00  0.00    -0.477 OA
ATOM     29  H   UNL     1      31.380 -25.529 -13.505  0.00  0.00    +0.295 HD
ENDBRANCH  27  28
ENDBRANCH   7  27
TORSDOF 4
ENDMDL
MODEL 6
REMARK VINA RESULT:      -8.5      3.210      5.524
REMARK  Name = 9863827
REMARK  4 active torsions:
REMARK  status: ('A' for Active; 'I' for Inactive)
REMARK    1  A    between atoms: N_2  and  C_23
REMARK    2  A    between atoms: C_7  and  C_27
REMARK    3  A    between atoms: C_9  and  C_15
REMARK    4  A    between atoms: C_27  and  O_28
REMARK                            x       y       z     vdW  Elec       q    Type
REMARK                         _______ _______ _______ _____ _____    ______ ____
ROOT
ATOM      1  O   UNL     1      34.189  -8.161 -24.443  0.00  0.00    -0.286 OA
ATOM      2  N   UNL     1      32.429 -10.224 -21.399  0.00  0.00    -0.287 N 
ATOM      3  C   UNL     1      33.157 -10.957 -22.378  0.00  0.00    +0.051 C 
ATOM      4  C   UNL     1      32.338  -8.850 -21.503  0.00  0.00    +0.075 C 
ATOM      5  C   UNL     1      33.778 -10.268 -23.443  0.00  0.00    +0.053 C 
ATOM      6  C   UNL     1      33.290 -12.355 -22.335  0.00  0.00    -0.008 C 
ATOM      7  C   UNL     1      32.887  -8.102 -22.468  0.00  0.00    +0.129 C 
ATOM      8  C   UNL     1      33.664  -8.789 -23.531  0.00  0.00    +0.204 C 
ATOM      9  C   UNL     1      34.014 -13.038 -23.316  0.00  0.00    -0.001 C 
ATOM     10  C   UNL     1      34.503 -10.955 -24.425  0.00  0.00    +0.004 C 
ATOM     11  C   UNL     1      32.683 -13.209 -21.262  0.00  0.00    +0.032 C 
ATOM     12  C   UNL     1      34.619 -12.341 -24.357  0.00  0.00    -0.000 C 
ENDROOT
BRANCH   9  15
ATOM     13  N   UNL     1      33.840 -16.606 -24.382  0.00  0.00    -0.230 NA
ATOM     14  N   UNL     1      34.535 -18.604 -23.309  0.00  0.00    -0.317 N 
ATOM     15  C   UNL     1      34.162 -14.482 -23.285  0.00  0.00    +0.019 C 
ATOM     16  C   UNL     1      34.737 -15.115 -22.195  0.00  0.00    +0.000 C 
ATOM     17  C   UNL     1      33.733 -15.258 -24.346  0.00  0.00    +0.100 C 
ATOM     18  C   UNL     1      34.866 -16.499 -22.196  0.00  0.00    +0.010 C 
ATOM     19  C   UNL     1      34.405 -17.193 -23.304  0.00  0.00    +0.124 C 
ATOM     20  C   UNL     1      35.484 -17.182 -21.024  0.00  0.00    +0.034 C 
ATOM     21  C   UNL     1      34.701 -19.357 -24.508  0.00  0.00    +0.110 C 
ATOM     22  H   UNL     1      34.508 -19.084 -22.450  0.00  0.00    +0.148 HD
ENDBRANCH   9  15
BRANCH   2  23
ATOM     23  C   UNL     1      31.736 -10.831 -20.238  0.00  0.00    +0.077 C 
ATOM     24  C   UNL     1      32.094 -10.438 -18.845  0.00  0.00    +0.022 C 
ATOM     25  C   UNL     1      30.771 -10.037 -19.425  0.00  0.00    +0.022 C 
ENDBRANCH   2  23
BRANCH   7  27
ATOM     26  O   UNL     1      31.611  -6.105 -22.274  0.00  0.00    -0.245 OA
ATOM     27  C   UNL     1      32.690  -6.652 -22.423  0.00  0.00    +0.342 C 
BRANCH  27  28
ATOM     28  O   UNL     1      33.877  -6.028 -22.572  0.00  0.00    -0.477 OA
ATOM     29  H   UNL     1      34.481  -5.991 -21.856  0.00  0.00    +0.295 HD
ENDBRANCH  27  28
ENDBRANCH   7  27
TORSDOF 4
ENDMDL
MODEL 7
REMARK VINA RESULT:      -8.5      2.866      4.903
REMARK  Name = 9863827
REMARK  4 active torsions:
REMARK  status: ('A' for Active; 'I' for Inactive)
REMARK    1  A    between atoms: N_2  and  C_23
REMARK    2  A    between atoms: C_7  and  C_27
REMARK    3  A    between atoms: C_9  and  C_15
REMARK    4  A    between atoms: C_27  and  O_28
REMARK                            x       y       z     vdW  Elec       q    Type
REMARK                         _______ _______ _______ _____ _____    ______ ____
ROOT
ATOM      1  O   UNL     1      30.826 -10.241 -20.146  0.00  0.00    -0.286 OA
ATOM      2  N   UNL     1      33.567 -10.988 -23.070  0.00  0.00    -0.287 N 
ATOM      3  C   UNL     1      33.315 -12.005 -22.107  0.00  0.00    +0.051 C 
ATOM      4  C   UNL     1      32.887  -9.789 -22.991  0.00  0.00    +0.075 C 
ATOM      5  C   UNL     1      32.369 -11.774 -21.084  0.00  0.00    +0.053 C 
ATOM      6  C   UNL     1      33.970 -13.247 -22.126  0.00  0.00    -0.008 C 
ATOM      7  C   UNL     1      31.974  -9.468 -22.066  0.00  0.00    +0.129 C 
ATOM      8  C   UNL     1      31.651 -10.474 -21.022  0.00  0.00    +0.204 C 
ATOM      9  C   UNL     1      33.694 -14.221 -21.163  0.00  0.00    -0.001 C 
ATOM     10  C   UNL     1      32.094 -12.751 -20.118  0.00  0.00    +0.004 C 
ATOM     11  C   UNL     1      34.994 -13.625 -23.154  0.00  0.00    +0.032 C 
ATOM     12  C   UNL     1      32.758 -13.973 -20.162  0.00  0.00    -0.000 C 
ENDROOT
BRANCH   9  15
ATOM     13  N   UNL     1      35.660 -17.159 -19.981  0.00  0.00    -0.230 NA
ATOM     14  N   UNL     1      36.296 -19.167 -21.071  0.00  0.00    -0.317 N 
ATOM     15  C   UNL     1      34.361 -15.510 -21.168  0.00  0.00    +0.019 C 
ATOM     16  C   UNL     1      34.353 -16.309 -22.301  0.00  0.00    +0.000 C 
ATOM     17  C   UNL     1      35.019 -15.970 -20.043  0.00  0.00    +0.100 C 
ATOM     18  C   UNL     1      35.001 -17.539 -22.276  0.00  0.00    +0.010 C 
ATOM     19  C   UNL     1      35.635 -17.914 -21.101  0.00  0.00    +0.124 C 
ATOM     20  C   UNL     1      34.994 -18.400 -23.492  0.00  0.00    +0.034 C 
ATOM     21  C   UNL     1      36.431 -19.938 -19.878  0.00  0.00    +0.110 C 
ATOM     22  H   UNL     1      36.678 -19.520 -21.907  0.00  0.00    +0.148 HD
ENDBRANCH   9  15
BRANCH   2  23
ATOM     23  C   UNL     1      34.533 -11.111 -24.188  0.00  0.00    +0.077 C 
ATOM     24  C   UNL     1      34.073 -11.032 -25.605  0.00  0.00    +0.022 C 
ATOM     25  C   UNL     1      34.895  -9.924 -25.016  0.00  0.00    +0.022 C 
ENDBRANCH   2  23
BRANCH   7  27
ATOM     26  O   UNL     1      30.789  -7.697 -23.118  0.00  0.00    -0.245 OA
ATOM     27  C   UNL     1      31.348  -8.147 -22.133  0.00  0.00    +0.342 C 
BRANCH  27  28
ATOM     28  O   UNL     1      31.490  -7.517 -20.948  0.00  0.00    -0.477 OA
ATOM     29  H   UNL     1      31.333  -6.595 -20.885  0.00  0.00    +0.295 HD
ENDBRANCH  27  28
ENDBRANCH   7  27
TORSDOF 4
ENDMDL
MODEL 8
REMARK VINA RESULT:      -8.0      3.326      8.217
REMARK  Name = 9863827
REMARK  4 active torsions:
REMARK  status: ('A' for Active; 'I' for Inactive)
REMARK    1  A    between atoms: N_2  and  C_23
REMARK    2  A    between atoms: C_7  and  C_27
REMARK    3  A    between atoms: C_9  and  C_15
REMARK    4  A    between atoms: C_27  and  O_28
REMARK                            x       y       z     vdW  Elec       q    Type
REMARK                         _______ _______ _______ _____ _____    ______ ____
ROOT
ATOM      1  O   UNL     1      33.446 -16.600 -26.006  0.00  0.00    -0.286 OA
ATOM      2  N   UNL     1      34.554 -15.411 -22.267  0.00  0.00    -0.287 N 
ATOM      3  C   UNL     1      34.129 -14.417 -23.192  0.00  0.00    +0.051 C 
ATOM      4  C   UNL     1      34.581 -16.737 -22.654  0.00  0.00    +0.075 C 
ATOM      5  C   UNL     1      33.738 -14.800 -24.494  0.00  0.00    +0.053 C 
ATOM      6  C   UNL     1      34.078 -13.051 -22.867  0.00  0.00    -0.008 C 
ATOM      7  C   UNL     1      34.233 -17.206 -23.858  0.00  0.00    +0.129 C 
ATOM      8  C   UNL     1      33.777 -16.234 -24.884  0.00  0.00    +0.204 C 
ATOM      9  C   UNL     1      33.653 -12.105 -23.804  0.00  0.00    -0.001 C 
ATOM     10  C   UNL     1      33.314 -13.850 -25.432  0.00  0.00    +0.004 C 
ATOM     11  C   UNL     1      34.463 -12.507 -21.524  0.00  0.00    +0.032 C 
ATOM     12  C   UNL     1      33.272 -12.504 -25.082  0.00  0.00    -0.000 C 
ENDROOT
BRANCH   9  15
ATOM     13  N   UNL     1      34.500  -8.475 -23.780  0.00  0.00    -0.230 NA
ATOM     14  N   UNL     1      33.516  -6.638 -22.647  0.00  0.00    -0.317 N 
ATOM     15  C   UNL     1      33.594 -10.690 -23.485  0.00  0.00    +0.019 C 
ATOM     16  C   UNL     1      32.627 -10.197 -22.623  0.00  0.00    +0.000 C 
ATOM     17  C   UNL     1      34.499  -9.803 -24.035  0.00  0.00    +0.100 C 
ATOM     18  C   UNL     1      32.595  -8.837 -22.336  0.00  0.00    +0.010 C 
ATOM     19  C   UNL     1      33.546  -8.025 -22.935  0.00  0.00    +0.124 C 
ATOM     20  C   UNL     1      31.557  -8.303 -21.409  0.00  0.00    +0.034 C 
ATOM     21  C   UNL     1      33.953  -5.649 -23.576  0.00  0.00    +0.110 C 
ATOM     22  H   UNL     1      33.182  -6.345 -21.768  0.00  0.00    +0.148 HD
ENDBRANCH   9  15
BRANCH   2  23
ATOM     23  C   UNL     1      34.987 -15.135 -20.877  0.00  0.00    +0.077 C 
ATOM     24  C   UNL     1      34.032 -15.273 -19.739  0.00  0.00    +0.022 C 
ATOM     25  C   UNL     1      35.163 -16.247 -19.898  0.00  0.00    +0.022 C 
ENDBRANCH   2  23
BRANCH   7  27
ATOM     26  O   UNL     1      35.198 -19.369 -23.654  0.00  0.00    -0.245 OA
ATOM     27  C   UNL     1      34.322 -18.648 -24.097  0.00  0.00    +0.342 C 
BRANCH  27  28
ATOM     28  O   UNL     1      33.292 -19.042 -24.876  0.00  0.00    -0.477 OA
ATOM     29  H   UNL     1      33.243 -19.929 -25.174  0.00  0.00    +0.295 HD
ENDBRANCH  27  28
ENDBRANCH   7  27
TORSDOF 4
ENDMDL
