MODEL 1
REMARK VINA RESULT:     -13.4      0.000      0.000
REMARK  Name = 11952989
REMARK  5 active torsions:
REMARK  status: ('A' for Active; 'I' for Inactive)
REMARK    1  A    between atoms: C_4  and  C_21
REMARK    2  A    between atoms: C_6  and  C_11
REMARK    3  A    between atoms: C_24  and  C_27
REMARK    4  A    between atoms: C_27  and  C_29
REMARK    5  A    between atoms: C_29  and  O_30
REMARK                            x       y       z     vdW  Elec       q    Type
REMARK                         _______ _______ _______ _____ _____    ______ ____
ROOT
ATOM      1  N   UNL     1      33.631 -14.272 -25.762  0.00  0.00    -0.297 N 
ATOM      2  N   UNL     1      34.591 -16.450 -25.391  0.00  0.00    -0.229 NA
ATOM      3  C   UNL     1      33.862 -14.903 -23.633  0.00  0.00    +0.033 C 
ATOM      4  C   UNL     1      33.285 -13.606 -23.667  0.00  0.00    +0.017 C 
ATOM      5  C   UNL     1      34.065 -15.290 -24.955  0.00  0.00    +0.132 C 
ATOM      6  C   UNL     1      34.792 -17.025 -23.027  0.00  0.00    +0.019 C 
ATOM      7  C   UNL     1      34.241 -15.809 -22.629  0.00  0.00    +0.004 C 
ATOM      8  C   UNL     1      33.154 -13.244 -24.991  0.00  0.00    +0.063 C 
ATOM      9  C   UNL     1      34.938 -17.283 -24.382  0.00  0.00    +0.100 C 
ATOM     10  H   UNL     1      33.656 -14.278 -26.747  0.00  0.00    +0.154 HD
ENDROOT
BRANCH   6  11
ATOM     11  C   UNL     1      35.204 -18.001 -22.042  0.00  0.00    +0.001 C 
ATOM     12  C   UNL     1      34.642 -19.808 -20.512  0.00  0.00    +0.000 C 
ATOM     13  C   UNL     1      34.260 -18.854 -21.469  0.00  0.00    +0.000 C 
ATOM     14  C   UNL     1      36.003 -19.897 -20.130  0.00  0.00    +0.000 C 
ATOM     15  C   UNL     1      36.541 -18.089 -21.666  0.00  0.00    +0.000 C 
ATOM     16  C   UNL     1      36.939 -19.031 -20.717  0.00  0.00    +0.000 C 
ATOM     17  C   UNL     1      33.705 -20.674 -19.925  0.00  0.00    +0.000 C 
ATOM     18  C   UNL     1      36.385 -20.851 -19.172  0.00  0.00    +0.000 C 
ATOM     19  C   UNL     1      34.105 -21.615 -18.975  0.00  0.00    +0.000 C 
ATOM     20  C   UNL     1      35.441 -21.704 -18.599  0.00  0.00    +0.000 C 
ENDBRANCH   6  11
BRANCH   4  21
ATOM     21  C   UNL     1      32.879 -12.749 -22.592  0.00  0.00    +0.001 C 
ATOM     22  C   UNL     1      32.855 -11.365 -22.772  0.00  0.00    -0.000 C 
ATOM     23  C   UNL     1      32.505 -13.297 -21.364  0.00  0.00    -0.000 C 
ATOM     24  C   UNL     1      32.087 -11.081 -20.499  0.00  0.00    -0.011 C 
ATOM     25  C   UNL     1      32.460 -10.532 -21.725  0.00  0.00    -0.004 C 
ATOM     26  C   UNL     1      32.110 -12.464 -20.318  0.00  0.00    -0.004 C 
BRANCH  24  27
ATOM     27  C   UNL     1      31.662 -10.189 -19.381  0.00  0.00    +0.136 C 
BRANCH  27  29
ATOM     28  O   UNL     1      31.366  -7.928 -20.235  0.00  0.00    -0.250 OA
ATOM     29  C   UNL     1      32.029  -8.734 -19.596  0.00  0.00    +0.318 C 
BRANCH  29  30
ATOM     30  O   UNL     1      33.202  -8.412 -18.989  0.00  0.00    -0.480 OA
ATOM     31  H   UNL     1      33.937  -8.990 -19.053  0.00  0.00    +0.295 HD
ENDBRANCH  29  30
ENDBRANCH  27  29
ENDBRANCH  24  27
ENDBRANCH   4  21
TORSDOF 5
ENDMDL
MODEL 2
REMARK VINA RESULT:     -12.5      7.291     11.061
REMARK  Name = 11952989
REMARK  5 active torsions:
REMARK  status: ('A' for Active; 'I' for Inactive)
REMARK    1  A    between atoms: C_4  and  C_21
REMARK    2  A    between atoms: C_6  and  C_11
REMARK    3  A    between atoms: C_24  and  C_27
REMARK    4  A    between atoms: C_27  and  C_29
REMARK    5  A    between atoms: C_29  and  O_30
REMARK                            x       y       z     vdW  Elec       q    Type
REMARK                         _______ _______ _______ _____ _____    ______ ____
ROOT
ATOM      1  N   UNL     1      32.893 -25.072 -13.485  0.00  0.00    -0.297 N 
ATOM      2  N   UNL     1      34.867 -24.387 -14.683  0.00  0.00    -0.229 NA
ATOM      3  C   UNL     1      32.582 -23.647 -15.174  0.00  0.00    +0.033 C 
ATOM      4  C   UNL     1      31.324 -23.941 -14.584  0.00  0.00    +0.017 C 
ATOM      5  C   UNL     1      33.539 -24.367 -14.466  0.00  0.00    +0.132 C 
ATOM      6  C   UNL     1      34.397 -22.830 -16.505  0.00  0.00    +0.019 C 
ATOM      7  C   UNL     1      33.031 -22.846 -16.237  0.00  0.00    +0.004 C 
ATOM      8  C   UNL     1      31.547 -24.821 -13.546  0.00  0.00    +0.063 C 
ATOM      9  C   UNL     1      35.243 -23.599 -15.717  0.00  0.00    +0.100 C 
ATOM     10  H   UNL     1      33.330 -25.669 -12.833  0.00  0.00    +0.154 HD
ENDROOT
BRANCH   6  11
ATOM     11  C   UNL     1      34.925 -22.027 -17.586  0.00  0.00    +0.001 C 
ATOM     12  C   UNL     1      34.555 -20.696 -19.588  0.00  0.00    +0.000 C 
ATOM     13  C   UNL     1      34.059 -21.478 -18.532  0.00  0.00    +0.000 C 
ATOM     14  C   UNL     1      35.948 -20.467 -19.685  0.00  0.00    +0.000 C 
ATOM     15  C   UNL     1      36.295 -21.802 -17.681  0.00  0.00    +0.000 C 
ATOM     16  C   UNL     1      36.805 -21.027 -18.723  0.00  0.00    +0.000 C 
ATOM     17  C   UNL     1      33.698 -20.136 -20.551  0.00  0.00    +0.000 C 
ATOM     18  C   UNL     1      36.444 -19.685 -20.741  0.00  0.00    +0.000 C 
ATOM     19  C   UNL     1      34.209 -19.362 -21.593  0.00  0.00    +0.000 C 
ATOM     20  C   UNL     1      35.579 -19.136 -21.688  0.00  0.00    +0.000 C 
ENDBRANCH   6  11
BRANCH   4  21
ATOM     21  C   UNL     1      30.013 -23.469 -14.924  0.00  0.00    +0.001 C 
ATOM     22  C   UNL     1      29.317 -24.046 -15.987  0.00  0.00    -0.000 C 
ATOM     23  C   UNL     1      29.430 -22.434 -14.191  0.00  0.00    -0.000 C 
ATOM     24  C   UNL     1      27.461 -22.553 -15.584  0.00  0.00    -0.011 C 
ATOM     25  C   UNL     1      28.042 -23.587 -16.317  0.00  0.00    -0.004 C 
ATOM     26  C   UNL     1      28.155 -21.976 -14.521  0.00  0.00    -0.004 C 
BRANCH  24  27
ATOM     27  C   UNL     1      26.095 -22.065 -15.936  0.00  0.00    +0.136 C 
BRANCH  27  29
ATOM     28  O   UNL     1      25.980 -22.057 -18.369  0.00  0.00    -0.250 OA
ATOM     29  C   UNL     1      26.015 -21.438 -17.314  0.00  0.00    +0.318 C 
BRANCH  29  30
ATOM     30  O   UNL     1      25.984 -20.080 -17.252  0.00  0.00    -0.480 OA
ATOM     31  H   UNL     1      26.758 -19.604 -17.023  0.00  0.00    +0.295 HD
ENDBRANCH  29  30
ENDBRANCH  27  29
ENDBRANCH  24  27
ENDBRANCH   4  21
TORSDOF 5
ENDMDL
MODEL 3
REMARK VINA RESULT:     -12.1      6.900     10.846
REMARK  Name = 11952989
REMARK  5 active torsions:
REMARK  status: ('A' for Active; 'I' for Inactive)
REMARK    1  A    between atoms: C_4  and  C_21
REMARK    2  A    between atoms: C_6  and  C_11
REMARK    3  A    between atoms: C_24  and  C_27
REMARK    4  A    between atoms: C_27  and  C_29
REMARK    5  A    between atoms: C_29  and  O_30
REMARK                            x       y       z     vdW  Elec       q    Type
REMARK                         _______ _______ _______ _____ _____    ______ ____
ROOT
ATOM      1  N   UNL     1      36.057 -23.933 -14.146  0.00  0.00    -0.297 N 
ATOM      2  N   UNL     1      37.416 -22.797 -15.778  0.00  0.00    -0.229 NA
ATOM      3  C   UNL     1      34.965 -22.851 -15.765  0.00  0.00    +0.033 C 
ATOM      4  C   UNL     1      34.017 -23.458 -14.898  0.00  0.00    +0.017 C 
ATOM      5  C   UNL     1      36.227 -23.166 -15.268  0.00  0.00    +0.132 C 
ATOM      6  C   UNL     1      36.109 -21.652 -17.493  0.00  0.00    +0.019 C 
ATOM      7  C   UNL     1      34.906 -22.061 -16.925  0.00  0.00    +0.004 C 
ATOM      8  C   UNL     1      34.719 -24.117 -13.911  0.00  0.00    +0.063 C 
ATOM      9  C   UNL     1      37.300 -22.039 -16.893  0.00  0.00    +0.100 C 
ATOM     10  H   UNL     1      36.786 -24.297 -13.592  0.00  0.00    +0.154 HD
ENDROOT
BRANCH   6  11
ATOM     11  C   UNL     1      36.118 -20.838 -18.689  0.00  0.00    +0.001 C 
ATOM     12  C   UNL     1      34.959 -19.956 -20.638  0.00  0.00    +0.000 C 
ATOM     13  C   UNL     1      34.969 -20.742 -19.474  0.00  0.00    +0.000 C 
ATOM     14  C   UNL     1      36.133 -19.257 -21.011  0.00  0.00    +0.000 C 
ATOM     15  C   UNL     1      37.272 -20.151 -19.055  0.00  0.00    +0.000 C 
ATOM     16  C   UNL     1      37.281 -19.366 -20.208  0.00  0.00    +0.000 C 
ATOM     17  C   UNL     1      33.812 -19.848 -21.441  0.00  0.00    +0.000 C 
ATOM     18  C   UNL     1      36.124 -18.472 -22.175  0.00  0.00    +0.000 C 
ATOM     19  C   UNL     1      33.822 -19.062 -22.594  0.00  0.00    +0.000 C 
ATOM     20  C   UNL     1      34.975 -18.376 -22.961  0.00  0.00    +0.000 C 
ENDBRANCH   6  11
BRANCH   4  21
ATOM     21  C   UNL     1      32.584 -23.450 -14.949  0.00  0.00    +0.001 C 
ATOM     22  C   UNL     1      31.843 -23.764 -13.809  0.00  0.00    -0.000 C 
ATOM     23  C   UNL     1      31.928 -23.128 -16.138  0.00  0.00    -0.000 C 
ATOM     24  C   UNL     1      29.795 -23.434 -15.047  0.00  0.00    -0.011 C 
ATOM     25  C   UNL     1      30.450 -23.756 -13.859  0.00  0.00    -0.004 C 
ATOM     26  C   UNL     1      30.535 -23.120 -16.187  0.00  0.00    -0.004 C 
BRANCH  24  27
ATOM     27  C   UNL     1      28.304 -23.424 -15.099  0.00  0.00    +0.136 C 
BRANCH  27  29
ATOM     28  O   UNL     1      27.554 -21.622 -16.555  0.00  0.00    -0.250 OA
ATOM     29  C   UNL     1      27.747 -22.816 -16.371  0.00  0.00    +0.318 C 
BRANCH  29  30
ATOM     30  O   UNL     1      27.479 -23.763 -17.309  0.00  0.00    -0.480 OA
ATOM     31  H   UNL     1      27.979 -24.555 -17.331  0.00  0.00    +0.295 HD
ENDBRANCH  29  30
ENDBRANCH  27  29
ENDBRANCH  24  27
ENDBRANCH   4  21
TORSDOF 5
ENDMDL
MODEL 4
REMARK VINA RESULT:     -11.8      7.268     11.535
REMARK  Name = 11952989
REMARK  5 active torsions:
REMARK  status: ('A' for Active; 'I' for Inactive)
REMARK    1  A    between atoms: C_4  and  C_21
REMARK    2  A    between atoms: C_6  and  C_11
REMARK    3  A    between atoms: C_24  and  C_27
REMARK    4  A    between atoms: C_27  and  C_29
REMARK    5  A    between atoms: C_29  and  O_30
REMARK                            x       y       z     vdW  Elec       q    Type
REMARK                         _______ _______ _______ _____ _____    ______ ____
ROOT
ATOM      1  N   UNL     1      36.493 -23.861 -13.912  0.00  0.00    -0.297 N 
ATOM      2  N   UNL     1      37.507 -22.613 -15.705  0.00  0.00    -0.229 NA
ATOM      3  C   UNL     1      35.113 -23.101 -15.494  0.00  0.00    +0.033 C 
ATOM      4  C   UNL     1      34.354 -23.808 -14.523  0.00  0.00    +0.017 C 
ATOM      5  C   UNL     1      36.442 -23.153 -15.083  0.00  0.00    +0.132 C 
ATOM      6  C   UNL     1      35.898 -21.837 -17.370  0.00  0.00    +0.019 C 
ATOM      7  C   UNL     1      34.831 -22.415 -16.686  0.00  0.00    +0.004 C 
ATOM      8  C   UNL     1      35.231 -24.263 -13.562  0.00  0.00    +0.063 C 
ATOM      9  C   UNL     1      37.177 -21.964 -16.847  0.00  0.00    +0.100 C 
ATOM     10  H   UNL     1      37.312 -24.051 -13.398  0.00  0.00    +0.154 HD
ENDROOT
BRANCH   6  11
ATOM     11  C   UNL     1      35.676 -21.116 -18.605  0.00  0.00    +0.001 C 
ATOM     12  C   UNL     1      36.497 -19.630 -20.347  0.00  0.00    +0.000 C 
ATOM     13  C   UNL     1      36.696 -20.337 -19.150  0.00  0.00    +0.000 C 
ATOM     14  C   UNL     1      35.244 -19.716 -21.001  0.00  0.00    +0.000 C 
ATOM     15  C   UNL     1      34.444 -21.201 -19.247  0.00  0.00    +0.000 C 
ATOM     16  C   UNL     1      34.229 -20.506 -20.438  0.00  0.00    +0.000 C 
ATOM     17  C   UNL     1      37.513 -18.840 -20.910  0.00  0.00    +0.000 C 
ATOM     18  C   UNL     1      35.045 -19.010 -22.198  0.00  0.00    +0.000 C 
ATOM     19  C   UNL     1      37.296 -18.146 -22.100  0.00  0.00    +0.000 C 
ATOM     20  C   UNL     1      36.065 -18.230 -22.743  0.00  0.00    +0.000 C 
ENDBRANCH   6  11
BRANCH   4  21
ATOM     21  C   UNL     1      32.944 -24.059 -14.460  0.00  0.00    +0.001 C 
ATOM     22  C   UNL     1      32.419 -24.839 -13.429  0.00  0.00    -0.000 C 
ATOM     23  C   UNL     1      32.094 -23.523 -15.428  0.00  0.00    -0.000 C 
ATOM     24  C   UNL     1      30.199 -24.546 -14.336  0.00  0.00    -0.011 C 
ATOM     25  C   UNL     1      31.047 -25.083 -13.367  0.00  0.00    -0.004 C 
ATOM     26  C   UNL     1      30.723 -23.766 -15.367  0.00  0.00    -0.004 C 
BRANCH  24  27
ATOM     27  C   UNL     1      28.731 -24.806 -14.268  0.00  0.00    +0.136 C 
BRANCH  27  29
ATOM     28  O   UNL     1      27.818 -24.572 -16.513  0.00  0.00    -0.250 OA
ATOM     29  C   UNL     1      27.947 -24.135 -15.377  0.00  0.00    +0.318 C 
BRANCH  29  30
ATOM     30  O   UNL     1      27.386 -22.966 -14.967  0.00  0.00    -0.480 OA
ATOM     31  H   UNL     1      27.639 -22.589 -14.146  0.00  0.00    +0.295 HD
ENDBRANCH  29  30
ENDBRANCH  27  29
ENDBRANCH  24  27
ENDBRANCH   4  21
TORSDOF 5
ENDMDL
MODEL 5
REMARK VINA RESULT:     -11.6      3.606      8.751
REMARK  Name = 11952989
REMARK  5 active torsions:
REMARK  status: ('A' for Active; 'I' for Inactive)
REMARK    1  A    between atoms: C_4  and  C_21
REMARK    2  A    between atoms: C_6  and  C_11
REMARK    3  A    between atoms: C_24  and  C_27
REMARK    4  A    between atoms: C_27  and  C_29
REMARK    5  A    between atoms: C_29  and  O_30
REMARK                            x       y       z     vdW  Elec       q    Type
REMARK                         _______ _______ _______ _____ _____    ______ ____
ROOT
ATOM      1  N   UNL     1      34.175 -15.542 -25.898  0.00  0.00    -0.297 N 
ATOM      2  N   UNL     1      33.298 -13.358 -25.384  0.00  0.00    -0.229 NA
ATOM      3  C   UNL     1      33.939 -15.052 -23.732  0.00  0.00    +0.033 C 
ATOM      4  C   UNL     1      34.464 -16.367 -23.852  0.00  0.00    +0.017 C 
ATOM      5  C   UNL     1      33.771 -14.566 -25.026  0.00  0.00    +0.132 C 
ATOM      6  C   UNL     1      33.087 -12.942 -22.988  0.00  0.00    +0.019 C 
ATOM      7  C   UNL     1      33.583 -14.204 -22.671  0.00  0.00    +0.004 C 
ATOM      8  C   UNL     1      34.599 -16.640 -25.196  0.00  0.00    +0.063 C 
ATOM      9  C   UNL     1      32.971 -12.583 -24.324  0.00  0.00    +0.100 C 
ATOM     10  H   UNL     1      34.164 -15.465 -26.880  0.00  0.00    +0.154 HD
ENDROOT
BRANCH   6  11
ATOM     11  C   UNL     1      32.701 -12.020 -21.941  0.00  0.00    +0.001 C 
ATOM     12  C   UNL     1      32.276  -9.743 -21.200  0.00  0.00    +0.000 C 
ATOM     13  C   UNL     1      32.648 -10.651 -22.204  0.00  0.00    +0.000 C 
ATOM     14  C   UNL     1      31.952 -10.231 -19.911  0.00  0.00    +0.000 C 
ATOM     15  C   UNL     1      32.384 -12.500 -20.675  0.00  0.00    +0.000 C 
ATOM     16  C   UNL     1      32.011 -11.613 -19.665  0.00  0.00    +0.000 C 
ATOM     17  C   UNL     1      32.217  -8.361 -21.446  0.00  0.00    +0.000 C 
ATOM     18  C   UNL     1      31.580  -9.323 -18.907  0.00  0.00    +0.000 C 
ATOM     19  C   UNL     1      31.845  -7.474 -20.435  0.00  0.00    +0.000 C 
ATOM     20  C   UNL     1      31.527  -7.953 -19.168  0.00  0.00    +0.000 C 
ENDBRANCH   6  11
BRANCH   4  21
ATOM     21  C   UNL     1      34.820 -17.313 -22.835  0.00  0.00    +0.001 C 
ATOM     22  C   UNL     1      34.584 -18.674 -23.034  0.00  0.00    -0.000 C 
ATOM     23  C   UNL     1      35.403 -16.875 -21.645  0.00  0.00    -0.000 C 
ATOM     24  C   UNL     1      35.513 -19.155 -20.856  0.00  0.00    -0.011 C 
ATOM     25  C   UNL     1      34.930 -19.594 -22.045  0.00  0.00    -0.004 C 
ATOM     26  C   UNL     1      35.749 -17.795 -20.656  0.00  0.00    -0.004 C 
BRANCH  24  27
ATOM     27  C   UNL     1      35.886 -20.141 -19.800  0.00  0.00    +0.136 C 
BRANCH  27  29
ATOM     28  O   UNL     1      33.566 -20.716 -19.332  0.00  0.00    -0.250 OA
ATOM     29  C   UNL     1      34.743 -21.048 -19.390  0.00  0.00    +0.318 C 
BRANCH  29  30
ATOM     30  O   UNL     1      35.174 -22.300 -19.085  0.00  0.00    -0.480 OA
ATOM     31  H   UNL     1      35.467 -22.496 -18.216  0.00  0.00    +0.295 HD
ENDBRANCH  29  30
ENDBRANCH  27  29
ENDBRANCH  24  27
ENDBRANCH   4  21
TORSDOF 5
ENDMDL
MODEL 6
REMARK VINA RESULT:     -10.7      5.111     10.913
REMARK  Name = 11952989
REMARK  5 active torsions:
REMARK  status: ('A' for Active; 'I' for Inactive)
REMARK    1  A    between atoms: C_4  and  C_21
REMARK    2  A    between atoms: C_6  and  C_11
REMARK    3  A    between atoms: C_24  and  C_27
REMARK    4  A    between atoms: C_27  and  C_29
REMARK    5  A    between atoms: C_29  and  O_30
REMARK                            x       y       z     vdW  Elec       q    Type
REMARK                         _______ _______ _______ _____ _____    ______ ____
ROOT
ATOM      1  N   UNL     1      31.845 -11.160 -19.082  0.00  0.00    -0.297 N 
ATOM      2  N   UNL     1      31.553  -8.827 -19.605  0.00  0.00    -0.229 NA
ATOM      3  C   UNL     1      32.370 -10.537 -21.160  0.00  0.00    +0.033 C 
ATOM      4  C   UNL     1      32.599 -11.933 -21.027  0.00  0.00    +0.017 C 
ATOM      5  C   UNL     1      31.900 -10.086 -19.931  0.00  0.00    +0.132 C 
ATOM      6  C   UNL     1      32.160  -8.271 -21.904  0.00  0.00    +0.019 C 
ATOM      7  C   UNL     1      32.505  -9.590 -22.188  0.00  0.00    +0.004 C 
ATOM      8  C   UNL     1      32.267 -12.287 -19.737  0.00  0.00    +0.063 C 
ATOM      9  C   UNL     1      31.703  -7.957 -20.631  0.00  0.00    +0.100 C 
ATOM     10  H   UNL     1      31.546 -11.128 -18.143  0.00  0.00    +0.154 HD
ENDROOT
BRANCH   6  11
ATOM     11  C   UNL     1      32.276  -7.246 -22.918  0.00  0.00    +0.001 C 
ATOM     12  C   UNL     1      33.668  -5.818 -24.312  0.00  0.00    +0.000 C 
ATOM     13  C   UNL     1      33.537  -6.812 -23.329  0.00  0.00    +0.000 C 
ATOM     14  C   UNL     1      32.503  -5.256 -24.887  0.00  0.00    +0.000 C 
ATOM     15  C   UNL     1      31.131  -6.694 -23.483  0.00  0.00    +0.000 C 
ATOM     16  C   UNL     1      31.242  -5.705 -24.462  0.00  0.00    +0.000 C 
ATOM     17  C   UNL     1      34.930  -5.369 -24.737  0.00  0.00    +0.000 C 
ATOM     18  C   UNL     1      32.634  -4.262 -25.870  0.00  0.00    +0.000 C 
ATOM     19  C   UNL     1      35.039  -4.380 -25.715  0.00  0.00    +0.000 C 
ATOM     20  C   UNL     1      33.895  -3.827 -26.281  0.00  0.00    +0.000 C 
ENDBRANCH   6  11
BRANCH   4  21
ATOM     21  C   UNL     1      33.083 -12.884 -21.986  0.00  0.00    +0.001 C 
ATOM     22  C   UNL     1      34.066 -13.805 -21.621  0.00  0.00    -0.000 C 
ATOM     23  C   UNL     1      32.572 -12.889 -23.284  0.00  0.00    -0.000 C 
ATOM     24  C   UNL     1      34.024 -14.734 -23.851  0.00  0.00    -0.011 C 
ATOM     25  C   UNL     1      34.536 -14.729 -22.554  0.00  0.00    -0.004 C 
ATOM     26  C   UNL     1      33.042 -13.813 -24.217  0.00  0.00    -0.004 C 
BRANCH  24  27
ATOM     27  C   UNL     1      34.525 -15.725 -24.847  0.00  0.00    +0.136 C 
BRANCH  27  29
ATOM     28  O   UNL     1      34.631 -17.894 -23.745  0.00  0.00    -0.250 OA
ATOM     29  C   UNL     1      34.095 -17.148 -24.553  0.00  0.00    +0.318 C 
BRANCH  29  30
ATOM     30  O   UNL     1      33.022 -17.518 -25.302  0.00  0.00    -0.480 OA
ATOM     31  H   UNL     1      33.150 -17.881 -26.157  0.00  0.00    +0.295 HD
ENDBRANCH  29  30
ENDBRANCH  27  29
ENDBRANCH  24  27
ENDBRANCH   4  21
TORSDOF 5
ENDMDL
MODEL 7
REMARK VINA RESULT:     -10.7      3.478      8.750
REMARK  Name = 11952989
REMARK  5 active torsions:
REMARK  status: ('A' for Active; 'I' for Inactive)
REMARK    1  A    between atoms: C_4  and  C_21
REMARK    2  A    between atoms: C_6  and  C_11
REMARK    3  A    between atoms: C_24  and  C_27
REMARK    4  A    between atoms: C_27  and  C_29
REMARK    5  A    between atoms: C_29  and  O_30
REMARK                            x       y       z     vdW  Elec       q    Type
REMARK                         _______ _______ _______ _____ _____    ______ ____
ROOT
ATOM      1  N   UNL     1      34.214 -14.966 -26.156  0.00  0.00    -0.297 N 
ATOM      2  N   UNL     1      33.420 -12.766 -25.581  0.00  0.00    -0.229 NA
ATOM      3  C   UNL     1      33.875 -14.571 -23.985  0.00  0.00    +0.033 C 
ATOM      4  C   UNL     1      34.339 -15.904 -24.142  0.00  0.00    +0.017 C 
ATOM      5  C   UNL     1      33.809 -14.014 -25.258  0.00  0.00    +0.132 C 
ATOM      6  C   UNL     1      33.089 -12.456 -23.182  0.00  0.00    +0.019 C 
ATOM      7  C   UNL     1      33.500 -13.757 -22.903  0.00  0.00    +0.004 C 
ATOM      8  C   UNL     1      34.539 -16.119 -25.489  0.00  0.00    +0.063 C 
ATOM      9  C   UNL     1      33.070 -12.028 -24.502  0.00  0.00    +0.100 C 
ATOM     10  H   UNL     1      34.265 -14.842 -27.132  0.00  0.00    +0.154 HD
ENDROOT
BRANCH   6  11
ATOM     11  C   UNL     1      32.688 -11.567 -22.113  0.00  0.00    +0.001 C 
ATOM     12  C   UNL     1      32.354  -9.308 -21.274  0.00  0.00    +0.000 C 
ATOM     13  C   UNL     1      32.738 -10.186 -22.301  0.00  0.00    +0.000 C 
ATOM     14  C   UNL     1      31.912  -9.841 -20.038  0.00  0.00    +0.000 C 
ATOM     15  C   UNL     1      32.255 -12.091 -20.899  0.00  0.00    +0.000 C 
ATOM     16  C   UNL     1      31.868 -11.234 -19.867  0.00  0.00    +0.000 C 
ATOM     17  C   UNL     1      32.398  -7.915 -21.444  0.00  0.00    +0.000 C 
ATOM     18  C   UNL     1      31.528  -8.964 -19.011  0.00  0.00    +0.000 C 
ATOM     19  C   UNL     1      32.012  -7.059 -20.412  0.00  0.00    +0.000 C 
ATOM     20  C   UNL     1      31.578  -7.582 -19.198  0.00  0.00    +0.000 C 
ENDBRANCH   6  11
BRANCH   4  21
ATOM     21  C   UNL     1      34.585 -16.917 -23.156  0.00  0.00    +0.001 C 
ATOM     22  C   UNL     1      35.072 -16.563 -21.897  0.00  0.00    -0.000 C 
ATOM     23  C   UNL     1      34.337 -18.257 -23.455  0.00  0.00    -0.000 C 
ATOM     24  C   UNL     1      35.062 -18.888 -21.239  0.00  0.00    -0.011 C 
ATOM     25  C   UNL     1      35.310 -17.548 -20.940  0.00  0.00    -0.004 C 
ATOM     26  C   UNL     1      34.576 -19.242 -22.497  0.00  0.00    -0.004 C 
BRANCH  24  27
ATOM     27  C   UNL     1      35.316 -19.940 -20.212  0.00  0.00    +0.136 C 
BRANCH  27  29
ATOM     28  O   UNL     1      37.678 -19.351 -20.175  0.00  0.00    -0.250 OA
ATOM     29  C   UNL     1      36.724 -19.912 -19.653  0.00  0.00    +0.318 C 
BRANCH  29  30
ATOM     30  O   UNL     1      36.817 -20.593 -18.480  0.00  0.00    -0.480 OA
ATOM     31  H   UNL     1      37.645 -20.670 -18.048  0.00  0.00    +0.295 HD
ENDBRANCH  29  30
ENDBRANCH  27  29
ENDBRANCH  24  27
ENDBRANCH   4  21
TORSDOF 5
ENDMDL
MODEL 8
REMARK VINA RESULT:     -10.6      5.946     10.212
REMARK  Name = 11952989
REMARK  5 active torsions:
REMARK  status: ('A' for Active; 'I' for Inactive)
REMARK    1  A    between atoms: C_4  and  C_21
REMARK    2  A    between atoms: C_6  and  C_11
REMARK    3  A    between atoms: C_24  and  C_27
REMARK    4  A    between atoms: C_27  and  C_29
REMARK    5  A    between atoms: C_29  and  O_30
REMARK                            x       y       z     vdW  Elec       q    Type
REMARK                         _______ _______ _______ _____ _____    ______ ____
ROOT
ATOM      1  N   UNL     1      38.051 -22.685 -15.651  0.00  0.00    -0.297 N 
ATOM      2  N   UNL     1      36.432 -23.780 -14.243  0.00  0.00    -0.229 NA
ATOM      3  C   UNL     1      35.915 -22.517 -16.280  0.00  0.00    +0.033 C 
ATOM      4  C   UNL     1      36.725 -21.820 -17.216  0.00  0.00    +0.017 C 
ATOM      5  C   UNL     1      36.772 -23.044 -15.318  0.00  0.00    +0.132 C 
ATOM      6  C   UNL     1      34.137 -23.525 -15.033  0.00  0.00    +0.019 C 
ATOM      7  C   UNL     1      34.542 -22.769 -16.130  0.00  0.00    +0.004 C 
ATOM      8  C   UNL     1      38.035 -21.941 -16.803  0.00  0.00    +0.063 C 
ATOM      9  C   UNL     1      35.099 -23.991 -14.149  0.00  0.00    +0.100 C 
ATOM     10  H   UNL     1      38.859 -22.924 -15.142  0.00  0.00    +0.154 HD
ENDROOT
BRANCH   6  11
ATOM     11  C   UNL     1      32.736 -23.820 -14.821  0.00  0.00    +0.001 C 
ATOM     12  C   UNL     1      30.403 -23.468 -15.412  0.00  0.00    +0.000 C 
ATOM     13  C   UNL     1      31.766 -23.194 -15.605  0.00  0.00    +0.000 C 
ATOM     14  C   UNL     1      30.017 -24.391 -14.409  0.00  0.00    +0.000 C 
ATOM     15  C   UNL     1      32.358 -24.726 -13.835  0.00  0.00    +0.000 C 
ATOM     16  C   UNL     1      31.008 -25.011 -13.630  0.00  0.00    +0.000 C 
ATOM     17  C   UNL     1      29.412 -22.848 -16.192  0.00  0.00    +0.000 C 
ATOM     18  C   UNL     1      28.654 -24.665 -14.216  0.00  0.00    +0.000 C 
ATOM     19  C   UNL     1      28.062 -23.133 -15.985  0.00  0.00    +0.000 C 
ATOM     20  C   UNL     1      27.683 -24.039 -15.000  0.00  0.00    +0.000 C 
ENDBRANCH   6  11
BRANCH   4  21
ATOM     21  C   UNL     1      36.355 -21.095 -18.396  0.00  0.00    +0.001 C 
ATOM     22  C   UNL     1      35.086 -21.267 -18.952  0.00  0.00    -0.000 C 
ATOM     23  C   UNL     1      37.262 -20.216 -18.990  0.00  0.00    -0.000 C 
ATOM     24  C   UNL     1      35.634 -19.683 -20.693  0.00  0.00    -0.011 C 
ATOM     25  C   UNL     1      34.727 -20.561 -20.100  0.00  0.00    -0.004 C 
ATOM     26  C   UNL     1      36.902 -19.510 -20.138  0.00  0.00    -0.004 C 
BRANCH  24  27
ATOM     27  C   UNL     1      35.246 -18.927 -21.919  0.00  0.00    +0.136 C 
BRANCH  27  29
ATOM     28  O   UNL     1      35.212 -16.786 -20.760  0.00  0.00    -0.250 OA
ATOM     29  C   UNL     1      35.414 -17.427 -21.783  0.00  0.00    +0.318 C 
BRANCH  29  30
ATOM     30  O   UNL     1      35.823 -16.855 -22.946  0.00  0.00    -0.480 OA
ATOM     31  H   UNL     1      36.012 -17.392 -23.691  0.00  0.00    +0.295 HD
ENDBRANCH  29  30
ENDBRANCH  27  29
ENDBRANCH  24  27
ENDBRANCH   4  21
TORSDOF 5
ENDMDL
MODEL 9
REMARK VINA RESULT:     -10.5      4.329      7.060
REMARK  Name = 11952989
REMARK  5 active torsions:
REMARK  status: ('A' for Active; 'I' for Inactive)
REMARK    1  A    between atoms: C_4  and  C_21
REMARK    2  A    between atoms: C_6  and  C_11
REMARK    3  A    between atoms: C_24  and  C_27
REMARK    4  A    between atoms: C_27  and  C_29
REMARK    5  A    between atoms: C_29  and  O_30
REMARK                            x       y       z     vdW  Elec       q    Type
REMARK                         _______ _______ _______ _____ _____    ______ ____
ROOT
ATOM      1  N   UNL     1      31.536  -8.456 -19.352  0.00  0.00    -0.297 N 
ATOM      2  N   UNL     1      31.850 -10.841 -19.486  0.00  0.00    -0.229 NA
ATOM      3  C   UNL     1      32.252  -9.253 -21.311  0.00  0.00    +0.033 C 
ATOM      4  C   UNL     1      32.123  -7.841 -21.408  0.00  0.00    +0.017 C 
ATOM      5  C   UNL     1      31.878  -9.604 -20.017  0.00  0.00    +0.132 C 
ATOM      6  C   UNL     1      32.633 -11.589 -21.674  0.00  0.00    +0.019 C 
ATOM      7  C   UNL     1      32.646 -10.288 -22.174  0.00  0.00    +0.004 C 
ATOM      8  C   UNL     1      31.681  -7.379 -20.187  0.00  0.00    +0.063 C 
ATOM      9  C   UNL     1      32.238 -11.798 -20.361  0.00  0.00    +0.100 C 
ATOM     10  H   UNL     1      31.232  -8.411 -18.416  0.00  0.00    +0.154 HD
ENDROOT
BRANCH   6  11
ATOM     11  C   UNL     1      33.027 -12.701 -22.512  0.00  0.00    +0.001 C 
ATOM     12  C   UNL     1      34.166 -14.835 -22.771  0.00  0.00    +0.000 C 
ATOM     13  C   UNL     1      33.775 -13.748 -21.972  0.00  0.00    +0.000 C 
ATOM     14  C   UNL     1      33.792 -14.860 -24.136  0.00  0.00    +0.000 C 
ATOM     15  C   UNL     1      32.660 -12.725 -23.854  0.00  0.00    +0.000 C 
ATOM     16  C   UNL     1      33.040 -13.797 -24.662  0.00  0.00    +0.000 C 
ATOM     17  C   UNL     1      34.919 -15.898 -22.245  0.00  0.00    +0.000 C 
ATOM     18  C   UNL     1      34.183 -15.947 -24.935  0.00  0.00    +0.000 C 
ATOM     19  C   UNL     1      35.298 -16.969 -23.055  0.00  0.00    +0.000 C 
ATOM     20  C   UNL     1      34.931 -16.995 -24.397  0.00  0.00    +0.000 C 
ENDBRANCH   6  11
BRANCH   4  21
ATOM     21  C   UNL     1      32.377  -6.967 -22.516  0.00  0.00    +0.001 C 
ATOM     22  C   UNL     1      31.338  -6.608 -23.375  0.00  0.00    -0.000 C 
ATOM     23  C   UNL     1      33.664  -6.472 -22.736  0.00  0.00    -0.000 C 
ATOM     24  C   UNL     1      32.871  -5.263 -24.671  0.00  0.00    -0.011 C 
ATOM     25  C   UNL     1      31.585  -5.757 -24.452  0.00  0.00    -0.004 C 
ATOM     26  C   UNL     1      33.911  -5.622 -23.813  0.00  0.00    -0.004 C 
BRANCH  24  27
ATOM     27  C   UNL     1      33.134  -4.351 -25.822  0.00  0.00    +0.136 C 
BRANCH  27  29
ATOM     28  O   UNL     1      31.634  -2.593 -26.590  0.00  0.00    -0.250 OA
ATOM     29  C   UNL     1      32.387  -3.035 -25.733  0.00  0.00    +0.318 C 
BRANCH  29  30
ATOM     30  O   UNL     1      32.648  -2.382 -24.569  0.00  0.00    -0.480 OA
ATOM     31  H   UNL     1      31.995  -1.828 -24.187  0.00  0.00    +0.295 HD
ENDBRANCH  29  30
ENDBRANCH  27  29
ENDBRANCH  24  27
ENDBRANCH   4  21
TORSDOF 5
ENDMDL
