MODEL 1
REMARK VINA RESULT:     -12.1      0.000      0.000
REMARK  Name = 9865515
REMARK  6 active torsions:
REMARK  status: ('A' for Active; 'I' for Inactive)
REMARK    1  A    between atoms: C_1  and  C_20
REMARK    2  A    between atoms: C_2  and  C_9
REMARK    3  A    between atoms: N_8  and  C_11
REMARK    4  A    between atoms: C_12  and  N_17
REMARK    5  A    between atoms: C_20  and  N_21
REMARK    6  A    between atoms: C_25  and  C_30
REMARK                            x       y       z     vdW  Elec       q    Type
REMARK                         _______ _______ _______ _____ _____    ______ ____
ROOT
ATOM      1  C   UNL     1      34.285 -22.341 -18.672  0.00  0.00    -0.002 C 
ATOM      2  C   UNL     1      35.062 -20.027 -20.020  0.00  0.00    +0.054 C 
ATOM      3  C   UNL     1      33.324 -21.528 -19.272  0.00  0.00    -0.002 C 
ATOM      4  C   UNL     1      35.634 -21.998 -18.746  0.00  0.00    -0.002 C 
ATOM      5  C   UNL     1      33.712 -20.370 -19.945  0.00  0.00    +0.004 C 
ATOM      6  C   UNL     1      36.023 -20.841 -19.420  0.00  0.00    +0.004 C 
ENDROOT
BRANCH   2   9
ATOM      7  O   UNL     1      36.571 -18.312 -20.462  0.00  0.00    -0.270 OA
ATOM      8  N   UNL     1      34.561 -18.330 -21.672  0.00  0.00    -0.279 N 
ATOM      9  C   UNL     1      35.467 -18.818 -20.721  0.00  0.00    +0.250 C 
ATOM     10  H   UNL     1      33.724 -18.838 -21.766  0.00  0.00    +0.155 HD
BRANCH   8  11
ATOM     11  C   UNL     1      34.693 -17.199 -22.516  0.00  0.00    +0.064 C 
ATOM     12  C   UNL     1      34.880 -15.939 -21.971  0.00  0.00    +0.055 C 
ATOM     13  C   UNL     1      34.629 -17.390 -23.886  0.00  0.00    +0.016 C 
ATOM     14  C   UNL     1      35.007 -14.840 -22.822  0.00  0.00    +0.015 C 
ATOM     15  C   UNL     1      34.756 -16.292 -24.736  0.00  0.00    +0.001 C 
ATOM     16  C   UNL     1      34.945 -15.016 -24.204  0.00  0.00    +0.001 C 
BRANCH  12  17
ATOM     17  N   UNL     1      34.947 -15.737 -20.575  0.00  0.00    -0.356 N 
ATOM     18  H   UNL     1      34.477 -14.976 -20.164  0.00  0.00    +0.142 HD
ATOM     19  H   UNL     1      35.464 -16.358 -20.012  0.00  0.00    +0.142 HD
ENDBRANCH  12  17
ENDBRANCH   8  11
ENDBRANCH   2   9
BRANCH   1  20
ATOM     20  C   UNL     1      33.870 -23.581 -17.952  0.00  0.00    +0.124 C 
BRANCH  20  21
ATOM     21  N   UNL     1      33.132 -23.258 -16.750  0.00  0.00    -0.264 N 
ATOM     22  N   UNL     1      34.810 -24.122 -15.356  0.00  0.00    -0.338 NA
ATOM     23  N   UNL     1      32.801 -23.169 -14.429  0.00  0.00    -0.170 NA
ATOM     24  C   UNL     1      33.596 -23.525 -15.473  0.00  0.00    +0.145 C 
ATOM     25  C   UNL     1      35.231 -24.367 -14.098  0.00  0.00    +0.147 C 
ATOM     26  C   UNL     1      34.503 -24.046 -12.970  0.00  0.00    +0.055 C 
ATOM     27  C   UNL     1      33.283 -23.443 -13.198  0.00  0.00    +0.114 C 
ATOM     28  H   UNL     1      32.253 -22.825 -16.846  0.00  0.00    +0.160 HD
BRANCH  25  30
ATOM     29  N   UNL     1      37.921 -26.923 -14.440  0.00  0.00    -0.242 NA
ATOM     30  C   UNL     1      36.523 -25.002 -13.995  0.00  0.00    +0.050 C 
ATOM     31  C   UNL     1      37.593 -24.357 -13.381  0.00  0.00    +0.006 C 
ATOM     32  C   UNL     1      36.738 -26.272 -14.504  0.00  0.00    +0.101 C 
ATOM     33  C   UNL     1      38.825 -24.994 -13.296  0.00  0.00    +0.021 C 
ATOM     34  C   UNL     1      38.937 -26.266 -13.837  0.00  0.00    +0.099 C 
ENDBRANCH  25  30
ENDBRANCH  20  21
ENDBRANCH   1  20
TORSDOF 6
ENDMDL
MODEL 2
REMARK VINA RESULT:     -12.0      1.050      1.625
REMARK  Name = 9865515
REMARK  6 active torsions:
REMARK  status: ('A' for Active; 'I' for Inactive)
REMARK    1  A    between atoms: C_1  and  C_20
REMARK    2  A    between atoms: C_2  and  C_9
REMARK    3  A    between atoms: N_8  and  C_11
REMARK    4  A    between atoms: C_12  and  N_17
REMARK    5  A    between atoms: C_20  and  N_21
REMARK    6  A    between atoms: C_25  and  C_30
REMARK                            x       y       z     vdW  Elec       q    Type
REMARK                         _______ _______ _______ _____ _____    ______ ____
ROOT
ATOM      1  C   UNL     1      34.249 -22.304 -18.512  0.00  0.00    -0.002 C 
ATOM      2  C   UNL     1      35.081 -20.120 -20.034  0.00  0.00    +0.054 C 
ATOM      3  C   UNL     1      35.609 -22.017 -18.636  0.00  0.00    -0.002 C 
ATOM      4  C   UNL     1      33.306 -21.499 -19.150  0.00  0.00    -0.002 C 
ATOM      5  C   UNL     1      36.025 -20.925 -19.397  0.00  0.00    +0.004 C 
ATOM      6  C   UNL     1      33.721 -20.407 -19.910  0.00  0.00    +0.004 C 
ENDROOT
BRANCH   2   9
ATOM      7  O   UNL     1      36.697 -18.610 -20.756  0.00  0.00    -0.270 OA
ATOM      8  N   UNL     1      34.539 -18.404 -21.653  0.00  0.00    -0.279 N 
ATOM      9  C   UNL     1      35.515 -18.982 -20.830  0.00  0.00    +0.250 C 
ATOM     10  H   UNL     1      33.643 -18.808 -21.604  0.00  0.00    +0.155 HD
BRANCH   8  11
ATOM     11  C   UNL     1      34.674 -17.313 -22.548  0.00  0.00    +0.064 C 
ATOM     12  C   UNL     1      34.921 -16.039 -22.064  0.00  0.00    +0.055 C 
ATOM     13  C   UNL     1      34.551 -17.558 -23.906  0.00  0.00    +0.016 C 
ATOM     14  C   UNL     1      35.050 -14.980 -22.963  0.00  0.00    +0.015 C 
ATOM     15  C   UNL     1      34.680 -16.499 -24.805  0.00  0.00    +0.001 C 
ATOM     16  C   UNL     1      34.929 -15.210 -24.334  0.00  0.00    +0.001 C 
BRANCH  12  17
ATOM     17  N   UNL     1      35.048 -15.783 -20.681  0.00  0.00    -0.356 N 
ATOM     18  H   UNL     1      34.297 -15.975 -20.073  0.00  0.00    +0.142 HD
ATOM     19  H   UNL     1      35.888 -15.414 -20.323  0.00  0.00    +0.142 HD
ENDBRANCH  12  17
ENDBRANCH   8  11
ENDBRANCH   2   9
BRANCH   1  20
ATOM     20  C   UNL     1      33.804 -23.472 -17.697  0.00  0.00    +0.124 C 
BRANCH  20  21
ATOM     21  N   UNL     1      32.728 -23.098 -16.804  0.00  0.00    -0.264 N 
ATOM     22  N   UNL     1      33.900 -23.829 -14.907  0.00  0.00    -0.338 NA
ATOM     23  N   UNL     1      31.696 -22.878 -14.708  0.00  0.00    -0.170 NA
ATOM     24  C   UNL     1      32.777 -23.274 -15.432  0.00  0.00    +0.145 C 
ATOM     25  C   UNL     1      33.914 -23.986 -13.568  0.00  0.00    +0.147 C 
ATOM     26  C   UNL     1      32.870 -23.619 -12.742  0.00  0.00    +0.055 C 
ATOM     27  C   UNL     1      31.776 -23.064 -13.374  0.00  0.00    +0.114 C 
ATOM     28  H   UNL     1      31.918 -22.697 -17.194  0.00  0.00    +0.160 HD
BRANCH  25  30
ATOM     29  N   UNL     1      36.418 -25.211 -11.095  0.00  0.00    -0.242 NA
ATOM     30  C   UNL     1      35.116 -24.577 -13.030  0.00  0.00    +0.050 C 
ATOM     31  C   UNL     1      36.111 -25.069 -13.869  0.00  0.00    +0.006 C 
ATOM     32  C   UNL     1      35.317 -24.672 -11.662  0.00  0.00    +0.101 C 
ATOM     33  C   UNL     1      37.258 -25.632 -13.323  0.00  0.00    +0.021 C 
ATOM     34  C   UNL     1      37.363 -25.679 -11.941  0.00  0.00    +0.099 C 
ENDBRANCH  25  30
ENDBRANCH  20  21
ENDBRANCH   1  20
TORSDOF 6
ENDMDL
MODEL 3
REMARK VINA RESULT:     -11.9      0.705      1.613
REMARK  Name = 9865515
REMARK  6 active torsions:
REMARK  status: ('A' for Active; 'I' for Inactive)
REMARK    1  A    between atoms: C_1  and  C_20
REMARK    2  A    between atoms: C_2  and  C_9
REMARK    3  A    between atoms: N_8  and  C_11
REMARK    4  A    between atoms: C_12  and  N_17
REMARK    5  A    between atoms: C_20  and  N_21
REMARK    6  A    between atoms: C_25  and  C_30
REMARK                            x       y       z     vdW  Elec       q    Type
REMARK                         _______ _______ _______ _____ _____    ______ ____
ROOT
ATOM      1  C   UNL     1      34.154 -22.359 -18.649  0.00  0.00    -0.002 C 
ATOM      2  C   UNL     1      34.838 -20.022 -20.011  0.00  0.00    +0.054 C 
ATOM      3  C   UNL     1      35.495 -22.007 -18.801  0.00  0.00    -0.002 C 
ATOM      4  C   UNL     1      33.155 -21.542 -19.178  0.00  0.00    -0.002 C 
ATOM      5  C   UNL     1      35.838 -20.840 -19.483  0.00  0.00    +0.004 C 
ATOM      6  C   UNL     1      33.497 -20.374 -19.858  0.00  0.00    +0.004 C 
ENDROOT
BRANCH   2   9
ATOM      7  O   UNL     1      36.119 -18.100 -20.288  0.00  0.00    -0.270 OA
ATOM      8  N   UNL     1      34.460 -18.541 -21.887  0.00  0.00    -0.279 N 
ATOM      9  C   UNL     1      35.195 -18.806 -20.724  0.00  0.00    +0.250 C 
ATOM     10  H   UNL     1      33.756 -19.193 -22.106  0.00  0.00    +0.155 HD
BRANCH   8  11
ATOM     11  C   UNL     1      34.599 -17.457 -22.790  0.00  0.00    +0.064 C 
ATOM     12  C   UNL     1      34.209 -17.593 -24.112  0.00  0.00    +0.055 C 
ATOM     13  C   UNL     1      35.133 -16.270 -22.314  0.00  0.00    +0.016 C 
ATOM     14  C   UNL     1      34.356 -16.512 -24.982  0.00  0.00    +0.015 C 
ATOM     15  C   UNL     1      35.279 -15.190 -23.183  0.00  0.00    +0.001 C 
ATOM     16  C   UNL     1      34.891 -15.311 -24.518  0.00  0.00    +0.001 C 
BRANCH  12  17
ATOM     17  N   UNL     1      33.663 -18.800 -24.603  0.00  0.00    -0.356 N 
ATOM     18  H   UNL     1      34.044 -19.221 -25.407  0.00  0.00    +0.142 HD
ATOM     19  H   UNL     1      32.902 -19.220 -24.140  0.00  0.00    +0.142 HD
ENDBRANCH  12  17
ENDBRANCH   8  11
ENDBRANCH   2   9
BRANCH   1  20
ATOM     20  C   UNL     1      33.787 -23.607 -17.919  0.00  0.00    +0.124 C 
BRANCH  20  21
ATOM     21  N   UNL     1      33.150 -23.300 -16.657  0.00  0.00    -0.264 N 
ATOM     22  N   UNL     1      34.956 -24.138 -15.414  0.00  0.00    -0.338 NA
ATOM     23  N   UNL     1      33.018 -23.220 -14.315  0.00  0.00    -0.170 NA
ATOM     24  C   UNL     1      33.726 -23.561 -15.425  0.00  0.00    +0.145 C 
ATOM     25  C   UNL     1      35.487 -24.377 -14.198  0.00  0.00    +0.147 C 
ATOM     26  C   UNL     1      34.853 -24.072 -13.011  0.00  0.00    +0.055 C 
ATOM     27  C   UNL     1      33.608 -23.489 -13.131  0.00  0.00    +0.114 C 
ATOM     28  H   UNL     1      32.259 -22.882 -16.675  0.00  0.00    +0.160 HD
BRANCH  25  30
ATOM     29  N   UNL     1      38.130 -27.005 -14.211  0.00  0.00    -0.242 NA
ATOM     30  C   UNL     1      36.794 -24.990 -14.208  0.00  0.00    +0.050 C 
ATOM     31  C   UNL     1      37.950 -24.216 -14.224  0.00  0.00    +0.006 C 
ATOM     32  C   UNL     1      36.938 -26.368 -14.203  0.00  0.00    +0.101 C 
ATOM     33  C   UNL     1      39.195 -24.834 -14.232  0.00  0.00    +0.021 C 
ATOM     34  C   UNL     1      39.231 -26.220 -14.226  0.00  0.00    +0.099 C 
ENDBRANCH  25  30
ENDBRANCH  20  21
ENDBRANCH   1  20
TORSDOF 6
ENDMDL
MODEL 4
REMARK VINA RESULT:     -11.8      6.007     10.666
REMARK  Name = 9865515
REMARK  6 active torsions:
REMARK  status: ('A' for Active; 'I' for Inactive)
REMARK    1  A    between atoms: C_1  and  C_20
REMARK    2  A    between atoms: C_2  and  C_9
REMARK    3  A    between atoms: N_8  and  C_11
REMARK    4  A    between atoms: C_12  and  N_17
REMARK    5  A    between atoms: C_20  and  N_21
REMARK    6  A    between atoms: C_25  and  C_30
REMARK                            x       y       z     vdW  Elec       q    Type
REMARK                         _______ _______ _______ _____ _____    ______ ____
ROOT
ATOM      1  C   UNL     1      33.982 -12.837 -22.769  0.00  0.00    -0.002 C 
ATOM      2  C   UNL     1      32.590 -10.440 -22.465  0.00  0.00    +0.054 C 
ATOM      3  C   UNL     1      34.237 -11.769 -23.628  0.00  0.00    -0.002 C 
ATOM      4  C   UNL     1      33.031 -12.707 -21.757  0.00  0.00    -0.002 C 
ATOM      5  C   UNL     1      33.540 -10.570 -23.477  0.00  0.00    +0.004 C 
ATOM      6  C   UNL     1      32.335 -11.509 -21.605  0.00  0.00    +0.004 C 
ENDROOT
BRANCH   2   9
ATOM      7  O   UNL     1      30.699  -9.220 -21.873  0.00  0.00    -0.270 OA
ATOM      8  N   UNL     1      32.564  -8.026 -22.649  0.00  0.00    -0.279 N 
ATOM      9  C   UNL     1      31.861  -9.190 -22.308  0.00  0.00    +0.250 C 
ATOM     10  H   UNL     1      33.480  -8.161 -22.981  0.00  0.00    +0.155 HD
BRANCH   8  11
ATOM     11  C   UNL     1      32.126  -6.680 -22.577  0.00  0.00    +0.064 C 
ATOM     12  C   UNL     1      32.374  -5.924 -21.443  0.00  0.00    +0.055 C 
ATOM     13  C   UNL     1      31.448  -6.151 -23.663  0.00  0.00    +0.016 C 
ATOM     14  C   UNL     1      31.933  -4.601 -21.395  0.00  0.00    +0.015 C 
ATOM     15  C   UNL     1      31.007  -4.829 -23.615  0.00  0.00    +0.001 C 
ATOM     16  C   UNL     1      31.249  -4.054 -22.481  0.00  0.00    +0.001 C 
BRANCH  12  17
ATOM     17  N   UNL     1      33.066  -6.457 -20.333  0.00  0.00    -0.356 N 
ATOM     18  H   UNL     1      33.162  -7.432 -20.235  0.00  0.00    +0.142 HD
ATOM     19  H   UNL     1      33.453  -5.854 -19.658  0.00  0.00    +0.142 HD
ENDBRANCH  12  17
ENDBRANCH   8  11
ENDBRANCH   2   9
BRANCH   1  20
ATOM     20  C   UNL     1      34.728 -14.120 -22.930  0.00  0.00    +0.124 C 
BRANCH  20  21
ATOM     21  N   UNL     1      34.116 -14.950 -23.944  0.00  0.00    -0.264 N 
ATOM     22  N   UNL     1      34.778 -16.933 -22.878  0.00  0.00    -0.338 NA
ATOM     23  N   UNL     1      33.525 -16.994 -24.935  0.00  0.00    -0.170 NA
ATOM     24  C   UNL     1      34.141 -16.334 -23.918  0.00  0.00    +0.145 C 
ATOM     25  C   UNL     1      34.784 -18.282 -22.884  0.00  0.00    +0.147 C 
ATOM     26  C   UNL     1      34.190 -19.046 -23.867  0.00  0.00    +0.055 C 
ATOM     27  C   UNL     1      33.569 -18.342 -24.878  0.00  0.00    +0.114 C 
ATOM     28  H   UNL     1      33.656 -14.507 -24.693  0.00  0.00    +0.160 HD
BRANCH  25  30
ATOM     29  N   UNL     1      37.430 -19.027 -20.368  0.00  0.00    -0.242 NA
ATOM     30  C   UNL     1      35.466 -18.898 -21.771  0.00  0.00    +0.050 C 
ATOM     31  C   UNL     1      34.868 -19.920 -21.039  0.00  0.00    +0.006 C 
ATOM     32  C   UNL     1      36.736 -18.492 -21.397  0.00  0.00    +0.101 C 
ATOM     33  C   UNL     1      35.549 -20.495 -19.973  0.00  0.00    +0.021 C 
ATOM     34  C   UNL     1      36.817 -20.017 -19.680  0.00  0.00    +0.099 C 
ENDBRANCH  25  30
ENDBRANCH  20  21
ENDBRANCH   1  20
TORSDOF 6
ENDMDL
MODEL 5
REMARK VINA RESULT:     -11.7      2.466     11.278
REMARK  Name = 9865515
REMARK  6 active torsions:
REMARK  status: ('A' for Active; 'I' for Inactive)
REMARK    1  A    between atoms: C_1  and  C_20
REMARK    2  A    between atoms: C_2  and  C_9
REMARK    3  A    between atoms: N_8  and  C_11
REMARK    4  A    between atoms: C_12  and  N_17
REMARK    5  A    between atoms: C_20  and  N_21
REMARK    6  A    between atoms: C_25  and  C_30
REMARK                            x       y       z     vdW  Elec       q    Type
REMARK                         _______ _______ _______ _____ _____    ______ ____
ROOT
ATOM      1  C   UNL     1      35.917 -18.607 -20.861  0.00  0.00    -0.002 C 
ATOM      2  C   UNL     1      35.401 -20.843 -19.275  0.00  0.00    +0.054 C 
ATOM      3  C   UNL     1      36.962 -19.242 -20.190  0.00  0.00    -0.002 C 
ATOM      4  C   UNL     1      34.614 -19.090 -20.739  0.00  0.00    -0.002 C 
ATOM      5  C   UNL     1      36.704 -20.360 -19.396  0.00  0.00    +0.004 C 
ATOM      6  C   UNL     1      34.357 -20.208 -19.947  0.00  0.00    +0.004 C 
ENDROOT
BRANCH   2   9
ATOM      7  O   UNL     1      34.662 -23.028 -18.974  0.00  0.00    -0.270 OA
ATOM      8  N   UNL     1      35.460 -21.881 -17.089  0.00  0.00    -0.279 N 
ATOM      9  C   UNL     1      35.132 -22.008 -18.446  0.00  0.00    +0.250 C 
ATOM     10  H   UNL     1      35.824 -21.008 -16.817  0.00  0.00    +0.155 HD
BRANCH   8  11
ATOM     11  C   UNL     1      35.334 -22.845 -16.058  0.00  0.00    +0.064 C 
ATOM     12  C   UNL     1      36.458 -23.321 -15.405  0.00  0.00    +0.055 C 
ATOM     13  C   UNL     1      34.065 -23.294 -15.730  0.00  0.00    +0.016 C 
ATOM     14  C   UNL     1      36.309 -24.271 -14.393  0.00  0.00    +0.015 C 
ATOM     15  C   UNL     1      33.916 -24.243 -14.720  0.00  0.00    +0.001 C 
ATOM     16  C   UNL     1      35.039 -24.732 -14.051  0.00  0.00    +0.001 C 
BRANCH  12  17
ATOM     17  N   UNL     1      37.754 -22.867 -15.734  0.00  0.00    -0.356 N 
ATOM     18  H   UNL     1      38.072 -22.916 -16.664  0.00  0.00    +0.142 HD
ATOM     19  H   UNL     1      38.341 -22.500 -15.033  0.00  0.00    +0.142 HD
ENDBRANCH  12  17
ENDBRANCH   8  11
ENDBRANCH   2   9
BRANCH   1  20
ATOM     20  C   UNL     1      36.193 -17.412 -21.711  0.00  0.00    +0.124 C 
BRANCH  20  21
ATOM     21  N   UNL     1      35.670 -17.597 -23.047  0.00  0.00    -0.264 N 
ATOM     22  N   UNL     1      34.491 -15.568 -22.986  0.00  0.00    -0.338 NA
ATOM     23  N   UNL     1      34.414 -16.986 -24.933  0.00  0.00    -0.170 NA
ATOM     24  C   UNL     1      34.833 -16.689 -23.674  0.00  0.00    +0.145 C 
ATOM     25  C   UNL     1      33.676 -14.706 -23.627  0.00  0.00    +0.147 C 
ATOM     26  C   UNL     1      33.193 -14.911 -24.903  0.00  0.00    +0.055 C 
ATOM     27  C   UNL     1      33.600 -16.080 -25.515  0.00  0.00    +0.114 C 
ATOM     28  H   UNL     1      35.923 -18.412 -23.537  0.00  0.00    +0.160 HD
BRANCH  25  30
ATOM     29  N   UNL     1      33.132 -11.114 -22.797  0.00  0.00    -0.242 NA
ATOM     30  C   UNL     1      33.325 -13.522 -22.879  0.00  0.00    +0.050 C 
ATOM     31  C   UNL     1      32.859 -13.611 -21.571  0.00  0.00    +0.006 C 
ATOM     32  C   UNL     1      33.442 -12.261 -23.441  0.00  0.00    +0.101 C 
ATOM     33  C   UNL     1      32.530 -12.453 -20.876  0.00  0.00    +0.021 C 
ATOM     34  C   UNL     1      32.683 -11.240 -21.528  0.00  0.00    +0.099 C 
ENDBRANCH  25  30
ENDBRANCH  20  21
ENDBRANCH   1  20
TORSDOF 6
ENDMDL
MODEL 6
REMARK VINA RESULT:     -11.5      3.348     10.892
REMARK  Name = 9865515
REMARK  6 active torsions:
REMARK  status: ('A' for Active; 'I' for Inactive)
REMARK    1  A    between atoms: C_1  and  C_20
REMARK    2  A    between atoms: C_2  and  C_9
REMARK    3  A    between atoms: N_8  and  C_11
REMARK    4  A    between atoms: C_12  and  N_17
REMARK    5  A    between atoms: C_20  and  N_21
REMARK    6  A    between atoms: C_25  and  C_30
REMARK                            x       y       z     vdW  Elec       q    Type
REMARK                         _______ _______ _______ _____ _____    ______ ____
ROOT
ATOM      1  C   UNL     1      35.010 -20.297 -19.982  0.00  0.00    -0.002 C 
ATOM      2  C   UNL     1      33.896 -22.137 -18.206  0.00  0.00    +0.054 C 
ATOM      3  C   UNL     1      35.838 -21.080 -19.178  0.00  0.00    -0.002 C 
ATOM      4  C   UNL     1      33.624 -20.434 -19.898  0.00  0.00    -0.002 C 
ATOM      5  C   UNL     1      35.282 -21.999 -18.290  0.00  0.00    +0.004 C 
ATOM      6  C   UNL     1      33.068 -21.354 -19.010  0.00  0.00    +0.004 C 
ENDROOT
BRANCH   2   9
ATOM      7  O   UNL     1      33.761 -24.252 -17.248  0.00  0.00    -0.270 OA
ATOM      8  N   UNL     1      32.291 -22.604 -16.455  0.00  0.00    -0.279 N 
ATOM      9  C   UNL     1      33.315 -23.094 -17.277  0.00  0.00    +0.250 C 
ATOM     10  H   UNL     1      32.045 -21.662 -16.594  0.00  0.00    +0.155 HD
BRANCH   8  11
ATOM     11  C   UNL     1      31.565 -23.290 -15.450  0.00  0.00    +0.064 C 
ATOM     12  C   UNL     1      30.182 -23.358 -15.510  0.00  0.00    +0.055 C 
ATOM     13  C   UNL     1      32.272 -23.881 -14.416  0.00  0.00    +0.016 C 
ATOM     14  C   UNL     1      29.488 -24.038 -14.509  0.00  0.00    +0.015 C 
ATOM     15  C   UNL     1      31.578 -24.561 -13.415  0.00  0.00    +0.001 C 
ATOM     16  C   UNL     1      30.186 -24.639 -13.461  0.00  0.00    +0.001 C 
BRANCH  12  17
ATOM     17  N   UNL     1      29.456 -22.759 -16.562  0.00  0.00    -0.356 N 
ATOM     18  H   UNL     1      28.907 -23.314 -17.161  0.00  0.00    +0.142 HD
ATOM     19  H   UNL     1      29.498 -21.784 -16.697  0.00  0.00    +0.142 HD
ENDBRANCH  12  17
ENDBRANCH   8  11
ENDBRANCH   2   9
BRANCH   1  20
ATOM     20  C   UNL     1      35.605 -19.314 -20.934  0.00  0.00    +0.124 C 
BRANCH  20  21
ATOM     21  N   UNL     1      35.142 -19.556 -22.284  0.00  0.00    -0.264 N 
ATOM     22  N   UNL     1      34.675 -17.286 -22.650  0.00  0.00    -0.338 NA
ATOM     23  N   UNL     1      34.280 -18.924 -24.372  0.00  0.00    -0.170 NA
ATOM     24  C   UNL     1      34.685 -18.558 -23.127  0.00  0.00    +0.145 C 
ATOM     25  C   UNL     1      34.224 -16.339 -23.498  0.00  0.00    +0.147 C 
ATOM     26  C   UNL     1      33.789 -16.603 -24.781  0.00  0.00    +0.055 C 
ATOM     27  C   UNL     1      33.840 -17.926 -25.168  0.00  0.00    +0.114 C 
ATOM     28  H   UNL     1      35.154 -20.481 -22.620  0.00  0.00    +0.160 HD
BRANCH  25  30
ATOM     29  N   UNL     1      33.851 -12.635 -23.339  0.00  0.00    -0.242 NA
ATOM     30  C   UNL     1      34.222 -14.995 -22.972  0.00  0.00    +0.050 C 
ATOM     31  C   UNL     1      34.570 -14.741 -21.649  0.00  0.00    +0.006 C 
ATOM     32  C   UNL     1      33.872 -13.916 -23.768  0.00  0.00    +0.101 C 
ATOM     33  C   UNL     1      34.559 -13.435 -21.171  0.00  0.00    +0.021 C 
ATOM     34  C   UNL     1      34.195 -12.427 -22.049  0.00  0.00    +0.099 C 
ENDBRANCH  25  30
ENDBRANCH  20  21
ENDBRANCH   1  20
TORSDOF 6
ENDMDL
MODEL 7
REMARK VINA RESULT:     -11.5      2.530      4.871
REMARK  Name = 9865515
REMARK  6 active torsions:
REMARK  status: ('A' for Active; 'I' for Inactive)
REMARK    1  A    between atoms: C_1  and  C_20
REMARK    2  A    between atoms: C_2  and  C_9
REMARK    3  A    between atoms: N_8  and  C_11
REMARK    4  A    between atoms: C_12  and  N_17
REMARK    5  A    between atoms: C_20  and  N_21
REMARK    6  A    between atoms: C_25  and  C_30
REMARK                            x       y       z     vdW  Elec       q    Type
REMARK                         _______ _______ _______ _____ _____    ______ ____
ROOT
ATOM      1  C   UNL     1      34.233 -22.374 -18.604  0.00  0.00    -0.002 C 
ATOM      2  C   UNL     1      35.049 -20.071 -19.948  0.00  0.00    +0.054 C 
ATOM      3  C   UNL     1      35.590 -22.064 -18.697  0.00  0.00    -0.002 C 
ATOM      4  C   UNL     1      33.284 -21.533 -19.184  0.00  0.00    -0.002 C 
ATOM      5  C   UNL     1      35.998 -20.913 -19.369  0.00  0.00    +0.004 C 
ATOM      6  C   UNL     1      33.692 -20.381 -19.856  0.00  0.00    +0.004 C 
ENDROOT
BRANCH   2   9
ATOM      7  O   UNL     1      36.591 -18.387 -20.399  0.00  0.00    -0.270 OA
ATOM      8  N   UNL     1      34.574 -18.364 -21.598  0.00  0.00    -0.279 N 
ATOM      9  C   UNL     1      35.475 -18.870 -20.652  0.00  0.00    +0.250 C 
ATOM     10  H   UNL     1      33.726 -18.856 -21.687  0.00  0.00    +0.155 HD
BRANCH   8  11
ATOM     11  C   UNL     1      34.725 -17.236 -22.443  0.00  0.00    +0.064 C 
ATOM     12  C   UNL     1      34.909 -15.976 -21.900  0.00  0.00    +0.055 C 
ATOM     13  C   UNL     1      34.681 -17.432 -23.814  0.00  0.00    +0.016 C 
ATOM     14  C   UNL     1      35.054 -14.880 -22.752  0.00  0.00    +0.015 C 
ATOM     15  C   UNL     1      34.827 -16.337 -24.665  0.00  0.00    +0.001 C 
ATOM     16  C   UNL     1      35.013 -15.061 -24.134  0.00  0.00    +0.001 C 
BRANCH  12  17
ATOM     17  N   UNL     1      34.955 -15.770 -20.504  0.00  0.00    -0.356 N 
ATOM     18  H   UNL     1      34.323 -15.148 -20.076  0.00  0.00    +0.142 HD
ATOM     19  H   UNL     1      35.620 -16.249 -19.957  0.00  0.00    +0.142 HD
ENDBRANCH  12  17
ENDBRANCH   8  11
ENDBRANCH   2   9
BRANCH   1  20
ATOM     20  C   UNL     1      33.796 -23.606 -17.884  0.00  0.00    +0.124 C 
BRANCH  20  21
ATOM     21  N   UNL     1      34.137 -23.532 -16.480  0.00  0.00    -0.264 N 
ATOM     22  N   UNL     1      31.902 -23.204 -15.841  0.00  0.00    -0.338 NA
ATOM     23  N   UNL     1      33.661 -23.285 -14.195  0.00  0.00    -0.170 NA
ATOM     24  C   UNL     1      33.205 -23.334 -15.475  0.00  0.00    +0.145 C 
ATOM     25  C   UNL     1      31.022 -23.013 -14.837  0.00  0.00    +0.147 C 
ATOM     26  C   UNL     1      31.379 -22.947 -13.506  0.00  0.00    +0.055 C 
ATOM     27  C   UNL     1      32.726 -23.091 -13.241  0.00  0.00    +0.114 C 
ATOM     28  H   UNL     1      35.083 -23.627 -16.225  0.00  0.00    +0.160 HD
BRANCH  25  30
ATOM     29  N   UNL     1      27.445 -21.969 -14.823  0.00  0.00    -0.242 NA
ATOM     30  C   UNL     1      29.644 -22.877 -15.246  0.00  0.00    +0.050 C 
ATOM     31  C   UNL     1      29.176 -23.489 -16.405  0.00  0.00    +0.006 C 
ATOM     32  C   UNL     1      28.745 -22.135 -14.498  0.00  0.00    +0.101 C 
ATOM     33  C   UNL     1      27.844 -23.341 -16.773  0.00  0.00    +0.021 C 
ATOM     34  C   UNL     1      27.026 -22.578 -15.956  0.00  0.00    +0.099 C 
ENDBRANCH  25  30
ENDBRANCH  20  21
ENDBRANCH   1  20
TORSDOF 6
ENDMDL
MODEL 8
REMARK VINA RESULT:     -11.3      4.412     12.399
REMARK  Name = 9865515
REMARK  6 active torsions:
REMARK  status: ('A' for Active; 'I' for Inactive)
REMARK    1  A    between atoms: C_1  and  C_20
REMARK    2  A    between atoms: C_2  and  C_9
REMARK    3  A    between atoms: N_8  and  C_11
REMARK    4  A    between atoms: C_12  and  N_17
REMARK    5  A    between atoms: C_20  and  N_21
REMARK    6  A    between atoms: C_25  and  C_30
REMARK                            x       y       z     vdW  Elec       q    Type
REMARK                         _______ _______ _______ _____ _____    ______ ____
ROOT
ATOM      1  C   UNL     1      33.519 -14.916 -24.556  0.00  0.00    -0.002 C 
ATOM      2  C   UNL     1      34.740 -16.929 -23.061  0.00  0.00    +0.054 C 
ATOM      3  C   UNL     1      33.998 -14.641 -23.275  0.00  0.00    -0.002 C 
ATOM      4  C   UNL     1      33.652 -16.197 -25.090  0.00  0.00    -0.002 C 
ATOM      5  C   UNL     1      34.607 -15.648 -22.527  0.00  0.00    +0.004 C 
ATOM      6  C   UNL     1      34.262 -17.204 -24.342  0.00  0.00    +0.004 C 
ENDROOT
BRANCH   2   9
ATOM      7  O   UNL     1      36.584 -18.207 -22.445  0.00  0.00    -0.270 OA
ATOM      8  N   UNL     1      34.547 -18.647 -21.367  0.00  0.00    -0.279 N 
ATOM      9  C   UNL     1      35.374 -17.980 -22.280  0.00  0.00    +0.250 C 
ATOM     10  H   UNL     1      33.606 -18.357 -21.350  0.00  0.00    +0.155 HD
BRANCH   8  11
ATOM     11  C   UNL     1      34.887 -19.685 -20.464  0.00  0.00    +0.064 C 
ATOM     12  C   UNL     1      33.899 -20.485 -19.913  0.00  0.00    +0.055 C 
ATOM     13  C   UNL     1      36.224 -19.872 -20.152  0.00  0.00    +0.016 C 
ATOM     14  C   UNL     1      34.259 -21.500 -19.026  0.00  0.00    +0.015 C 
ATOM     15  C   UNL     1      36.583 -20.887 -19.266  0.00  0.00    +0.001 C 
ATOM     16  C   UNL     1      35.600 -21.701 -18.702  0.00  0.00    +0.001 C 
BRANCH  12  17
ATOM     17  N   UNL     1      32.535 -20.300 -20.228  0.00  0.00    -0.356 N 
ATOM     18  H   UNL     1      32.179 -19.392 -20.362  0.00  0.00    +0.142 HD
ATOM     19  H   UNL     1      31.939 -21.080 -20.314  0.00  0.00    +0.142 HD
ENDBRANCH  12  17
ENDBRANCH   8  11
ENDBRANCH   2   9
BRANCH   1  20
ATOM     20  C   UNL     1      32.868 -13.838 -25.357  0.00  0.00    +0.124 C 
BRANCH  20  21
ATOM     21  N   UNL     1      33.819 -12.803 -25.701  0.00  0.00    -0.264 N 
ATOM     22  N   UNL     1      33.235 -11.496 -23.841  0.00  0.00    -0.338 NA
ATOM     23  N   UNL     1      34.928 -10.759 -25.390  0.00  0.00    -0.170 NA
ATOM     24  C   UNL     1      33.999 -11.651 -24.955  0.00  0.00    +0.145 C 
ATOM     25  C   UNL     1      33.437 -10.363 -23.139  0.00  0.00    +0.147 C 
ATOM     26  C   UNL     1      34.353  -9.393 -23.493  0.00  0.00    +0.055 C 
ATOM     27  C   UNL     1      35.078  -9.647 -24.640  0.00  0.00    +0.114 C 
ATOM     28  H   UNL     1      34.367 -12.926 -26.509  0.00  0.00    +0.160 HD
BRANCH  25  30
ATOM     29  N   UNL     1      31.616  -8.764 -20.307  0.00  0.00    -0.242 NA
ATOM     30  C   UNL     1      32.616 -10.217 -21.960  0.00  0.00    +0.050 C 
ATOM     31  C   UNL     1      32.045 -11.325 -21.342  0.00  0.00    +0.006 C 
ATOM     32  C   UNL     1      32.372  -8.970 -21.408  0.00  0.00    +0.101 C 
ATOM     33  C   UNL     1      31.260 -11.153 -20.207  0.00  0.00    +0.021 C 
ATOM     34  C   UNL     1      31.077  -9.863 -19.734  0.00  0.00    +0.099 C 
ENDBRANCH  25  30
ENDBRANCH  20  21
ENDBRANCH   1  20
TORSDOF 6
ENDMDL
MODEL 9
REMARK VINA RESULT:     -11.3      1.597      2.554
REMARK  Name = 9865515
REMARK  6 active torsions:
REMARK  status: ('A' for Active; 'I' for Inactive)
REMARK    1  A    between atoms: C_1  and  C_20
REMARK    2  A    between atoms: C_2  and  C_9
REMARK    3  A    between atoms: N_8  and  C_11
REMARK    4  A    between atoms: C_12  and  N_17
REMARK    5  A    between atoms: C_20  and  N_21
REMARK    6  A    between atoms: C_25  and  C_30
REMARK                            x       y       z     vdW  Elec       q    Type
REMARK                         _______ _______ _______ _____ _____    ______ ____
ROOT
ATOM      1  C   UNL     1      35.495 -20.722 -19.593  0.00  0.00    -0.002 C 
ATOM      2  C   UNL     1      35.371 -18.586 -21.382  0.00  0.00    +0.054 C 
ATOM      3  C   UNL     1      36.638 -19.967 -19.859  0.00  0.00    -0.002 C 
ATOM      4  C   UNL     1      34.290 -20.409 -20.222  0.00  0.00    -0.002 C 
ATOM      5  C   UNL     1      36.576 -18.899 -20.754  0.00  0.00    +0.004 C 
ATOM      6  C   UNL     1      34.228 -19.341 -21.116  0.00  0.00    +0.004 C 
ENDROOT
BRANCH   2   9
ATOM      7  O   UNL     1      35.875 -17.577 -23.417  0.00  0.00    -0.270 OA
ATOM      8  N   UNL     1      34.567 -16.361 -21.895  0.00  0.00    -0.279 N 
ATOM      9  C   UNL     1      35.306 -17.474 -22.318  0.00  0.00    +0.250 C 
ATOM     10  H   UNL     1      34.173 -16.425 -20.995  0.00  0.00    +0.155 HD
BRANCH   8  11
ATOM     11  C   UNL     1      34.311 -15.155 -22.595  0.00  0.00    +0.064 C 
ATOM     12  C   UNL     1      33.844 -15.189 -23.899  0.00  0.00    +0.055 C 
ATOM     13  C   UNL     1      34.543 -13.955 -21.942  0.00  0.00    +0.016 C 
ATOM     14  C   UNL     1      33.601 -13.989 -24.567  0.00  0.00    +0.015 C 
ATOM     15  C   UNL     1      34.300 -12.756 -22.611  0.00  0.00    +0.001 C 
ATOM     16  C   UNL     1      33.829 -12.772 -23.924  0.00  0.00    +0.001 C 
BRANCH  12  17
ATOM     17  N   UNL     1      33.605 -16.408 -24.569  0.00  0.00    -0.356 N 
ATOM     18  H   UNL     1      32.964 -16.443 -25.315  0.00  0.00    +0.142 HD
ATOM     19  H   UNL     1      34.080 -17.225 -24.290  0.00  0.00    +0.142 HD
ENDBRANCH  12  17
ENDBRANCH   8  11
ENDBRANCH   2   9
BRANCH   1  20
ATOM     20  C   UNL     1      35.561 -21.863 -18.634  0.00  0.00    +0.124 C 
BRANCH  20  21
ATOM     21  N   UNL     1      34.263 -22.120 -18.047  0.00  0.00    -0.264 N 
ATOM     22  N   UNL     1      35.196 -23.223 -16.197  0.00  0.00    -0.338 NA
ATOM     23  N   UNL     1      32.810 -22.962 -16.408  0.00  0.00    -0.170 NA
ATOM     24  C   UNL     1      34.085 -22.789 -16.848  0.00  0.00    +0.145 C 
ATOM     25  C   UNL     1      34.985 -23.871 -15.033  0.00  0.00    +0.147 C 
ATOM     26  C   UNL     1      33.734 -24.100 -14.499  0.00  0.00    +0.055 C 
ATOM     27  C   UNL     1      32.672 -23.618 -15.237  0.00  0.00    +0.114 C 
ATOM     28  H   UNL     1      33.465 -21.801 -18.526  0.00  0.00    +0.160 HD
BRANCH  25  30
ATOM     29  N   UNL     1      38.351 -23.806 -13.434  0.00  0.00    -0.242 NA
ATOM     30  C   UNL     1      36.178 -24.324 -14.358  0.00  0.00    +0.050 C 
ATOM     31  C   UNL     1      36.329 -25.656 -13.985  0.00  0.00    +0.006 C 
ATOM     32  C   UNL     1      37.209 -23.447 -14.062  0.00  0.00    +0.101 C 
ATOM     33  C   UNL     1      37.490 -26.063 -13.336  0.00  0.00    +0.021 C 
ATOM     34  C   UNL     1      38.462 -25.108 -13.086  0.00  0.00    +0.099 C 
ENDBRANCH  25  30
ENDBRANCH  20  21
ENDBRANCH   1  20
TORSDOF 6
ENDMDL
