MODEL 1
REMARK VINA RESULT:     -12.3      0.000      0.000
REMARK  Name = 45268539
REMARK  6 active torsions:
REMARK  status: ('A' for Active; 'I' for Inactive)
REMARK    1  A    between atoms: N_2  and  C_22
REMARK    2  A    between atoms: N_3  and  C_7
REMARK    3  A    between atoms: N_3  and  O_12
REMARK    4  A    between atoms: C_8  and  C_14
REMARK    5  A    between atoms: C_15  and  C_16
REMARK    6  A    between atoms: C_22  and  C_26
REMARK                            x       y       z     vdW  Elec       q    Type
REMARK                         _______ _______ _______ _____ _____    ______ ____
ROOT
ATOM      1  O   UNL     1      31.895 -23.628 -16.556  0.00  0.00    -0.273 OA
ATOM      2  N   UNL     1      34.070 -23.221 -15.689  0.00  0.00    -0.253 N 
ATOM      3  C   UNL     1      35.206 -22.571 -16.209  0.00  0.00    +0.052 C 
ATOM      4  C   UNL     1      34.948 -22.088 -17.492  0.00  0.00    +0.018 C 
ATOM      5  C   UNL     1      33.026 -23.194 -16.599  0.00  0.00    +0.252 C 
ATOM      6  C   UNL     1      33.577 -22.455 -17.794  0.00  0.00    +0.202 C 
ATOM      7  C   UNL     1      35.884 -21.408 -18.241  0.00  0.00    -0.001 C 
ATOM      8  C   UNL     1      36.444 -22.380 -15.624  0.00  0.00    +0.015 C 
ATOM      9  C   UNL     1      37.136 -21.212 -17.657  0.00  0.00    -0.000 C 
ATOM     10  C   UNL     1      37.414 -21.692 -16.363  0.00  0.00    +0.001 C 
ENDROOT
BRANCH   7  11
ATOM     11  C   UNL     1      35.622 -20.906 -19.578  0.00  0.00    -0.000 C 
ATOM     12  C   UNL     1      35.496 -19.597 -19.911  0.00  0.00    -0.000 C 
BRANCH  12  13
ATOM     13  C   UNL     1      35.247 -19.085 -21.271  0.00  0.00    -0.000 C 
ATOM     14  C   UNL     1      34.711 -19.927 -22.245  0.00  0.00    -0.000 C 
ATOM     15  C   UNL     1      35.545 -17.759 -21.582  0.00  0.00    -0.000 C 
ATOM     16  C   UNL     1      34.474 -19.442 -23.532  0.00  0.00    +0.000 C 
ATOM     17  C   UNL     1      35.309 -17.274 -22.868  0.00  0.00    +0.000 C 
ATOM     18  C   UNL     1      34.774 -18.116 -23.844  0.00  0.00    +0.000 C 
ENDBRANCH  12  13
ENDBRANCH   7  11
BRANCH   6  19
ATOM     19  N   UNL     1      32.900 -22.224 -18.862  0.00  0.00    -0.075 NA
BRANCH  19  20
ATOM     20  O   UNL     1      32.274 -20.981 -18.731  0.00  0.00    -0.294 OA
ATOM     21  H   UNL     1      32.667 -20.312 -18.206  0.00  0.00    +0.238 HD
ENDBRANCH  19  20
ENDBRANCH   6  19
BRANCH   2  22
ATOM     22  C   UNL     1      34.030 -23.824 -14.380  0.00  0.00    +0.128 C 
BRANCH  22  26
ATOM     23  F   UNL     1      36.924 -27.540 -15.590  0.00  0.00    -0.204 F 
ATOM     24  O   UNL     1      35.739 -23.368 -12.213  0.00  0.00    -0.448 OA
ATOM     25  O   UNL     1      37.370 -24.167 -10.643  0.00  0.00    -0.311 OA
ATOM     26  C   UNL     1      35.239 -24.673 -14.114  0.00  0.00    +0.034 C 
ATOM     27  C   UNL     1      36.075 -24.421 -13.026  0.00  0.00    +0.138 C 
ATOM     28  C   UNL     1      37.190 -25.233 -12.782  0.00  0.00    +0.043 C 
ATOM     29  C   UNL     1      35.528 -25.729 -14.978  0.00  0.00    +0.030 C 
ATOM     30  C   UNL     1      38.075 -24.948 -11.608  0.00  0.00    +0.176 C 
ATOM     31  C   UNL     1      37.478 -26.282 -13.661  0.00  0.00    +0.031 C 
ATOM     32  C   UNL     1      36.647 -26.530 -14.755  0.00  0.00    +0.140 C 
ATOM     33  C   UNL     1      36.763 -23.039 -11.269  0.00  0.00    +0.361 C 
ENDBRANCH  22  26
ENDBRANCH   2  22
TORSDOF 6
ENDMDL
MODEL 2
REMARK VINA RESULT:     -11.6      6.240     12.267
REMARK  Name = 45268539
REMARK  6 active torsions:
REMARK  status: ('A' for Active; 'I' for Inactive)
REMARK    1  A    between atoms: N_2  and  C_22
REMARK    2  A    between atoms: N_3  and  C_7
REMARK    3  A    between atoms: N_3  and  O_12
REMARK    4  A    between atoms: C_8  and  C_14
REMARK    5  A    between atoms: C_15  and  C_16
REMARK    6  A    between atoms: C_22  and  C_26
REMARK                            x       y       z     vdW  Elec       q    Type
REMARK                         _______ _______ _______ _____ _____    ______ ____
ROOT
ATOM      1  O   UNL     1      35.173 -13.887 -20.972  0.00  0.00    -0.273 OA
ATOM      2  N   UNL     1      34.524 -14.837 -23.052  0.00  0.00    -0.253 N 
ATOM      3  C   UNL     1      34.374 -16.165 -23.497  0.00  0.00    +0.052 C 
ATOM      4  C   UNL     1      34.682 -17.061 -22.473  0.00  0.00    +0.018 C 
ATOM      5  C   UNL     1      34.932 -14.803 -21.729  0.00  0.00    +0.252 C 
ATOM      6  C   UNL     1      35.044 -16.253 -21.324  0.00  0.00    +0.202 C 
ATOM      7  C   UNL     1      34.622 -18.429 -22.629  0.00  0.00    -0.001 C 
ATOM      8  C   UNL     1      33.987 -16.627 -24.741  0.00  0.00    +0.015 C 
ATOM      9  C   UNL     1      34.231 -18.904 -23.882  0.00  0.00    -0.000 C 
ATOM     10  C   UNL     1      33.917 -18.013 -24.927  0.00  0.00    +0.001 C 
ENDROOT
BRANCH   7  11
ATOM     11  C   UNL     1      34.942 -19.366 -21.568  0.00  0.00    -0.000 C 
ATOM     12  C   UNL     1      34.075 -19.805 -20.622  0.00  0.00    -0.000 C 
BRANCH  12  13
ATOM     13  C   UNL     1      34.395 -20.769 -19.555  0.00  0.00    -0.000 C 
ATOM     14  C   UNL     1      35.716 -20.938 -19.141  0.00  0.00    -0.000 C 
ATOM     15  C   UNL     1      33.377 -21.512 -18.957  0.00  0.00    -0.000 C 
ATOM     16  C   UNL     1      36.020 -21.851 -18.130  0.00  0.00    +0.000 C 
ATOM     17  C   UNL     1      33.680 -22.424 -17.947  0.00  0.00    +0.000 C 
ATOM     18  C   UNL     1      35.001 -22.595 -17.534  0.00  0.00    +0.000 C 
ENDBRANCH  12  13
ENDBRANCH   7  11
BRANCH   6  19
ATOM     19  N   UNL     1      35.404 -16.639 -20.151  0.00  0.00    -0.075 NA
BRANCH  19  20
ATOM     20  O   UNL     1      34.729 -15.865 -19.203  0.00  0.00    -0.294 OA
ATOM     21  H   UNL     1      35.095 -15.050 -18.918  0.00  0.00    +0.238 HD
ENDBRANCH  19  20
ENDBRANCH   6  19
BRANCH   2  22
ATOM     22  C   UNL     1      34.277 -13.687 -23.886  0.00  0.00    +0.128 C 
BRANCH  22  26
ATOM     23  F   UNL     1      31.022 -12.283 -20.558  0.00  0.00    -0.204 F 
ATOM     24  O   UNL     1      34.786 -10.976 -24.344  0.00  0.00    -0.448 OA
ATOM     25  O   UNL     1      34.083  -8.682 -24.260  0.00  0.00    -0.311 OA
ATOM     26  C   UNL     1      33.561 -12.597 -23.144  0.00  0.00    +0.034 C 
ATOM     27  C   UNL     1      33.838 -11.252 -23.392  0.00  0.00    +0.138 C 
ATOM     28  C   UNL     1      33.149 -10.246 -22.702  0.00  0.00    +0.043 C 
ATOM     29  C   UNL     1      32.608 -12.942 -22.186  0.00  0.00    +0.030 C 
ATOM     30  C   UNL     1      33.458  -8.807 -22.983  0.00  0.00    +0.176 C 
ATOM     31  C   UNL     1      32.204 -10.602 -21.735  0.00  0.00    +0.031 C 
ATOM     32  C   UNL     1      31.933 -11.947 -21.480  0.00  0.00    +0.140 C 
ATOM     33  C   UNL     1      35.171  -9.597 -24.370  0.00  0.00    +0.361 C 
ENDBRANCH  22  26
ENDBRANCH   2  22
TORSDOF 6
ENDMDL
MODEL 3
REMARK VINA RESULT:     -11.3      7.196     13.129
REMARK  Name = 45268539
REMARK  6 active torsions:
REMARK  status: ('A' for Active; 'I' for Inactive)
REMARK    1  A    between atoms: N_2  and  C_22
REMARK    2  A    between atoms: N_3  and  C_7
REMARK    3  A    between atoms: N_3  and  O_12
REMARK    4  A    between atoms: C_8  and  C_14
REMARK    5  A    between atoms: C_15  and  C_16
REMARK    6  A    between atoms: C_22  and  C_26
REMARK                            x       y       z     vdW  Elec       q    Type
REMARK                         _______ _______ _______ _____ _____    ______ ____
ROOT
ATOM      1  O   UNL     1      33.175 -12.633 -20.782  0.00  0.00    -0.273 OA
ATOM      2  N   UNL     1      33.133 -13.323 -23.056  0.00  0.00    -0.253 N 
ATOM      3  C   UNL     1      33.592 -14.478 -23.719  0.00  0.00    +0.052 C 
ATOM      4  C   UNL     1      34.181 -15.359 -22.812  0.00  0.00    +0.018 C 
ATOM      5  C   UNL     1      33.397 -13.395 -21.698  0.00  0.00    +0.252 C 
ATOM      6  C   UNL     1      34.087 -14.725 -21.511  0.00  0.00    +0.202 C 
ATOM      7  C   UNL     1      34.718 -16.573 -23.186  0.00  0.00    -0.001 C 
ATOM      8  C   UNL     1      33.522 -14.795 -25.063  0.00  0.00    +0.015 C 
ATOM      9  C   UNL     1      34.651 -16.901 -24.541  0.00  0.00    -0.000 C 
ATOM     10  C   UNL     1      34.060 -16.022 -25.469  0.00  0.00    +0.001 C 
ENDROOT
BRANCH   7  11
ATOM     11  C   UNL     1      35.334 -17.493 -22.248  0.00  0.00    -0.000 C 
ATOM     12  C   UNL     1      34.691 -18.492 -21.594  0.00  0.00    -0.000 C 
BRANCH  12  13
ATOM     13  C   UNL     1      35.319 -19.437 -20.654  0.00  0.00    -0.000 C 
ATOM     14  C   UNL     1      34.557 -20.447 -20.067  0.00  0.00    -0.000 C 
ATOM     15  C   UNL     1      36.676 -19.323 -20.353  0.00  0.00    -0.000 C 
ATOM     16  C   UNL     1      35.152 -21.343 -19.177  0.00  0.00    +0.000 C 
ATOM     17  C   UNL     1      37.271 -20.218 -19.464  0.00  0.00    +0.000 C 
ATOM     18  C   UNL     1      36.509 -21.228 -18.875  0.00  0.00    +0.000 C 
ENDBRANCH  12  13
ENDBRANCH   7  11
BRANCH   6  19
ATOM     19  N   UNL     1      34.497 -15.160 -20.373  0.00  0.00    -0.075 NA
BRANCH  19  20
ATOM     20  O   UNL     1      35.228 -14.147 -19.748  0.00  0.00    -0.294 OA
ATOM     21  H   UNL     1      34.849 -13.297 -19.634  0.00  0.00    +0.238 HD
ENDBRANCH  19  20
ENDBRANCH   6  19
BRANCH   2  22
ATOM     22  C   UNL     1      32.477 -12.229 -23.729  0.00  0.00    +0.128 C 
BRANCH  22  26
ATOM     23  F   UNL     1      36.251  -9.895 -25.719  0.00  0.00    -0.204 F 
ATOM     24  O   UNL     1      32.078  -9.961 -22.141  0.00  0.00    -0.448 OA
ATOM     25  O   UNL     1      32.927  -7.970 -21.104  0.00  0.00    -0.311 OA
ATOM     26  C   UNL     1      33.357 -11.016 -23.820  0.00  0.00    +0.034 C 
ATOM     27  C   UNL     1      33.132  -9.898 -23.017  0.00  0.00    +0.138 C 
ATOM     28  C   UNL     1      33.972  -8.781 -23.103  0.00  0.00    +0.043 C 
ATOM     29  C   UNL     1      34.413 -11.013 -24.732  0.00  0.00    +0.030 C 
ATOM     30  C   UNL     1      33.717  -7.590 -22.231  0.00  0.00    +0.176 C 
ATOM     31  C   UNL     1      35.021  -8.782 -24.028  0.00  0.00    +0.031 C 
ATOM     32  C   UNL     1      35.241  -9.896 -24.839  0.00  0.00    +0.140 C 
ATOM     33  C   UNL     1      31.780  -8.702 -21.530  0.00  0.00    +0.361 C 
ENDBRANCH  22  26
ENDBRANCH   2  22
TORSDOF 6
ENDMDL
MODEL 4
REMARK VINA RESULT:     -11.3      4.100     10.350
REMARK  Name = 45268539
REMARK  6 active torsions:
REMARK  status: ('A' for Active; 'I' for Inactive)
REMARK    1  A    between atoms: N_2  and  C_22
REMARK    2  A    between atoms: N_3  and  C_7
REMARK    3  A    between atoms: N_3  and  O_12
REMARK    4  A    between atoms: C_8  and  C_14
REMARK    5  A    between atoms: C_15  and  C_16
REMARK    6  A    between atoms: C_22  and  C_26
REMARK                            x       y       z     vdW  Elec       q    Type
REMARK                         _______ _______ _______ _____ _____    ______ ____
ROOT
ATOM      1  O   UNL     1      37.983 -18.975 -20.667  0.00  0.00    -0.273 OA
ATOM      2  N   UNL     1      35.728 -18.977 -21.420  0.00  0.00    -0.253 N 
ATOM      3  C   UNL     1      34.561 -19.616 -20.959  0.00  0.00    +0.052 C 
ATOM      4  C   UNL     1      34.842 -20.391 -19.833  0.00  0.00    +0.018 C 
ATOM      5  C   UNL     1      36.815 -19.300 -20.625  0.00  0.00    +0.252 C 
ATOM      6  C   UNL     1      36.259 -20.229 -19.573  0.00  0.00    +0.202 C 
ATOM      7  C   UNL     1      33.883 -21.128 -19.171  0.00  0.00    -0.001 C 
ATOM      8  C   UNL     1      33.277 -19.557 -21.468  0.00  0.00    +0.015 C 
ATOM      9  C   UNL     1      32.584 -21.073 -19.679  0.00  0.00    -0.000 C 
ATOM     10  C   UNL     1      32.284 -20.297 -20.815  0.00  0.00    +0.001 C 
ENDROOT
BRANCH   7  11
ATOM     11  C   UNL     1      34.169 -21.937 -18.000  0.00  0.00    -0.000 C 
ATOM     12  C   UNL     1      33.250 -22.354 -17.094  0.00  0.00    -0.000 C 
BRANCH  12  13
ATOM     13  C   UNL     1      33.537 -23.190 -15.914  0.00  0.00    -0.000 C 
ATOM     14  C   UNL     1      32.507 -23.544 -15.043  0.00  0.00    -0.000 C 
ATOM     15  C   UNL     1      34.839 -23.628 -15.670  0.00  0.00    -0.000 C 
ATOM     16  C   UNL     1      32.779 -24.335 -13.926  0.00  0.00    +0.000 C 
ATOM     17  C   UNL     1      35.111 -24.419 -14.554  0.00  0.00    +0.000 C 
ATOM     18  C   UNL     1      34.081 -24.772 -13.681  0.00  0.00    +0.000 C 
ENDBRANCH  12  13
ENDBRANCH   7  11
BRANCH   6  19
ATOM     19  N   UNL     1      36.970 -20.753 -18.639  0.00  0.00    -0.075 NA
BRANCH  19  20
ATOM     20  O   UNL     1      37.428 -19.731 -17.803  0.00  0.00    -0.294 OA
ATOM     21  H   UNL     1      38.348 -19.578 -17.711  0.00  0.00    +0.238 HD
ENDBRANCH  19  20
ENDBRANCH   6  19
BRANCH   2  22
ATOM     22  C   UNL     1      35.756 -18.107 -22.571  0.00  0.00    +0.128 C 
BRANCH  22  26
ATOM     23  F   UNL     1      34.926 -14.524 -19.390  0.00  0.00    -0.204 F 
ATOM     24  O   UNL     1      34.544 -16.494 -24.507  0.00  0.00    -0.448 OA
ATOM     25  O   UNL     1      33.054 -14.705 -25.091  0.00  0.00    -0.311 OA
ATOM     26  C   UNL     1      35.212 -16.744 -22.258  0.00  0.00    +0.034 C 
ATOM     27  C   UNL     1      34.614 -15.960 -23.245  0.00  0.00    +0.138 C 
ATOM     28  C   UNL     1      34.097 -14.696 -22.934  0.00  0.00    +0.043 C 
ATOM     29  C   UNL     1      35.315 -16.256 -20.955  0.00  0.00    +0.030 C 
ATOM     30  C   UNL     1      33.457 -13.870 -24.007  0.00  0.00    +0.176 C 
ATOM     31  C   UNL     1      34.215 -14.211 -21.628  0.00  0.00    +0.031 C 
ATOM     32  C   UNL     1      34.821 -14.990 -20.641  0.00  0.00    +0.140 C 
ATOM     33  C   UNL     1      34.133 -15.545 -25.496  0.00  0.00    +0.361 C 
ENDBRANCH  22  26
ENDBRANCH   2  22
TORSDOF 6
ENDMDL
MODEL 5
REMARK VINA RESULT:     -11.0      1.769      2.306
REMARK  Name = 45268539
REMARK  6 active torsions:
REMARK  status: ('A' for Active; 'I' for Inactive)
REMARK    1  A    between atoms: N_2  and  C_22
REMARK    2  A    between atoms: N_3  and  C_7
REMARK    3  A    between atoms: N_3  and  O_12
REMARK    4  A    between atoms: C_8  and  C_14
REMARK    5  A    between atoms: C_15  and  C_16
REMARK    6  A    between atoms: C_22  and  C_26
REMARK                            x       y       z     vdW  Elec       q    Type
REMARK                         _______ _______ _______ _____ _____    ______ ____
ROOT
ATOM      1  O   UNL     1      31.900 -23.790 -16.348  0.00  0.00    -0.273 OA
ATOM      2  N   UNL     1      34.063 -23.458 -15.418  0.00  0.00    -0.253 N 
ATOM      3  C   UNL     1      35.230 -22.835 -15.899  0.00  0.00    +0.052 C 
ATOM      4  C   UNL     1      35.021 -22.330 -17.182  0.00  0.00    +0.018 C 
ATOM      5  C   UNL     1      33.045 -23.389 -16.354  0.00  0.00    +0.252 C 
ATOM      6  C   UNL     1      33.649 -22.651 -17.525  0.00  0.00    +0.202 C 
ATOM      7  C   UNL     1      35.997 -21.668 -17.897  0.00  0.00    -0.001 C 
ATOM      8  C   UNL     1      36.457 -22.689 -15.278  0.00  0.00    +0.015 C 
ATOM      9  C   UNL     1      37.238 -21.516 -17.277  0.00  0.00    -0.000 C 
ATOM     10  C   UNL     1      37.466 -22.021 -15.982  0.00  0.00    +0.001 C 
ENDROOT
BRANCH   7  11
ATOM     11  C   UNL     1      35.785 -21.141 -19.232  0.00  0.00    -0.000 C 
ATOM     12  C   UNL     1      35.589 -19.834 -19.536  0.00  0.00    -0.000 C 
BRANCH  12  13
ATOM     13  C   UNL     1      35.391 -19.296 -20.894  0.00  0.00    -0.000 C 
ATOM     14  C   UNL     1      34.259 -19.653 -21.628  0.00  0.00    -0.000 C 
ATOM     15  C   UNL     1      36.334 -18.429 -21.445  0.00  0.00    -0.000 C 
ATOM     16  C   UNL     1      34.072 -19.144 -22.914  0.00  0.00    +0.000 C 
ATOM     17  C   UNL     1      36.147 -17.920 -22.730  0.00  0.00    +0.000 C 
ATOM     18  C   UNL     1      35.016 -18.278 -23.465  0.00  0.00    +0.000 C 
ENDBRANCH  12  13
ENDBRANCH   7  11
BRANCH   6  19
ATOM     19  N   UNL     1      33.008 -22.388 -18.607  0.00  0.00    -0.075 NA
BRANCH  19  20
ATOM     20  O   UNL     1      32.203 -21.266 -18.385  0.00  0.00    -0.294 OA
ATOM     21  H   UNL     1      32.543 -20.533 -17.910  0.00  0.00    +0.238 HD
ENDBRANCH  19  20
ENDBRANCH   6  19
BRANCH   2  22
ATOM     22  C   UNL     1      33.970 -24.076 -14.118  0.00  0.00    +0.128 C 
BRANCH  22  26
ATOM     23  F   UNL     1      37.097 -22.390 -10.798  0.00  0.00    -0.204 F 
ATOM     24  O   UNL     1      35.900 -25.990 -14.776  0.00  0.00    -0.448 OA
ATOM     25  O   UNL     1      38.192 -26.702 -14.828  0.00  0.00    -0.311 OA
ATOM     26  C   UNL     1      35.302 -24.145 -13.431  0.00  0.00    +0.034 C 
ATOM     27  C   UNL     1      36.246 -25.113 -13.779  0.00  0.00    +0.138 C 
ATOM     28  C   UNL     1      37.491 -25.153 -13.140  0.00  0.00    +0.043 C 
ATOM     29  C   UNL     1      35.594 -23.225 -12.424  0.00  0.00    +0.030 C 
ATOM     30  C   UNL     1      38.492 -26.198 -13.527  0.00  0.00    +0.176 C 
ATOM     31  C   UNL     1      37.770 -24.234 -12.123  0.00  0.00    +0.031 C 
ATOM     32  C   UNL     1      36.824 -23.271 -11.768  0.00  0.00    +0.140 C 
ATOM     33  C   UNL     1      36.820 -27.079 -14.908  0.00  0.00    +0.361 C 
ENDBRANCH  22  26
ENDBRANCH   2  22
TORSDOF 6
ENDMDL
MODEL 6
REMARK VINA RESULT:     -10.7      5.926      9.893
REMARK  Name = 45268539
REMARK  6 active torsions:
REMARK  status: ('A' for Active; 'I' for Inactive)
REMARK    1  A    between atoms: N_2  and  C_22
REMARK    2  A    between atoms: N_3  and  C_7
REMARK    3  A    between atoms: N_3  and  O_12
REMARK    4  A    between atoms: C_8  and  C_14
REMARK    5  A    between atoms: C_15  and  C_16
REMARK    6  A    between atoms: C_22  and  C_26
REMARK                            x       y       z     vdW  Elec       q    Type
REMARK                         _______ _______ _______ _____ _____    ______ ____
ROOT
ATOM      1  O   UNL     1      33.661 -16.395 -25.831  0.00  0.00    -0.273 OA
ATOM      2  N   UNL     1      34.195 -16.817 -23.553  0.00  0.00    -0.253 N 
ATOM      3  C   UNL     1      34.359 -15.980 -22.433  0.00  0.00    +0.052 C 
ATOM      4  C   UNL     1      34.158 -14.646 -22.788  0.00  0.00    +0.018 C 
ATOM      5  C   UNL     1      33.881 -16.078 -24.681  0.00  0.00    +0.252 C 
ATOM      6  C   UNL     1      33.851 -14.645 -24.205  0.00  0.00    +0.202 C 
ATOM      7  C   UNL     1      34.256 -13.606 -21.887  0.00  0.00    -0.001 C 
ATOM      8  C   UNL     1      34.673 -16.320 -21.130  0.00  0.00    +0.015 C 
ATOM      9  C   UNL     1      34.573 -13.941 -20.570  0.00  0.00    -0.000 C 
ATOM     10  C   UNL     1      34.779 -15.283 -20.195  0.00  0.00    +0.001 C 
ENDROOT
BRANCH   7  11
ATOM     11  C   UNL     1      34.050 -12.216 -22.251  0.00  0.00    -0.000 C 
ATOM     12  C   UNL     1      32.921 -11.503 -22.010  0.00  0.00    -0.000 C 
BRANCH  12  13
ATOM     13  C   UNL     1      32.718 -10.087 -22.364  0.00  0.00    -0.000 C 
ATOM     14  C   UNL     1      31.549  -9.432 -21.976  0.00  0.00    -0.000 C 
ATOM     15  C   UNL     1      33.695  -9.401 -23.085  0.00  0.00    -0.000 C 
ATOM     16  C   UNL     1      31.356  -8.092 -22.311  0.00  0.00    +0.000 C 
ATOM     17  C   UNL     1      33.502  -8.061 -23.419  0.00  0.00    +0.000 C 
ATOM     18  C   UNL     1      32.332  -7.406 -23.033  0.00  0.00    +0.000 C 
ENDBRANCH  12  13
ENDBRANCH   7  11
BRANCH   6  19
ATOM     19  N   UNL     1      33.593 -13.646 -24.972  0.00  0.00    -0.075 NA
BRANCH  19  20
ATOM     20  O   UNL     1      32.280 -13.768 -25.434  0.00  0.00    -0.294 OA
ATOM     21  H   UNL     1      32.007 -13.300 -26.198  0.00  0.00    +0.238 HD
ENDBRANCH  19  20
ENDBRANCH   6  19
BRANCH   2  22
ATOM     22  C   UNL     1      34.339 -18.251 -23.500  0.00  0.00    +0.128 C 
BRANCH  22  26
ATOM     23  F   UNL     1      38.779 -18.308 -21.518  0.00  0.00    -0.204 F 
ATOM     24  O   UNL     1      33.492 -19.799 -21.330  0.00  0.00    -0.448 OA
ATOM     25  O   UNL     1      33.981 -21.332 -19.549  0.00  0.00    -0.311 OA
ATOM     26  C   UNL     1      35.271 -18.683 -22.406  0.00  0.00    +0.034 C 
ATOM     27  C   UNL     1      34.820 -19.453 -21.333  0.00  0.00    +0.138 C 
ATOM     28  C   UNL     1      35.706 -19.862 -20.329  0.00  0.00    +0.043 C 
ATOM     29  C   UNL     1      36.611 -18.299 -22.466  0.00  0.00    +0.030 C 
ATOM     30  C   UNL     1      35.203 -20.690 -19.186  0.00  0.00    +0.176 C 
ATOM     31  C   UNL     1      37.044 -19.462 -20.392  0.00  0.00    +0.031 C 
ATOM     32  C   UNL     1      37.495 -18.684 -21.459  0.00  0.00    +0.140 C 
ATOM     33  C   UNL     1      33.067 -20.383 -20.094  0.00  0.00    +0.361 C 
ENDBRANCH  22  26
ENDBRANCH   2  22
TORSDOF 6
ENDMDL
MODEL 7
REMARK VINA RESULT:     -10.7      4.059      9.762
REMARK  Name = 45268539
REMARK  6 active torsions:
REMARK  status: ('A' for Active; 'I' for Inactive)
REMARK    1  A    between atoms: N_2  and  C_22
REMARK    2  A    between atoms: N_3  and  C_7
REMARK    3  A    between atoms: N_3  and  O_12
REMARK    4  A    between atoms: C_8  and  C_14
REMARK    5  A    between atoms: C_15  and  C_16
REMARK    6  A    between atoms: C_22  and  C_26
REMARK                            x       y       z     vdW  Elec       q    Type
REMARK                         _______ _______ _______ _____ _____    ______ ____
ROOT
ATOM      1  O   UNL     1      32.820 -19.699 -21.719  0.00  0.00    -0.273 OA
ATOM      2  N   UNL     1      35.051 -19.765 -20.901  0.00  0.00    -0.253 N 
ATOM      3  C   UNL     1      35.658 -20.425 -19.815  0.00  0.00    +0.052 C 
ATOM      4  C   UNL     1      34.715 -21.176 -19.112  0.00  0.00    +0.018 C 
ATOM      5  C   UNL     1      33.697 -20.051 -20.959  0.00  0.00    +0.252 C 
ATOM      6  C   UNL     1      33.450 -20.978 -19.793  0.00  0.00    +0.202 C 
ATOM      7  C   UNL     1      35.031 -21.926 -17.999  0.00  0.00    -0.001 C 
ATOM      8  C   UNL     1      36.980 -20.404 -19.412  0.00  0.00    +0.015 C 
ATOM      9  C   UNL     1      36.364 -21.910 -17.586  0.00  0.00    -0.000 C 
ATOM     10  C   UNL     1      37.328 -21.157 -18.284  0.00  0.00    +0.001 C 
ENDROOT
BRANCH   7  11
ATOM     11  C   UNL     1      34.054 -22.708 -17.263  0.00  0.00    -0.000 C 
ATOM     12  C   UNL     1      33.887 -22.686 -15.918  0.00  0.00    -0.000 C 
BRANCH  12  13
ATOM     13  C   UNL     1      32.884 -23.467 -15.172  0.00  0.00    -0.000 C 
ATOM     14  C   UNL     1      31.560 -23.501 -15.609  0.00  0.00    -0.000 C 
ATOM     15  C   UNL     1      33.259 -24.173 -14.029  0.00  0.00    -0.000 C 
ATOM     16  C   UNL     1      30.611 -24.240 -14.903  0.00  0.00    +0.000 C 
ATOM     17  C   UNL     1      32.310 -24.912 -13.323  0.00  0.00    +0.000 C 
ATOM     18  C   UNL     1      30.986 -24.945 -13.759  0.00  0.00    +0.000 C 
ENDBRANCH  12  13
ENDBRANCH   7  11
BRANCH   6  19
ATOM     19  N   UNL     1      32.297 -21.469 -19.506  0.00  0.00    -0.075 NA
BRANCH  19  20
ATOM     20  O   UNL     1      31.836 -20.863 -18.334  0.00  0.00    -0.294 OA
ATOM     21  H   UNL     1      31.517 -21.390 -17.628  0.00  0.00    +0.238 HD
ENDBRANCH  19  20
ENDBRANCH   6  19
BRANCH   2  22
ATOM     22  C   UNL     1      35.771 -18.912 -21.814  0.00  0.00    +0.128 C 
BRANCH  22  26
ATOM     23  F   UNL     1      35.028 -14.832 -19.276  0.00  0.00    -0.204 F 
ATOM     24  O   UNL     1      34.747 -17.562 -24.039  0.00  0.00    -0.448 OA
ATOM     25  O   UNL     1      33.396 -15.809 -24.970  0.00  0.00    -0.311 OA
ATOM     26  C   UNL     1      35.300 -17.489 -21.746  0.00  0.00    +0.034 C 
ATOM     27  C   UNL     1      34.795 -16.840 -22.873  0.00  0.00    +0.138 C 
ATOM     28  C   UNL     1      34.344 -15.517 -22.789  0.00  0.00    +0.043 C 
ATOM     29  C   UNL     1      35.376 -16.808 -20.531  0.00  0.00    +0.030 C 
ATOM     30  C   UNL     1      33.803 -14.836 -24.009  0.00  0.00    +0.176 C 
ATOM     31  C   UNL     1      34.435 -14.838 -21.569  0.00  0.00    +0.031 C 
ATOM     32  C   UNL     1      34.948 -15.483 -20.443  0.00  0.00    +0.140 C 
ATOM     33  C   UNL     1      34.438 -16.759 -25.183  0.00  0.00    +0.361 C 
ENDBRANCH  22  26
ENDBRANCH   2  22
TORSDOF 6
ENDMDL
MODEL 8
REMARK VINA RESULT:     -10.4      5.640      9.131
REMARK  Name = 45268539
REMARK  6 active torsions:
REMARK  status: ('A' for Active; 'I' for Inactive)
REMARK    1  A    between atoms: N_2  and  C_22
REMARK    2  A    between atoms: N_3  and  C_7
REMARK    3  A    between atoms: N_3  and  O_12
REMARK    4  A    between atoms: C_8  and  C_14
REMARK    5  A    between atoms: C_15  and  C_16
REMARK    6  A    between atoms: C_22  and  C_26
REMARK                            x       y       z     vdW  Elec       q    Type
REMARK                         _______ _______ _______ _____ _____    ______ ____
ROOT
ATOM      1  O   UNL     1      34.763 -17.322 -25.146  0.00  0.00    -0.273 OA
ATOM      2  N   UNL     1      35.152 -17.330 -22.801  0.00  0.00    -0.253 N 
ATOM      3  C   UNL     1      34.981 -16.359 -21.795  0.00  0.00    +0.052 C 
ATOM      4  C   UNL     1      34.483 -15.175 -22.340  0.00  0.00    +0.018 C 
ATOM      5  C   UNL     1      34.776 -16.832 -24.037  0.00  0.00    +0.252 C 
ATOM      6  C   UNL     1      34.332 -15.415 -23.762  0.00  0.00    +0.202 C 
ATOM      7  C   UNL     1      34.220 -14.053 -21.582  0.00  0.00    -0.001 C 
ATOM      8  C   UNL     1      35.237 -16.455 -20.440  0.00  0.00    +0.015 C 
ATOM      9  C   UNL     1      34.476 -14.142 -20.213  0.00  0.00    -0.000 C 
ATOM     10  C   UNL     1      34.979 -15.330 -19.648  0.00  0.00    +0.001 C 
ENDROOT
BRANCH   7  11
ATOM     11  C   UNL     1      33.703 -12.818 -22.143  0.00  0.00    -0.000 C 
ATOM     12  C   UNL     1      33.042 -11.859 -21.449  0.00  0.00    -0.000 C 
BRANCH  12  13
ATOM     13  C   UNL     1      32.532 -10.597 -22.014  0.00  0.00    -0.000 C 
ATOM     14  C   UNL     1      33.149 -10.033 -23.131  0.00  0.00    -0.000 C 
ATOM     15  C   UNL     1      31.431  -9.967 -21.434  0.00  0.00    -0.000 C 
ATOM     16  C   UNL     1      32.667  -8.838 -23.666  0.00  0.00    +0.000 C 
ATOM     17  C   UNL     1      30.948  -8.773 -21.969  0.00  0.00    +0.000 C 
ATOM     18  C   UNL     1      31.566  -8.208 -23.085  0.00  0.00    +0.000 C 
ENDBRANCH  12  13
ENDBRANCH   7  11
BRANCH   6  19
ATOM     19  N   UNL     1      33.907 -14.613 -24.672  0.00  0.00    -0.075 NA
BRANCH  19  20
ATOM     20  O   UNL     1      32.696 -15.104 -25.166  0.00  0.00    -0.294 OA
ATOM     21  H   UNL     1      32.531 -15.103 -26.089  0.00  0.00    +0.238 HD
ENDBRANCH  19  20
ENDBRANCH   6  19
BRANCH   2  22
ATOM     22  C   UNL     1      35.652 -18.658 -22.545  0.00  0.00    +0.128 C 
BRANCH  22  26
ATOM     23  F   UNL     1      31.277 -20.117 -21.002  0.00  0.00    -0.204 F 
ATOM     24  O   UNL     1      36.736 -20.023 -20.358  0.00  0.00    -0.448 OA
ATOM     25  O   UNL     1      36.498 -20.950 -18.156  0.00  0.00    -0.311 OA
ATOM     26  C   UNL     1      34.801 -19.399 -21.556  0.00  0.00    +0.034 C 
ATOM     27  C   UNL     1      35.369 -20.074 -20.475  0.00  0.00    +0.138 C 
ATOM     28  C   UNL     1      34.560 -20.747 -19.552  0.00  0.00    +0.043 C 
ATOM     29  C   UNL     1      33.417 -19.415 -21.731  0.00  0.00    +0.030 C 
ATOM     30  C   UNL     1      35.189 -21.464 -18.396  0.00  0.00    +0.176 C 
ATOM     31  C   UNL     1      33.175 -20.767 -19.742  0.00  0.00    +0.031 C 
ATOM     32  C   UNL     1      32.605 -20.100 -20.827  0.00  0.00    +0.140 C 
ATOM     33  C   UNL     1      37.248 -20.922 -19.369  0.00  0.00    +0.361 C 
ENDBRANCH  22  26
ENDBRANCH   2  22
TORSDOF 6
ENDMDL
MODEL 9
REMARK VINA RESULT:     -10.4      4.116      9.088
REMARK  Name = 45268539
REMARK  6 active torsions:
REMARK  status: ('A' for Active; 'I' for Inactive)
REMARK    1  A    between atoms: N_2  and  C_22
REMARK    2  A    between atoms: N_3  and  C_7
REMARK    3  A    between atoms: N_3  and  O_12
REMARK    4  A    between atoms: C_8  and  C_14
REMARK    5  A    between atoms: C_15  and  C_16
REMARK    6  A    between atoms: C_22  and  C_26
REMARK                            x       y       z     vdW  Elec       q    Type
REMARK                         _______ _______ _______ _____ _____    ______ ____
ROOT
ATOM      1  O   UNL     1      33.415 -19.913 -21.114  0.00  0.00    -0.273 OA
ATOM      2  N   UNL     1      35.439 -20.197 -19.899  0.00  0.00    -0.253 N 
ATOM      3  C   UNL     1      35.778 -20.953 -18.761  0.00  0.00    +0.052 C 
ATOM      4  C   UNL     1      34.668 -21.655 -18.292  0.00  0.00    +0.018 C 
ATOM      5  C   UNL     1      34.104 -20.369 -20.226  0.00  0.00    +0.252 C 
ATOM      6  C   UNL     1      33.573 -21.324 -19.184  0.00  0.00    +0.202 C 
ATOM      7  C   UNL     1      34.712 -22.478 -17.187  0.00  0.00    -0.001 C 
ATOM      8  C   UNL     1      36.998 -21.057 -18.117  0.00  0.00    +0.015 C 
ATOM      9  C   UNL     1      35.939 -22.590 -16.532  0.00  0.00    -0.000 C 
ATOM     10  C   UNL     1      37.070 -21.887 -16.992  0.00  0.00    +0.001 C 
ENDROOT
BRANCH   7  11
ATOM     11  C   UNL     1      33.559 -23.211 -16.694  0.00  0.00    -0.000 C 
ATOM     12  C   UNL     1      32.866 -22.912 -15.567  0.00  0.00    -0.000 C 
BRANCH  12  13
ATOM     13  C   UNL     1      31.685 -23.645 -15.076  0.00  0.00    -0.000 C 
ATOM     14  C   UNL     1      30.459 -23.510 -15.728  0.00  0.00    -0.000 C 
ATOM     15  C   UNL     1      31.794 -24.474 -13.959  0.00  0.00    -0.000 C 
ATOM     16  C   UNL     1      29.341 -24.204 -15.262  0.00  0.00    +0.000 C 
ATOM     17  C   UNL     1      30.677 -25.168 -13.494  0.00  0.00    +0.000 C 
ATOM     18  C   UNL     1      29.450 -25.032 -14.145  0.00  0.00    +0.000 C 
ENDBRANCH  12  13
ENDBRANCH   7  11
BRANCH   6  19
ATOM     19  N   UNL     1      32.355 -21.732 -19.147  0.00  0.00    -0.075 NA
BRANCH  19  20
ATOM     20  O   UNL     1      31.675 -21.011 -18.161  0.00  0.00    -0.294 OA
ATOM     21  H   UNL     1      30.890 -20.546 -18.377  0.00  0.00    +0.238 HD
ENDBRANCH  19  20
ENDBRANCH   6  19
BRANCH   2  22
ATOM     22  C   UNL     1      36.379 -19.365 -20.610  0.00  0.00    +0.128 C 
BRANCH  22  26
ATOM     23  F   UNL     1      34.600 -18.726 -25.090  0.00  0.00    -0.204 F 
ATOM     24  O   UNL     1      35.570 -16.746 -20.055  0.00  0.00    -0.448 OA
ATOM     25  O   UNL     1      35.006 -14.538 -20.808  0.00  0.00    -0.311 OA
ATOM     26  C   UNL     1      35.703 -18.497 -21.631  0.00  0.00    +0.034 C 
ATOM     27  C   UNL     1      35.308 -17.195 -21.325  0.00  0.00    +0.138 C 
ATOM     28  C   UNL     1      34.693 -16.392 -22.294  0.00  0.00    +0.043 C 
ATOM     29  C   UNL     1      35.463 -19.012 -22.905  0.00  0.00    +0.030 C 
ATOM     30  C   UNL     1      34.278 -14.995 -21.948  0.00  0.00    +0.176 C 
ATOM     31  C   UNL     1      34.447 -16.920 -23.565  0.00  0.00    +0.031 C 
ATOM     32  C   UNL     1      34.833 -18.226 -23.870  0.00  0.00    +0.140 C 
ATOM     33  C   UNL     1      34.933 -15.499 -19.758  0.00  0.00    +0.361 C 
ENDBRANCH  22  26
ENDBRANCH   2  22
TORSDOF 6
ENDMDL
