MODEL 1
REMARK VINA RESULT:     -12.0      0.000      0.000
REMARK  Name = 449162
REMARK  12 active torsions:
REMARK  status: ('A' for Active; 'I' for Inactive)
REMARK    1  A    between atoms: C_1  and  C_9
REMARK    2  A    between atoms: C_3  and  C_19
REMARK    3  A    between atoms: C_10  and  C_16
REMARK    4  A    between atoms: C_11  and  C_13
REMARK    5  A    between atoms: C_13  and  O_14
REMARK    6  A    between atoms: C_16  and  O_17
REMARK    7  A    between atoms: C_20  and  C_21
REMARK    8  A    between atoms: C_21  and  O_22
REMARK    9  A    between atoms: O_22  and  C_23
REMARK   10  A    between atoms: C_24  and  C_32
REMARK   11  A    between atoms: C_25  and  O_29
REMARK   12  A    between atoms: C_32  and  O_33
REMARK                            x       y       z     vdW  Elec       q    Type
REMARK                         _______ _______ _______ _____ _____    ______ ____
ROOT
ATOM      1  C   UNL     1      35.307 -18.460 -22.009  0.00  0.00    +0.037 C 
ATOM      2  C   UNL     1      34.464 -19.308 -21.291  0.00  0.00    +0.003 C 
ATOM      3  C   UNL     1      34.970 -20.068 -20.237  0.00  0.00    -0.000 C 
ATOM      4  C   UNL     1      36.658 -18.372 -21.672  0.00  0.00    +0.003 C 
ATOM      5  C   UNL     1      36.321 -19.980 -19.899  0.00  0.00    -0.000 C 
ATOM      6  C   UNL     1      37.164 -19.132 -20.617  0.00  0.00    +0.000 C 
ENDROOT
BRANCH   1   9
ATOM      7  O   UNL     1      34.324 -18.388 -24.155  0.00  0.00    -0.353 OA
ATOM      8  N   UNL     1      33.854 -17.511 -25.124  0.00  0.00    -0.071 NA
ATOM      9  C   UNL     1      34.784 -17.674 -23.099  0.00  0.00    +0.175 A 
ATOM     10  C   UNL     1      34.636 -16.339 -23.334  0.00  0.00    +0.071 A 
ATOM     11  C   UNL     1      34.051 -16.292 -24.612  0.00  0.00    +0.196 A 
BRANCH  11  13
ATOM     12  O   UNL     1      34.174 -14.788 -26.446  0.00  0.00    -0.243 OA
ATOM     13  C   UNL     1      33.670 -15.134 -25.368  0.00  0.00    +0.359 C 
BRANCH  13  14
ATOM     14  O   UNL     1      32.664 -14.384 -24.811  0.00  0.00    -0.476 OA
ATOM     15  H   UNL     1      32.832 -13.503 -24.540  0.00  0.00    +0.295 HD
ENDBRANCH  13  14
ENDBRANCH  11  13
BRANCH  10  16
ATOM     16  C   UNL     1      35.004 -15.213 -22.458  0.00  0.00    +0.169 C 
BRANCH  16  17
ATOM     17  O   UNL     1      33.872 -14.429 -22.067  0.00  0.00    -0.377 OA
ATOM     18  H   UNL     1      33.426 -14.087 -22.858  0.00  0.00    +0.211 HD
ENDBRANCH  16  17
ENDBRANCH  10  16
ENDBRANCH   1   9
BRANCH   3  19
ATOM     19  C   UNL     1      34.090 -20.952 -19.489  0.00  0.00    -0.001 C 
ATOM     20  C   UNL     1      34.481 -21.970 -18.690  0.00  0.00    +0.021 C 
BRANCH  20  21
ATOM     21  C   UNL     1      33.537 -22.843 -17.928  0.00  0.00    +0.232 C 
BRANCH  21  22
ATOM     22  O   UNL     1      34.227 -23.404 -16.819  0.00  0.00    -0.470 OA
BRANCH  22  23
ATOM     23  C   UNL     1      33.536 -23.488 -15.639  0.00  0.00    +0.148 C 
ATOM     24  C   UNL     1      34.129 -24.035 -14.507  0.00  0.00    +0.143 C 
ATOM     25  C   UNL     1      33.406 -24.111 -13.315  0.00  0.00    +0.143 C 
ATOM     26  C   UNL     1      32.228 -23.017 -15.594  0.00  0.00    +0.037 C 
ATOM     27  C   UNL     1      32.095 -23.640 -13.264  0.00  0.00    +0.037 C 
ATOM     28  C   UNL     1      31.506 -23.093 -14.404  0.00  0.00    +0.006 C 
BRANCH  25  29
ATOM     29  O   UNL     1      33.964 -24.641 -12.190  0.00  0.00    -0.505 OA
ATOM     30  H   UNL     1      33.736 -25.509 -11.917  0.00  0.00    +0.292 HD
ENDBRANCH  25  29
BRANCH  24  32
ATOM     31  O   UNL     1      35.830 -25.624 -15.026  0.00  0.00    -0.245 OA
ATOM     32  C   UNL     1      35.501 -24.528 -14.560  0.00  0.00    +0.347 C 
BRANCH  32  33
ATOM     33  O   UNL     1      36.377 -23.622 -14.030  0.00  0.00    -0.441 OA
ATOM     34  C   UNL     1      37.298 -23.010 -14.939  0.00  0.00    +0.256 C 
ENDBRANCH  32  33
ENDBRANCH  24  32
ENDBRANCH  22  23
ENDBRANCH  21  22
ENDBRANCH  20  21
ENDBRANCH   3  19
TORSDOF 12
ENDMDL
MODEL 2
REMARK VINA RESULT:     -11.0      2.375      3.394
REMARK  Name = 449162
REMARK  12 active torsions:
REMARK  status: ('A' for Active; 'I' for Inactive)
REMARK    1  A    between atoms: C_1  and  C_9
REMARK    2  A    between atoms: C_3  and  C_19
REMARK    3  A    between atoms: C_10  and  C_16
REMARK    4  A    between atoms: C_11  and  C_13
REMARK    5  A    between atoms: C_13  and  O_14
REMARK    6  A    between atoms: C_16  and  O_17
REMARK    7  A    between atoms: C_20  and  C_21
REMARK    8  A    between atoms: C_21  and  O_22
REMARK    9  A    between atoms: O_22  and  C_23
REMARK   10  A    between atoms: C_24  and  C_32
REMARK   11  A    between atoms: C_25  and  O_29
REMARK   12  A    between atoms: C_32  and  O_33
REMARK                            x       y       z     vdW  Elec       q    Type
REMARK                         _______ _______ _______ _____ _____    ______ ____
ROOT
ATOM      1  C   UNL     1      34.368 -19.985 -20.511  0.00  0.00    +0.037 C 
ATOM      2  C   UNL     1      35.466 -20.374 -19.746  0.00  0.00    +0.003 C 
ATOM      3  C   UNL     1      35.298 -21.267 -18.688  0.00  0.00    -0.000 C 
ATOM      4  C   UNL     1      33.100 -20.489 -20.219  0.00  0.00    +0.003 C 
ATOM      5  C   UNL     1      34.031 -21.772 -18.395  0.00  0.00    -0.000 C 
ATOM      6  C   UNL     1      32.933 -21.382 -19.160  0.00  0.00    +0.000 C 
ENDROOT
BRANCH   1   9
ATOM      7  O   UNL     1      34.247 -19.560 -22.831  0.00  0.00    -0.353 OA
ATOM      8  N   UNL     1      34.456 -18.571 -23.784  0.00  0.00    -0.071 NA
ATOM      9  C   UNL     1      34.540 -19.061 -21.606  0.00  0.00    +0.175 A 
ATOM     10  C   UNL     1      34.940 -17.762 -21.711  0.00  0.00    +0.071 A 
ATOM     11  C   UNL     1      34.870 -17.506 -23.091  0.00  0.00    +0.196 A 
BRANCH  11  13
ATOM     12  O   UNL     1      35.663 -15.273 -23.256  0.00  0.00    -0.243 OA
ATOM     13  C   UNL     1      35.180 -16.286 -23.781  0.00  0.00    +0.359 C 
BRANCH  13  14
ATOM     14  O   UNL     1      34.901 -16.294 -25.125  0.00  0.00    -0.476 OA
ATOM     15  H   UNL     1      34.191 -16.809 -25.453  0.00  0.00    +0.295 HD
ENDBRANCH  13  14
ENDBRANCH  11  13
BRANCH  10  16
ATOM     16  C   UNL     1      35.351 -16.846 -20.633  0.00  0.00    +0.169 C 
BRANCH  16  17
ATOM     17  O   UNL     1      34.675 -15.584 -20.697  0.00  0.00    -0.377 OA
ATOM     18  H   UNL     1      33.734 -15.730 -20.881  0.00  0.00    +0.211 HD
ENDBRANCH  16  17
ENDBRANCH  10  16
ENDBRANCH   1   9
BRANCH   3  19
ATOM     19  C   UNL     1      36.445 -21.672 -17.889  0.00  0.00    -0.001 C 
ATOM     20  C   UNL     1      36.418 -22.022 -16.584  0.00  0.00    +0.021 C 
BRANCH  20  21
ATOM     21  C   UNL     1      37.624 -22.447 -15.809  0.00  0.00    +0.232 C 
BRANCH  21  22
ATOM     22  O   UNL     1      37.454 -23.798 -15.403  0.00  0.00    -0.470 OA
BRANCH  22  23
ATOM     23  C   UNL     1      37.135 -24.014 -14.088  0.00  0.00    +0.148 C 
ATOM     24  C   UNL     1      37.235 -25.284 -13.532  0.00  0.00    +0.143 C 
ATOM     25  C   UNL     1      36.905 -25.481 -12.190  0.00  0.00    +0.143 C 
ATOM     26  C   UNL     1      36.707 -22.937 -13.317  0.00  0.00    +0.037 C 
ATOM     27  C   UNL     1      36.476 -24.405 -11.413  0.00  0.00    +0.037 C 
ATOM     28  C   UNL     1      36.377 -23.134 -11.977  0.00  0.00    +0.006 C 
BRANCH  25  29
ATOM     29  O   UNL     1      36.995 -26.716 -11.620  0.00  0.00    -0.505 OA
ATOM     30  H   UNL     1      37.153 -27.469 -12.155  0.00  0.00    +0.292 HD
ENDBRANCH  25  29
BRANCH  24  32
ATOM     31  O   UNL     1      37.028 -26.910 -15.264  0.00  0.00    -0.245 OA
ATOM     32  C   UNL     1      37.684 -26.409 -14.345  0.00  0.00    +0.347 C 
BRANCH  32  33
ATOM     33  O   UNL     1      38.923 -26.839 -13.960  0.00  0.00    -0.441 OA
ATOM     34  C   UNL     1      40.017 -25.949 -14.206  0.00  0.00    +0.256 C 
ENDBRANCH  32  33
ENDBRANCH  24  32
ENDBRANCH  22  23
ENDBRANCH  21  22
ENDBRANCH  20  21
ENDBRANCH   3  19
TORSDOF 12
ENDMDL
MODEL 3
REMARK VINA RESULT:     -10.9      3.081     10.670
REMARK  Name = 449162
REMARK  12 active torsions:
REMARK  status: ('A' for Active; 'I' for Inactive)
REMARK    1  A    between atoms: C_1  and  C_9
REMARK    2  A    between atoms: C_3  and  C_19
REMARK    3  A    between atoms: C_10  and  C_16
REMARK    4  A    between atoms: C_11  and  C_13
REMARK    5  A    between atoms: C_13  and  O_14
REMARK    6  A    between atoms: C_16  and  O_17
REMARK    7  A    between atoms: C_20  and  C_21
REMARK    8  A    between atoms: C_21  and  O_22
REMARK    9  A    between atoms: O_22  and  C_23
REMARK   10  A    between atoms: C_24  and  C_32
REMARK   11  A    between atoms: C_25  and  O_29
REMARK   12  A    between atoms: C_32  and  O_33
REMARK                            x       y       z     vdW  Elec       q    Type
REMARK                         _______ _______ _______ _____ _____    ______ ____
ROOT
ATOM      1  C   UNL     1      34.693 -23.344 -15.630  0.00  0.00    +0.037 C 
ATOM      2  C   UNL     1      34.666 -22.808 -16.918  0.00  0.00    +0.003 C 
ATOM      3  C   UNL     1      33.446 -22.504 -17.521  0.00  0.00    -0.000 C 
ATOM      4  C   UNL     1      33.500 -23.575 -14.946  0.00  0.00    +0.003 C 
ATOM      5  C   UNL     1      32.252 -22.735 -16.837  0.00  0.00    -0.000 C 
ATOM      6  C   UNL     1      32.280 -23.271 -15.550  0.00  0.00    +0.000 C 
ENDROOT
BRANCH   1   9
ATOM      7  O   UNL     1      36.750 -22.594 -14.745  0.00  0.00    -0.353 OA
ATOM      8  N   UNL     1      37.922 -23.041 -14.148  0.00  0.00    -0.071 NA
ATOM      9  C   UNL     1      35.954 -23.659 -15.005  0.00  0.00    +0.175 A 
ATOM     10  C   UNL     1      36.562 -24.811 -14.598  0.00  0.00    +0.071 A 
ATOM     11  C   UNL     1      37.787 -24.368 -14.070  0.00  0.00    +0.196 A 
BRANCH  11  13
ATOM     12  O   UNL     1      38.675 -26.069 -12.670  0.00  0.00    -0.243 OA
ATOM     13  C   UNL     1      38.838 -25.157 -13.493  0.00  0.00    +0.359 C 
BRANCH  13  14
ATOM     14  O   UNL     1      40.103 -24.837 -13.919  0.00  0.00    -0.476 OA
ATOM     15  H   UNL     1      40.701 -25.516 -14.161  0.00  0.00    +0.295 HD
ENDBRANCH  13  14
ENDBRANCH  11  13
BRANCH  10  16
ATOM     16  C   UNL     1      36.054 -26.191 -14.691  0.00  0.00    +0.169 C 
BRANCH  16  17
ATOM     17  O   UNL     1      36.805 -26.992 -15.611  0.00  0.00    -0.377 OA
ATOM     18  H   UNL     1      37.702 -26.632 -15.695  0.00  0.00    +0.211 HD
ENDBRANCH  16  17
ENDBRANCH  10  16
ENDBRANCH   1   9
BRANCH   3  19
ATOM     19  C   UNL     1      33.419 -21.944 -18.864  0.00  0.00    -0.001 C 
ATOM     20  C   UNL     1      32.817 -20.790 -19.230  0.00  0.00    +0.021 C 
BRANCH  20  21
ATOM     21  C   UNL     1      32.830 -20.247 -20.622  0.00  0.00    +0.232 C 
BRANCH  21  22
ATOM     22  O   UNL     1      34.158 -19.863 -20.952  0.00  0.00    -0.470 OA
BRANCH  22  23
ATOM     23  C   UNL     1      34.310 -19.015 -22.017  0.00  0.00    +0.148 C 
ATOM     24  C   UNL     1      34.994 -17.813 -21.875  0.00  0.00    +0.143 C 
ATOM     25  C   UNL     1      35.136 -16.964 -22.974  0.00  0.00    +0.143 C 
ATOM     26  C   UNL     1      33.768 -19.380 -23.245  0.00  0.00    +0.037 C 
ATOM     27  C   UNL     1      34.594 -17.324 -24.208  0.00  0.00    +0.037 C 
ATOM     28  C   UNL     1      33.910 -18.531 -24.343  0.00  0.00    +0.006 C 
BRANCH  25  29
ATOM     29  O   UNL     1      35.802 -15.780 -22.863  0.00  0.00    -0.505 OA
ATOM     30  H   UNL     1      35.498 -15.125 -22.266  0.00  0.00    +0.292 HD
ENDBRANCH  25  29
BRANCH  24  32
ATOM     31  O   UNL     1      35.255 -16.415 -19.961  0.00  0.00    -0.245 OA
ATOM     32  C   UNL     1      35.560 -17.437 -20.585  0.00  0.00    +0.347 C 
BRANCH  32  33
ATOM     33  O   UNL     1      36.472 -18.359 -20.153  0.00  0.00    -0.441 OA
ATOM     34  C   UNL     1      37.529 -18.691 -21.060  0.00  0.00    +0.256 C 
ENDBRANCH  32  33
ENDBRANCH  24  32
ENDBRANCH  22  23
ENDBRANCH  21  22
ENDBRANCH  20  21
ENDBRANCH   3  19
TORSDOF 12
ENDMDL
MODEL 4
REMARK VINA RESULT:     -10.8      1.549      2.876
REMARK  Name = 449162
REMARK  12 active torsions:
REMARK  status: ('A' for Active; 'I' for Inactive)
REMARK    1  A    between atoms: C_1  and  C_9
REMARK    2  A    between atoms: C_3  and  C_19
REMARK    3  A    between atoms: C_10  and  C_16
REMARK    4  A    between atoms: C_11  and  C_13
REMARK    5  A    between atoms: C_13  and  O_14
REMARK    6  A    between atoms: C_16  and  O_17
REMARK    7  A    between atoms: C_20  and  C_21
REMARK    8  A    between atoms: C_21  and  O_22
REMARK    9  A    between atoms: O_22  and  C_23
REMARK   10  A    between atoms: C_24  and  C_32
REMARK   11  A    between atoms: C_25  and  O_29
REMARK   12  A    between atoms: C_32  and  O_33
REMARK                            x       y       z     vdW  Elec       q    Type
REMARK                         _______ _______ _______ _____ _____    ______ ____
ROOT
ATOM      1  C   UNL     1      35.507 -18.293 -21.498  0.00  0.00    +0.037 C 
ATOM      2  C   UNL     1      34.599 -19.177 -20.917  0.00  0.00    +0.003 C 
ATOM      3  C   UNL     1      35.051 -20.174 -20.053  0.00  0.00    -0.000 C 
ATOM      4  C   UNL     1      36.869 -18.406 -21.216  0.00  0.00    +0.003 C 
ATOM      5  C   UNL     1      36.412 -20.288 -19.770  0.00  0.00    -0.000 C 
ATOM      6  C   UNL     1      37.321 -19.404 -20.352  0.00  0.00    +0.000 C 
ENDROOT
BRANCH   1   9
ATOM      7  O   UNL     1      35.307 -15.993 -21.995  0.00  0.00    -0.353 OA
ATOM      8  N   UNL     1      34.805 -15.109 -22.942  0.00  0.00    -0.071 NA
ATOM      9  C   UNL     1      35.041 -17.261 -22.392  0.00  0.00    +0.175 A 
ATOM     10  C   UNL     1      34.373 -17.251 -23.581  0.00  0.00    +0.071 A 
ATOM     11  C   UNL     1      34.252 -15.883 -23.880  0.00  0.00    +0.196 A 
BRANCH  11  13
ATOM     12  O   UNL     1      33.882 -15.562 -26.204  0.00  0.00    -0.243 OA
ATOM     13  C   UNL     1      33.631 -15.280 -25.024  0.00  0.00    +0.359 C 
BRANCH  13  14
ATOM     14  O   UNL     1      32.692 -14.320 -24.735  0.00  0.00    -0.476 OA
ATOM     15  H   UNL     1      32.928 -13.575 -24.219  0.00  0.00    +0.295 HD
ENDBRANCH  13  14
ENDBRANCH  11  13
BRANCH  10  16
ATOM     16  C   UNL     1      33.892 -18.402 -24.365  0.00  0.00    +0.169 C 
BRANCH  16  17
ATOM     17  O   UNL     1      32.709 -18.101 -25.114  0.00  0.00    -0.377 OA
ATOM     18  H   UNL     1      32.709 -17.161 -25.355  0.00  0.00    +0.211 HD
ENDBRANCH  16  17
ENDBRANCH  10  16
ENDBRANCH   1   9
BRANCH   3  19
ATOM     19  C   UNL     1      34.102 -21.096 -19.447  0.00  0.00    -0.001 C 
ATOM     20  C   UNL     1      34.413 -22.139 -18.645  0.00  0.00    +0.021 C 
BRANCH  20  21
ATOM     21  C   UNL     1      33.400 -23.051 -18.032  0.00  0.00    +0.232 C 
BRANCH  21  22
ATOM     22  O   UNL     1      33.077 -22.570 -16.734  0.00  0.00    -0.470 OA
BRANCH  22  23
ATOM     23  C   UNL     1      33.681 -23.196 -15.675  0.00  0.00    +0.148 C 
ATOM     24  C   UNL     1      32.929 -23.649 -14.596  0.00  0.00    +0.143 C 
ATOM     25  C   UNL     1      33.565 -24.284 -13.528  0.00  0.00    +0.143 C 
ATOM     26  C   UNL     1      35.061 -23.370 -15.698  0.00  0.00    +0.037 C 
ATOM     27  C   UNL     1      34.948 -24.461 -13.545  0.00  0.00    +0.037 C 
ATOM     28  C   UNL     1      35.696 -24.003 -14.630  0.00  0.00    +0.006 C 
BRANCH  25  29
ATOM     29  O   UNL     1      32.852 -24.739 -12.459  0.00  0.00    -0.505 OA
ATOM     30  H   UNL     1      32.093 -25.272 -12.594  0.00  0.00    +0.292 HD
ENDBRANCH  25  29
BRANCH  24  32
ATOM     31  O   UNL     1      30.904 -22.554 -13.977  0.00  0.00    -0.245 OA
ATOM     32  C   UNL     1      31.482 -23.465 -14.579  0.00  0.00    +0.347 C 
BRANCH  32  33
ATOM     33  O   UNL     1      30.848 -24.427 -15.314  0.00  0.00    -0.441 OA
ATOM     34  C   UNL     1      29.433 -24.544 -15.134  0.00  0.00    +0.256 C 
ENDBRANCH  32  33
ENDBRANCH  24  32
ENDBRANCH  22  23
ENDBRANCH  21  22
ENDBRANCH  20  21
ENDBRANCH   3  19
TORSDOF 12
ENDMDL
MODEL 5
REMARK VINA RESULT:     -10.7      1.675      3.618
REMARK  Name = 449162
REMARK  12 active torsions:
REMARK  status: ('A' for Active; 'I' for Inactive)
REMARK    1  A    between atoms: C_1  and  C_9
REMARK    2  A    between atoms: C_3  and  C_19
REMARK    3  A    between atoms: C_10  and  C_16
REMARK    4  A    between atoms: C_11  and  C_13
REMARK    5  A    between atoms: C_13  and  O_14
REMARK    6  A    between atoms: C_16  and  O_17
REMARK    7  A    between atoms: C_20  and  C_21
REMARK    8  A    between atoms: C_21  and  O_22
REMARK    9  A    between atoms: O_22  and  C_23
REMARK   10  A    between atoms: C_24  and  C_32
REMARK   11  A    between atoms: C_25  and  O_29
REMARK   12  A    between atoms: C_32  and  O_33
REMARK                            x       y       z     vdW  Elec       q    Type
REMARK                         _______ _______ _______ _____ _____    ______ ____
ROOT
ATOM      1  C   UNL     1      34.323 -19.936 -20.650  0.00  0.00    +0.037 C 
ATOM      2  C   UNL     1      35.458 -20.352 -19.955  0.00  0.00    +0.003 C 
ATOM      3  C   UNL     1      35.334 -21.225 -18.874  0.00  0.00    -0.000 C 
ATOM      4  C   UNL     1      33.062 -20.394 -20.265  0.00  0.00    +0.003 C 
ATOM      5  C   UNL     1      34.074 -21.683 -18.488  0.00  0.00    -0.000 C 
ATOM      6  C   UNL     1      32.939 -21.267 -19.184  0.00  0.00    +0.000 C 
ENDROOT
BRANCH   1   9
ATOM      7  O   UNL     1      33.957 -19.498 -22.942  0.00  0.00    -0.353 OA
ATOM      8  N   UNL     1      34.145 -18.534 -23.924  0.00  0.00    -0.071 NA
ATOM      9  C   UNL     1      34.450 -19.034 -21.768  0.00  0.00    +0.175 A 
ATOM     10  C   UNL     1      34.964 -17.782 -21.936  0.00  0.00    +0.071 A 
ATOM     11  C   UNL     1      34.748 -17.517 -23.300  0.00  0.00    +0.196 A 
BRANCH  11  13
ATOM     12  O   UNL     1      34.902 -16.171 -25.251  0.00  0.00    -0.243 OA
ATOM     13  C   UNL     1      35.092 -16.335 -24.037  0.00  0.00    +0.359 C 
BRANCH  13  14
ATOM     14  O   UNL     1      35.674 -15.338 -23.294  0.00  0.00    -0.476 OA
ATOM     15  H   UNL     1      35.646 -14.452 -23.597  0.00  0.00    +0.295 HD
ENDBRANCH  13  14
ENDBRANCH  11  13
BRANCH  10  16
ATOM     16  C   UNL     1      35.597 -16.914 -20.929  0.00  0.00    +0.169 C 
BRANCH  16  17
ATOM     17  O   UNL     1      34.845 -15.721 -20.680  0.00  0.00    -0.377 OA
ATOM     18  H   UNL     1      34.599 -15.312 -21.524  0.00  0.00    +0.211 HD
ENDBRANCH  16  17
ENDBRANCH  10  16
ENDBRANCH   1   9
BRANCH   3  19
ATOM     19  C   UNL     1      36.518 -21.657 -18.149  0.00  0.00    -0.001 C 
ATOM     20  C   UNL     1      36.714 -21.553 -16.815  0.00  0.00    +0.021 C 
BRANCH  20  21
ATOM     21  C   UNL     1      37.945 -22.028 -16.113  0.00  0.00    +0.232 C 
BRANCH  21  22
ATOM     22  O   UNL     1      37.581 -22.506 -14.825  0.00  0.00    -0.470 OA
BRANCH  22  23
ATOM     23  C   UNL     1      37.693 -23.855 -14.612  0.00  0.00    +0.148 C 
ATOM     24  C   UNL     1      36.568 -24.672 -14.631  0.00  0.00    +0.143 C 
ATOM     25  C   UNL     1      36.706 -26.044 -14.412  0.00  0.00    +0.143 C 
ATOM     26  C   UNL     1      38.954 -24.393 -14.376  0.00  0.00    +0.037 C 
ATOM     27  C   UNL     1      37.967 -26.589 -14.174  0.00  0.00    +0.037 C 
ATOM     28  C   UNL     1      39.091 -25.763 -14.155  0.00  0.00    +0.006 C 
BRANCH  25  29
ATOM     29  O   UNL     1      35.620 -26.868 -14.426  0.00  0.00    -0.505 OA
ATOM     30  H   UNL     1      35.737 -27.798 -14.394  0.00  0.00    +0.292 HD
ENDBRANCH  25  29
BRANCH  24  32
ATOM     31  O   UNL     1      34.639 -24.198 -15.950  0.00  0.00    -0.245 OA
ATOM     32  C   UNL     1      35.249 -24.102 -14.880  0.00  0.00    +0.347 C 
BRANCH  32  33
ATOM     33  O   UNL     1      34.772 -23.449 -13.778  0.00  0.00    -0.441 OA
ATOM     34  C   UNL     1      33.783 -24.134 -13.002  0.00  0.00    +0.256 C 
ENDBRANCH  32  33
ENDBRANCH  24  32
ENDBRANCH  22  23
ENDBRANCH  21  22
ENDBRANCH  20  21
ENDBRANCH   3  19
TORSDOF 12
ENDMDL
MODEL 6
REMARK VINA RESULT:     -10.7      2.496     10.759
REMARK  Name = 449162
REMARK  12 active torsions:
REMARK  status: ('A' for Active; 'I' for Inactive)
REMARK    1  A    between atoms: C_1  and  C_9
REMARK    2  A    between atoms: C_3  and  C_19
REMARK    3  A    between atoms: C_10  and  C_16
REMARK    4  A    between atoms: C_11  and  C_13
REMARK    5  A    between atoms: C_13  and  O_14
REMARK    6  A    between atoms: C_16  and  O_17
REMARK    7  A    between atoms: C_20  and  C_21
REMARK    8  A    between atoms: C_21  and  O_22
REMARK    9  A    between atoms: O_22  and  C_23
REMARK   10  A    between atoms: C_24  and  C_32
REMARK   11  A    between atoms: C_25  and  O_29
REMARK   12  A    between atoms: C_32  and  O_33
REMARK                            x       y       z     vdW  Elec       q    Type
REMARK                         _______ _______ _______ _____ _____    ______ ____
ROOT
ATOM      1  C   UNL     1      35.353 -20.066 -20.204  0.00  0.00    +0.037 C 
ATOM      2  C   UNL     1      34.657 -19.490 -21.267  0.00  0.00    +0.003 C 
ATOM      3  C   UNL     1      35.310 -18.617 -22.137  0.00  0.00    -0.000 C 
ATOM      4  C   UNL     1      36.702 -19.769 -20.012  0.00  0.00    +0.003 C 
ATOM      5  C   UNL     1      36.659 -18.320 -21.945  0.00  0.00    -0.000 C 
ATOM      6  C   UNL     1      37.355 -18.896 -20.882  0.00  0.00    +0.000 C 
ENDROOT
BRANCH   1   9
ATOM      7  O   UNL     1      33.349 -21.109 -19.518  0.00  0.00    -0.353 OA
ATOM      8  N   UNL     1      32.833 -22.000 -18.585  0.00  0.00    -0.071 NA
ATOM      9  C   UNL     1      34.679 -20.969 -19.304  0.00  0.00    +0.175 A 
ATOM     10  C   UNL     1      35.070 -21.743 -18.251  0.00  0.00    +0.071 A 
ATOM     11  C   UNL     1      33.879 -22.365 -17.839  0.00  0.00    +0.196 A 
BRANCH  11  13
ATOM     12  O   UNL     1      34.597 -23.955 -16.226  0.00  0.00    -0.243 OA
ATOM     13  C   UNL     1      33.694 -23.297 -16.763  0.00  0.00    +0.359 C 
BRANCH  13  14
ATOM     14  O   UNL     1      32.398 -23.433 -16.331  0.00  0.00    -0.476 OA
ATOM     15  H   UNL     1      31.824 -24.039 -16.756  0.00  0.00    +0.295 HD
ENDBRANCH  13  14
ENDBRANCH  11  13
BRANCH  10  16
ATOM     16  C   UNL     1      36.420 -21.890 -17.680  0.00  0.00    +0.169 C 
BRANCH  16  17
ATOM     17  O   UNL     1      36.718 -20.884 -16.705  0.00  0.00    -0.377 OA
ATOM     18  H   UNL     1      36.009 -20.854 -16.044  0.00  0.00    +0.211 HD
ENDBRANCH  16  17
ENDBRANCH  10  16
ENDBRANCH   1   9
BRANCH   3  19
ATOM     19  C   UNL     1      34.583 -18.017 -23.245  0.00  0.00    -0.001 C 
ATOM     20  C   UNL     1      34.871 -16.835 -23.835  0.00  0.00    +0.021 C 
BRANCH  20  21
ATOM     21  C   UNL     1      34.103 -16.266 -24.984  0.00  0.00    +0.232 C 
BRANCH  21  22
ATOM     22  O   UNL     1      33.116 -15.377 -24.478  0.00  0.00    -0.470 OA
BRANCH  22  23
ATOM     23  C   UNL     1      33.324 -14.039 -24.687  0.00  0.00    +0.148 C 
ATOM     24  C   UNL     1      33.448 -13.164 -23.612  0.00  0.00    +0.143 C 
ATOM     25  C   UNL     1      33.659 -11.805 -23.848  0.00  0.00    +0.143 C 
ATOM     26  C   UNL     1      33.408 -13.570 -25.994  0.00  0.00    +0.037 C 
ATOM     27  C   UNL     1      33.744 -11.329 -25.156  0.00  0.00    +0.037 C 
ATOM     28  C   UNL     1      33.619 -12.211 -26.228  0.00  0.00    +0.006 C 
BRANCH  25  29
ATOM     29  O   UNL     1      33.785 -10.926 -22.814  0.00  0.00    -0.505 OA
ATOM     30  H   UNL     1      34.133 -11.215 -21.993  0.00  0.00    +0.292 HD
ENDBRANCH  25  29
BRANCH  24  32
ATOM     31  O   UNL     1      34.249 -14.304 -21.678  0.00  0.00    -0.245 OA
ATOM     32  C   UNL     1      33.359 -13.662 -22.244  0.00  0.00    +0.347 C 
BRANCH  32  33
ATOM     33  O   UNL     1      32.165 -13.327 -21.669  0.00  0.00    -0.441 OA
ATOM     34  C   UNL     1      32.148 -13.213 -20.242  0.00  0.00    +0.256 C 
ENDBRANCH  32  33
ENDBRANCH  24  32
ENDBRANCH  22  23
ENDBRANCH  21  22
ENDBRANCH  20  21
ENDBRANCH   3  19
TORSDOF 12
ENDMDL
MODEL 7
REMARK VINA RESULT:     -10.5      2.290      4.286
REMARK  Name = 449162
REMARK  12 active torsions:
REMARK  status: ('A' for Active; 'I' for Inactive)
REMARK    1  A    between atoms: C_1  and  C_9
REMARK    2  A    between atoms: C_3  and  C_19
REMARK    3  A    between atoms: C_10  and  C_16
REMARK    4  A    between atoms: C_11  and  C_13
REMARK    5  A    between atoms: C_13  and  O_14
REMARK    6  A    between atoms: C_16  and  O_17
REMARK    7  A    between atoms: C_20  and  C_21
REMARK    8  A    between atoms: C_21  and  O_22
REMARK    9  A    between atoms: O_22  and  C_23
REMARK   10  A    between atoms: C_24  and  C_32
REMARK   11  A    between atoms: C_25  and  O_29
REMARK   12  A    between atoms: C_32  and  O_33
REMARK                            x       y       z     vdW  Elec       q    Type
REMARK                         _______ _______ _______ _____ _____    ______ ____
ROOT
ATOM      1  C   UNL     1      34.198 -16.160 -23.809  0.00  0.00    +0.037 C 
ATOM      2  C   UNL     1      35.012 -16.714 -22.820  0.00  0.00    +0.003 C 
ATOM      3  C   UNL     1      35.157 -18.098 -22.730  0.00  0.00    -0.000 C 
ATOM      4  C   UNL     1      33.531 -16.992 -24.709  0.00  0.00    +0.003 C 
ATOM      5  C   UNL     1      34.489 -18.930 -23.629  0.00  0.00    -0.000 C 
ATOM      6  C   UNL     1      33.676 -18.376 -24.618  0.00  0.00    +0.000 C 
ENDROOT
BRANCH   1   9
ATOM      7  O   UNL     1      33.636 -14.273 -25.112  0.00  0.00    -0.353 OA
ATOM      8  N   UNL     1      33.534 -12.888 -25.060  0.00  0.00    -0.071 NA
ATOM      9  C   UNL     1      34.047 -14.729 -23.904  0.00  0.00    +0.175 A 
ATOM     10  C   UNL     1      34.224 -13.687 -23.042  0.00  0.00    +0.071 A 
ATOM     11  C   UNL     1      33.890 -12.561 -23.815  0.00  0.00    +0.196 A 
BRANCH  11  13
ATOM     12  O   UNL     1      32.927 -10.575 -22.935  0.00  0.00    -0.243 OA
ATOM     13  C   UNL     1      33.895 -11.182 -23.416  0.00  0.00    +0.359 C 
BRANCH  13  14
ATOM     14  O   UNL     1      35.088 -10.529 -23.603  0.00  0.00    -0.476 OA
ATOM     15  H   UNL     1      35.420  -9.961 -22.936  0.00  0.00    +0.295 HD
ENDBRANCH  13  14
ENDBRANCH  11  13
BRANCH  10  16
ATOM     16  C   UNL     1      34.663 -13.731 -21.637  0.00  0.00    +0.169 C 
BRANCH  16  17
ATOM     17  O   UNL     1      33.598 -14.064 -20.739  0.00  0.00    -0.377 OA
ATOM     18  H   UNL     1      33.930 -14.058 -19.827  0.00  0.00    +0.211 HD
ENDBRANCH  16  17
ENDBRANCH  10  16
ENDBRANCH   1   9
BRANCH   3  19
ATOM     19  C   UNL     1      36.005 -18.673 -21.698  0.00  0.00    -0.001 C 
ATOM     20  C   UNL     1      35.589 -19.444 -20.668  0.00  0.00    +0.021 C 
BRANCH  20  21
ATOM     21  C   UNL     1      36.502 -20.027 -19.639  0.00  0.00    +0.232 C 
BRANCH  21  22
ATOM     22  O   UNL     1      36.101 -21.365 -19.375  0.00  0.00    -0.470 OA
BRANCH  22  23
ATOM     23  C   UNL     1      36.012 -21.736 -18.059  0.00  0.00    +0.148 C 
ATOM     24  C   UNL     1      34.906 -22.439 -17.594  0.00  0.00    +0.143 C 
ATOM     25  C   UNL     1      34.836 -22.807 -16.249  0.00  0.00    +0.143 C 
ATOM     26  C   UNL     1      37.048 -21.395 -17.196  0.00  0.00    +0.037 C 
ATOM     27  C   UNL     1      35.872 -22.468 -15.379  0.00  0.00    +0.037 C 
ATOM     28  C   UNL     1      36.977 -21.762 -15.852  0.00  0.00    +0.006 C 
BRANCH  25  29
ATOM     29  O   UNL     1      33.765 -23.498 -15.767  0.00  0.00    -0.505 OA
ATOM     30  H   UNL     1      33.791 -24.434 -15.724  0.00  0.00    +0.292 HD
ENDBRANCH  25  29
BRANCH  24  32
ATOM     31  O   UNL     1      33.876 -23.716 -19.324  0.00  0.00    -0.245 OA
ATOM     32  C   UNL     1      33.823 -22.794 -18.504  0.00  0.00    +0.347 C 
BRANCH  32  33
ATOM     33  O   UNL     1      32.741 -21.976 -18.334  0.00  0.00    -0.441 OA
ATOM     34  C   UNL     1      32.616 -20.877 -19.241  0.00  0.00    +0.256 C 
ENDBRANCH  32  33
ENDBRANCH  24  32
ENDBRANCH  22  23
ENDBRANCH  21  22
ENDBRANCH  20  21
ENDBRANCH   3  19
TORSDOF 12
ENDMDL
MODEL 8
REMARK VINA RESULT:     -10.4      3.067     11.123
REMARK  Name = 449162
REMARK  12 active torsions:
REMARK  status: ('A' for Active; 'I' for Inactive)
REMARK    1  A    between atoms: C_1  and  C_9
REMARK    2  A    between atoms: C_3  and  C_19
REMARK    3  A    between atoms: C_10  and  C_16
REMARK    4  A    between atoms: C_11  and  C_13
REMARK    5  A    between atoms: C_13  and  O_14
REMARK    6  A    between atoms: C_16  and  O_17
REMARK    7  A    between atoms: C_20  and  C_21
REMARK    8  A    between atoms: C_21  and  O_22
REMARK    9  A    between atoms: O_22  and  C_23
REMARK   10  A    between atoms: C_24  and  C_32
REMARK   11  A    between atoms: C_25  and  O_29
REMARK   12  A    between atoms: C_32  and  O_33
REMARK                            x       y       z     vdW  Elec       q    Type
REMARK                         _______ _______ _______ _____ _____    ______ ____
ROOT
ATOM      1  C   UNL     1      35.501 -22.731 -15.954  0.00  0.00    +0.037 C 
ATOM      2  C   UNL     1      36.240 -22.014 -16.895  0.00  0.00    +0.003 C 
ATOM      3  C   UNL     1      35.695 -21.738 -18.148  0.00  0.00    -0.000 C 
ATOM      4  C   UNL     1      34.216 -23.173 -16.268  0.00  0.00    +0.003 C 
ATOM      5  C   UNL     1      34.410 -22.179 -18.462  0.00  0.00    -0.000 C 
ATOM      6  C   UNL     1      33.671 -22.897 -17.522  0.00  0.00    +0.000 C 
ENDROOT
BRANCH   1   9
ATOM      7  O   UNL     1      37.368 -22.680 -14.509  0.00  0.00    -0.353 OA
ATOM      8  N   UNL     1      37.776 -23.010 -13.223  0.00  0.00    -0.071 NA
ATOM      9  C   UNL     1      36.064 -23.017 -14.658  0.00  0.00    +0.175 A 
ATOM     10  C   UNL     1      35.585 -23.565 -13.504  0.00  0.00    +0.071 A 
ATOM     11  C   UNL     1      36.694 -23.536 -12.641  0.00  0.00    +0.196 A 
BRANCH  11  13
ATOM     12  O   UNL     1      36.428 -25.114 -10.884  0.00  0.00    -0.243 OA
ATOM     13  C   UNL     1      36.769 -23.990 -11.281  0.00  0.00    +0.359 C 
BRANCH  13  14
ATOM     14  O   UNL     1      37.262 -23.070 -10.390  0.00  0.00    -0.476 OA
ATOM     15  H   UNL     1      37.095 -22.157 -10.518  0.00  0.00    +0.295 HD
ENDBRANCH  13  14
ENDBRANCH  11  13
BRANCH  10  16
ATOM     16  C   UNL     1      34.228 -24.068 -13.229  0.00  0.00    +0.169 C 
BRANCH  16  17
ATOM     17  O   UNL     1      33.520 -23.252 -12.289  0.00  0.00    -0.377 OA
ATOM     18  H   UNL     1      33.615 -22.318 -12.533  0.00  0.00    +0.211 HD
ENDBRANCH  16  17
ENDBRANCH  10  16
ENDBRANCH   1   9
BRANCH   3  19
ATOM     19  C   UNL     1      36.467 -20.989 -19.128  0.00  0.00    -0.001 C 
ATOM     20  C   UNL     1      36.063 -19.868 -19.767  0.00  0.00    +0.021 C 
BRANCH  20  21
ATOM     21  C   UNL     1      36.900 -19.124 -20.756  0.00  0.00    +0.232 C 
BRANCH  21  22
ATOM     22  O   UNL     1      36.186 -17.973 -21.186  0.00  0.00    -0.470 OA
BRANCH  22  23
ATOM     23  C   UNL     1      35.433 -18.101 -22.323  0.00  0.00    +0.148 C 
ATOM     24  C   UNL     1      34.884 -16.982 -22.941  0.00  0.00    +0.143 C 
ATOM     25  C   UNL     1      34.121 -17.136 -24.099  0.00  0.00    +0.143 C 
ATOM     26  C   UNL     1      35.228 -19.372 -22.851  0.00  0.00    +0.037 C 
ATOM     27  C   UNL     1      33.911 -18.407 -24.632  0.00  0.00    +0.037 C 
ATOM     28  C   UNL     1      34.464 -19.525 -24.008  0.00  0.00    +0.006 C 
BRANCH  25  29
ATOM     29  O   UNL     1      33.572 -16.056 -24.725  0.00  0.00    -0.505 OA
ATOM     30  H   UNL     1      33.536 -15.229 -24.287  0.00  0.00    +0.292 HD
ENDBRANCH  25  29
BRANCH  24  32
ATOM     31  O   UNL     1      35.368 -14.650 -23.056  0.00  0.00    -0.245 OA
ATOM     32  C   UNL     1      35.104 -15.652 -22.383  0.00  0.00    +0.347 C 
BRANCH  32  33
ATOM     33  O   UNL     1      34.979 -15.656 -21.022  0.00  0.00    -0.441 OA
ATOM     34  C   UNL     1      34.448 -14.470 -20.421  0.00  0.00    +0.256 C 
ENDBRANCH  32  33
ENDBRANCH  24  32
ENDBRANCH  22  23
ENDBRANCH  21  22
ENDBRANCH  20  21
ENDBRANCH   3  19
TORSDOF 12
ENDMDL
MODEL 9
REMARK VINA RESULT:     -10.4      2.489     10.619
REMARK  Name = 449162
REMARK  12 active torsions:
REMARK  status: ('A' for Active; 'I' for Inactive)
REMARK    1  A    between atoms: C_1  and  C_9
REMARK    2  A    between atoms: C_3  and  C_19
REMARK    3  A    between atoms: C_10  and  C_16
REMARK    4  A    between atoms: C_11  and  C_13
REMARK    5  A    between atoms: C_13  and  O_14
REMARK    6  A    between atoms: C_16  and  O_17
REMARK    7  A    between atoms: C_20  and  C_21
REMARK    8  A    between atoms: C_21  and  O_22
REMARK    9  A    between atoms: O_22  and  C_23
REMARK   10  A    between atoms: C_24  and  C_32
REMARK   11  A    between atoms: C_25  and  O_29
REMARK   12  A    between atoms: C_32  and  O_33
REMARK                            x       y       z     vdW  Elec       q    Type
REMARK                         _______ _______ _______ _____ _____    ______ ____
ROOT
ATOM      1  C   UNL     1      34.080 -21.690 -18.367  0.00  0.00    +0.037 C 
ATOM      2  C   UNL     1      33.678 -20.881 -19.429  0.00  0.00    +0.003 C 
ATOM      3  C   UNL     1      34.631 -20.324 -20.281  0.00  0.00    -0.000 C 
ATOM      4  C   UNL     1      35.436 -21.942 -18.156  0.00  0.00    +0.003 C 
ATOM      5  C   UNL     1      35.987 -20.576 -20.072  0.00  0.00    -0.000 C 
ATOM      6  C   UNL     1      36.389 -21.385 -19.009  0.00  0.00    +0.000 C 
ENDROOT
BRANCH   1   9
ATOM      7  O   UNL     1      31.806 -22.068 -17.852  0.00  0.00    -0.353 OA
ATOM      8  N   UNL     1      30.973 -22.672 -16.919  0.00  0.00    -0.071 NA
ATOM      9  C   UNL     1      33.095 -22.266 -17.484  0.00  0.00    +0.175 A 
ATOM     10  C   UNL     1      33.149 -22.988 -16.328  0.00  0.00    +0.071 A 
ATOM     11  C   UNL     1      31.797 -23.215 -16.018  0.00  0.00    +0.196 A 
BRANCH  11  13
ATOM     12  O   UNL     1      30.495 -24.907 -14.976  0.00  0.00    -0.243 OA
ATOM     13  C   UNL     1      31.254 -23.930 -14.899  0.00  0.00    +0.359 C 
BRANCH  13  14
ATOM     14  O   UNL     1      31.634 -23.454 -13.668  0.00  0.00    -0.476 OA
ATOM     15  H   UNL     1      32.022 -22.605 -13.594  0.00  0.00    +0.295 HD
ENDBRANCH  13  14
ENDBRANCH  11  13
BRANCH  10  16
ATOM     16  C   UNL     1      34.341 -23.424 -15.581  0.00  0.00    +0.169 C 
BRANCH  16  17
ATOM     17  O   UNL     1      34.520 -22.698 -14.360  0.00  0.00    -0.377 OA
ATOM     18  H   UNL     1      33.810 -22.044 -14.264  0.00  0.00    +0.211 HD
ENDBRANCH  16  17
ENDBRANCH  10  16
ENDBRANCH   1   9
BRANCH   3  19
ATOM     19  C   UNL     1      34.211 -19.480 -21.389  0.00  0.00    -0.001 C 
ATOM     20  C   UNL     1      35.030 -18.850 -22.261  0.00  0.00    +0.021 C 
BRANCH  20  21
ATOM     21  C   UNL     1      34.549 -18.004 -23.396  0.00  0.00    +0.232 C 
BRANCH  21  22
ATOM     22  O   UNL     1      35.251 -16.768 -23.374  0.00  0.00    -0.470 OA
BRANCH  22  23
ATOM     23  C   UNL     1      34.784 -15.807 -22.516  0.00  0.00    +0.148 C 
ATOM     24  C   UNL     1      33.991 -14.764 -22.982  0.00  0.00    +0.143 C 
ATOM     25  C   UNL     1      33.527 -13.796 -22.090  0.00  0.00    +0.143 C 
ATOM     26  C   UNL     1      35.118 -15.894 -21.168  0.00  0.00    +0.037 C 
ATOM     27  C   UNL     1      33.859 -13.878 -20.738  0.00  0.00    +0.037 C 
ATOM     28  C   UNL     1      34.655 -14.926 -20.277  0.00  0.00    +0.006 C 
BRANCH  25  29
ATOM     29  O   UNL     1      32.748 -12.764 -22.519  0.00  0.00    -0.505 OA
ATOM     30  H   UNL     1      32.012 -12.487 -22.008  0.00  0.00    +0.292 HD
ENDBRANCH  25  29
BRANCH  24  32
ATOM     31  O   UNL     1      33.053 -15.564 -25.023  0.00  0.00    -0.245 OA
ATOM     32  C   UNL     1      33.644 -14.679 -24.396  0.00  0.00    +0.347 C 
BRANCH  32  33
ATOM     33  O   UNL     1      34.056 -13.494 -24.940  0.00  0.00    -0.441 OA
ATOM     34  C   UNL     1      33.228 -12.934 -25.964  0.00  0.00    +0.256 C 
ENDBRANCH  32  33
ENDBRANCH  24  32
ENDBRANCH  22  23
ENDBRANCH  21  22
ENDBRANCH  20  21
ENDBRANCH   3  19
TORSDOF 12
ENDMDL
