MODEL 1
REMARK VINA RESULT:     -12.1      0.000      0.000
REMARK  Name = 54766013
REMARK  5 active torsions:
REMARK  status: ('A' for Active; 'I' for Inactive)
REMARK    1  A    between atoms: C_3  and  C_11
REMARK    2  A    between atoms: C_4  and  C_18
REMARK    3  A    between atoms: C_5  and  C_24
REMARK    4  A    between atoms: C_24  and  N_25
REMARK    5  A    between atoms: N_25  and  C_28
REMARK                            x       y       z     vdW  Elec       q    Type
REMARK                         _______ _______ _______ _____ _____    ______ ____
ROOT
ATOM      1  N   UNL     1      36.782 -22.594 -16.297  0.00  0.00    -0.315 N 
ATOM      2  N   UNL     1      34.688 -22.363 -16.998  0.00  0.00    -0.317 N 
ATOM      3  C   UNL     1      34.717 -23.076 -15.826  0.00  0.00    +0.063 C 
ATOM      4  C   UNL     1      36.005 -23.232 -15.371  0.00  0.00    +0.085 C 
ATOM      5  C   UNL     1      35.947 -22.088 -17.254  0.00  0.00    +0.164 C 
ATOM      6  H   UNL     1      37.763 -22.513 -16.277  0.00  0.00    +0.148 HD
ATOM      7  H   UNL     1      33.898 -22.113 -17.530  0.00  0.00    +0.148 HD
ENDROOT
BRANCH   3  11
ATOM      8  N   UNL     1      31.102 -23.797 -15.244  0.00  0.00    -0.170 N 
ATOM      9  N   UNL     1      29.834 -23.663 -15.707  0.00  0.00    -0.150 NA
ATOM     10  N   UNL     1      29.827 -24.802 -13.726  0.00  0.00    -0.206 NA
ATOM     11  C   UNL     1      33.473 -23.573 -15.206  0.00  0.00    +0.031 C 
ATOM     12  C   UNL     1      32.292 -23.343 -15.818  0.00  0.00    +0.092 C 
ATOM     13  C   UNL     1      33.450 -24.302 -13.934  0.00  0.00    +0.006 C 
ATOM     14  C   UNL     1      31.068 -24.495 -14.034  0.00  0.00    +0.157 C 
ATOM     15  C   UNL     1      32.305 -24.739 -13.380  0.00  0.00    +0.036 C 
ATOM     16  C   UNL     1      29.122 -24.278 -14.764  0.00  0.00    +0.219 C 
ENDBRANCH   3  11
BRANCH   4  18
ATOM     17  N   UNL     1      36.615 -23.118 -13.103  0.00  0.00    -0.409 NA
ATOM     18  C   UNL     1      36.553 -23.889 -14.211  0.00  0.00    +0.127 C 
ATOM     19  C   UNL     1      36.970 -25.210 -14.262  0.00  0.00    +0.086 C 
ATOM     20  C   UNL     1      37.121 -23.701 -11.993  0.00  0.00    +0.109 C 
ATOM     21  C   UNL     1      37.484 -25.774 -13.099  0.00  0.00    -0.016 C 
ATOM     22  C   UNL     1      37.564 -25.013 -11.939  0.00  0.00    +0.023 C 
ATOM     23  C   UNL     1      37.194 -22.853 -10.767  0.00  0.00    +0.066 C 
ENDBRANCH   4  18
BRANCH   5  24
ATOM     24  C   UNL     1      36.471 -21.334 -18.408  0.00  0.00    +0.128 C 
BRANCH  24  25
ATOM     25  N   UNL     1      35.399 -20.727 -19.180  0.00  0.00    -0.328 N 
ATOM     26  H   UNL     1      34.470 -20.937 -18.934  0.00  0.00    +0.147 HD
BRANCH  25  28
ATOM     27  F   UNL     1      33.366 -20.113 -20.955  0.00  0.00    -0.203 F 
ATOM     28  C   UNL     1      35.618 -19.871 -20.240  0.00  0.00    +0.073 C 
ATOM     29  C   UNL     1      34.582 -19.573 -21.125  0.00  0.00    +0.153 C 
ATOM     30  C   UNL     1      36.880 -19.304 -20.428  0.00  0.00    +0.017 C 
ATOM     31  C   UNL     1      34.805 -18.709 -22.196  0.00  0.00    +0.031 C 
ATOM     32  C   UNL     1      37.103 -18.439 -21.500  0.00  0.00    +0.001 C 
ATOM     33  C   UNL     1      36.066 -18.141 -22.384  0.00  0.00    +0.002 C 
ENDBRANCH  25  28
ENDBRANCH  24  25
ENDBRANCH   5  24
TORSDOF 5
ENDMDL
MODEL 2
REMARK VINA RESULT:     -11.9      0.822      1.331
REMARK  Name = 54766013
REMARK  5 active torsions:
REMARK  status: ('A' for Active; 'I' for Inactive)
REMARK    1  A    between atoms: C_3  and  C_11
REMARK    2  A    between atoms: C_4  and  C_18
REMARK    3  A    between atoms: C_5  and  C_24
REMARK    4  A    between atoms: C_24  and  N_25
REMARK    5  A    between atoms: N_25  and  C_28
REMARK                            x       y       z     vdW  Elec       q    Type
REMARK                         _______ _______ _______ _____ _____    ______ ____
ROOT
ATOM      1  N   UNL     1      37.020 -22.268 -16.410  0.00  0.00    -0.315 N 
ATOM      2  N   UNL     1      34.893 -22.362 -17.043  0.00  0.00    -0.317 N 
ATOM      3  C   UNL     1      35.043 -22.931 -15.804  0.00  0.00    +0.063 C 
ATOM      4  C   UNL     1      36.353 -22.885 -15.390  0.00  0.00    +0.085 C 
ATOM      5  C   UNL     1      36.103 -21.972 -17.381  0.00  0.00    +0.164 C 
ATOM      6  H   UNL     1      37.985 -22.071 -16.442  0.00  0.00    +0.148 HD
ATOM      7  H   UNL     1      34.064 -22.266 -17.565  0.00  0.00    +0.148 HD
ENDROOT
BRANCH   3  11
ATOM      8  N   UNL     1      31.544 -23.909 -14.950  0.00  0.00    -0.170 N 
ATOM      9  N   UNL     1      30.242 -23.897 -15.331  0.00  0.00    -0.150 NA
ATOM     10  N   UNL     1      30.456 -24.943 -13.311  0.00  0.00    -0.206 NA
ATOM     11  C   UNL     1      33.886 -23.497 -15.082  0.00  0.00    +0.031 C 
ATOM     12  C   UNL     1      32.654 -23.389 -15.621  0.00  0.00    +0.092 C 
ATOM     13  C   UNL     1      34.005 -24.168 -13.784  0.00  0.00    +0.006 C 
ATOM     14  C   UNL     1      31.645 -24.553 -13.714  0.00  0.00    +0.157 C 
ATOM     15  C   UNL     1      32.937 -24.669 -13.137  0.00  0.00    +0.036 C 
ATOM     16  C   UNL     1      29.645 -24.524 -14.319  0.00  0.00    +0.219 C 
ENDBRANCH   3  11
BRANCH   4  18
ATOM     17  N   UNL     1      37.953 -24.287 -14.388  0.00  0.00    -0.409 NA
ATOM     18  C   UNL     1      37.010 -23.340 -14.190  0.00  0.00    +0.127 C 
ATOM     19  C   UNL     1      36.679 -22.822 -12.948  0.00  0.00    +0.086 C 
ATOM     20  C   UNL     1      38.593 -24.737 -13.285  0.00  0.00    +0.109 C 
ATOM     21  C   UNL     1      37.360 -23.310 -11.838  0.00  0.00    -0.016 C 
ATOM     22  C   UNL     1      38.337 -24.285 -12.001  0.00  0.00    +0.023 C 
ATOM     23  C   UNL     1      39.634 -25.786 -13.498  0.00  0.00    +0.066 C 
ENDBRANCH   4  18
BRANCH   5  24
ATOM     24  C   UNL     1      36.498 -21.296 -18.630  0.00  0.00    +0.128 C 
BRANCH  24  25
ATOM     25  N   UNL     1      35.395 -20.540 -19.199  0.00  0.00    -0.328 N 
ATOM     26  H   UNL     1      34.512 -20.607 -18.769  0.00  0.00    +0.147 HD
BRANCH  25  28
ATOM     27  F   UNL     1      33.268 -20.160 -20.930  0.00  0.00    -0.203 F 
ATOM     28  C   UNL     1      35.522 -19.734 -20.313  0.00  0.00    +0.073 C 
ATOM     29  C   UNL     1      34.439 -19.555 -21.175  0.00  0.00    +0.153 C 
ATOM     30  C   UNL     1      36.736 -19.100 -20.578  0.00  0.00    +0.017 C 
ATOM     31  C   UNL     1      34.570 -18.741 -22.299  0.00  0.00    +0.031 C 
ATOM     32  C   UNL     1      36.867 -18.286 -21.704  0.00  0.00    +0.001 C 
ATOM     33  C   UNL     1      35.784 -18.106 -22.564  0.00  0.00    +0.002 C 
ENDBRANCH  25  28
ENDBRANCH  24  25
ENDBRANCH   5  24
TORSDOF 5
ENDMDL
MODEL 3
REMARK VINA RESULT:     -11.6      1.070      1.904
REMARK  Name = 54766013
REMARK  5 active torsions:
REMARK  status: ('A' for Active; 'I' for Inactive)
REMARK    1  A    between atoms: C_3  and  C_11
REMARK    2  A    between atoms: C_4  and  C_18
REMARK    3  A    between atoms: C_5  and  C_24
REMARK    4  A    between atoms: C_24  and  N_25
REMARK    5  A    between atoms: N_25  and  C_28
REMARK                            x       y       z     vdW  Elec       q    Type
REMARK                         _______ _______ _______ _____ _____    ______ ____
ROOT
ATOM      1  N   UNL     1      36.942 -22.356 -16.837  0.00  0.00    -0.315 N 
ATOM      2  N   UNL     1      34.890 -22.109 -17.651  0.00  0.00    -0.317 N 
ATOM      3  C   UNL     1      34.840 -22.714 -16.421  0.00  0.00    +0.063 C 
ATOM      4  C   UNL     1      36.100 -22.878 -15.895  0.00  0.00    +0.085 C 
ATOM      5  C   UNL     1      36.171 -21.907 -17.873  0.00  0.00    +0.164 C 
ATOM      6  H   UNL     1      37.924 -22.311 -16.780  0.00  0.00    +0.148 HD
ATOM      7  H   UNL     1      34.135 -21.878 -18.239  0.00  0.00    +0.148 HD
ENDROOT
BRANCH   3  11
ATOM      8  N   UNL     1      32.336 -24.121 -14.038  0.00  0.00    -0.170 N 
ATOM      9  N   UNL     1      32.132 -24.758 -12.857  0.00  0.00    -0.150 NA
ATOM     10  N   UNL     1      30.131 -24.345 -13.880  0.00  0.00    -0.206 NA
ATOM     11  C   UNL     1      33.551 -23.105 -15.817  0.00  0.00    +0.031 C 
ATOM     12  C   UNL     1      33.544 -23.736 -14.624  0.00  0.00    +0.092 C 
ATOM     13  C   UNL     1      32.258 -22.852 -16.460  0.00  0.00    +0.006 C 
ATOM     14  C   UNL     1      31.098 -23.883 -14.641  0.00  0.00    +0.157 C 
ATOM     15  C   UNL     1      31.094 -23.222 -15.898  0.00  0.00    +0.036 C 
ATOM     16  C   UNL     1      30.805 -24.863 -12.818  0.00  0.00    +0.219 C 
ENDBRANCH   3  11
BRANCH   4  18
ATOM     17  N   UNL     1      36.756 -24.786 -14.688  0.00  0.00    -0.409 NA
ATOM     18  C   UNL     1      36.570 -23.448 -14.658  0.00  0.00    +0.127 C 
ATOM     19  C   UNL     1      36.807 -22.656 -13.545  0.00  0.00    +0.086 C 
ATOM     20  C   UNL     1      37.200 -25.356 -13.545  0.00  0.00    +0.109 C 
ATOM     21  C   UNL     1      37.263 -23.280 -12.389  0.00  0.00    -0.016 C 
ATOM     22  C   UNL     1      37.466 -24.655 -12.380  0.00  0.00    +0.023 C 
ATOM     23  C   UNL     1      37.405 -26.835 -13.572  0.00  0.00    +0.066 C 
ENDBRANCH   4  18
BRANCH   5  24
ATOM     24  C   UNL     1      36.773 -21.280 -19.064  0.00  0.00    +0.128 C 
BRANCH  24  25
ATOM     25  N   UNL     1      36.307 -19.915 -19.243  0.00  0.00    -0.328 N 
ATOM     26  H   UNL     1      36.301 -19.318 -18.460  0.00  0.00    +0.147 HD
BRANCH  25  28
ATOM     27  F   UNL     1      33.784 -20.515 -20.208  0.00  0.00    -0.203 F 
ATOM     28  C   UNL     1      35.874 -19.414 -20.453  0.00  0.00    +0.073 C 
ATOM     29  C   UNL     1      34.599 -19.727 -20.925  0.00  0.00    +0.153 C 
ATOM     30  C   UNL     1      36.713 -18.593 -21.208  0.00  0.00    +0.017 C 
ATOM     31  C   UNL     1      34.162 -19.220 -22.148  0.00  0.00    +0.031 C 
ATOM     32  C   UNL     1      36.277 -18.086 -22.432  0.00  0.00    +0.001 C 
ATOM     33  C   UNL     1      35.001 -18.399 -22.902  0.00  0.00    +0.002 C 
ENDBRANCH  25  28
ENDBRANCH  24  25
ENDBRANCH   5  24
TORSDOF 5
ENDMDL
MODEL 4
REMARK VINA RESULT:     -11.6      2.924      7.642
REMARK  Name = 54766013
REMARK  5 active torsions:
REMARK  status: ('A' for Active; 'I' for Inactive)
REMARK    1  A    between atoms: C_3  and  C_11
REMARK    2  A    between atoms: C_4  and  C_18
REMARK    3  A    between atoms: C_5  and  C_24
REMARK    4  A    between atoms: C_24  and  N_25
REMARK    5  A    between atoms: N_25  and  C_28
REMARK                            x       y       z     vdW  Elec       q    Type
REMARK                         _______ _______ _______ _____ _____    ______ ____
ROOT
ATOM      1  N   UNL     1      33.205 -22.836 -14.459  0.00  0.00    -0.315 N 
ATOM      2  N   UNL     1      33.957 -24.388 -13.061  0.00  0.00    -0.317 N 
ATOM      3  C   UNL     1      34.868 -24.177 -14.065  0.00  0.00    +0.063 C 
ATOM      4  C   UNL     1      34.423 -23.218 -14.944  0.00  0.00    +0.085 C 
ATOM      5  C   UNL     1      32.967 -23.566 -13.327  0.00  0.00    +0.164 C 
ATOM      6  H   UNL     1      32.607 -22.159 -14.852  0.00  0.00    +0.148 HD
ATOM      7  H   UNL     1      34.028 -25.018 -12.307  0.00  0.00    +0.148 HD
ENDROOT
BRANCH   3  11
ATOM      8  N   UNL     1      38.481 -25.039 -13.709  0.00  0.00    -0.170 N 
ATOM      9  N   UNL     1      39.709 -24.621 -13.308  0.00  0.00    -0.150 NA
ATOM     10  N   UNL     1      39.835 -26.749 -14.132  0.00  0.00    -0.206 NA
ATOM     11  C   UNL     1      36.136 -24.930 -14.113  0.00  0.00    +0.031 C 
ATOM     12  C   UNL     1      37.268 -24.347 -13.665  0.00  0.00    +0.092 C 
ATOM     13  C   UNL     1      36.237 -26.293 -14.641  0.00  0.00    +0.006 C 
ATOM     14  C   UNL     1      38.588 -26.339 -14.208  0.00  0.00    +0.157 C 
ATOM     15  C   UNL     1      37.404 -26.961 -14.684  0.00  0.00    +0.036 C 
ATOM     16  C   UNL     1      40.470 -25.679 -13.584  0.00  0.00    +0.219 C 
ENDBRANCH   3  11
BRANCH   4  18
ATOM     17  N   UNL     1      34.159 -22.580 -17.193  0.00  0.00    -0.409 NA
ATOM     18  C   UNL     1      35.001 -22.652 -16.138  0.00  0.00    +0.127 C 
ATOM     19  C   UNL     1      36.318 -22.222 -16.165  0.00  0.00    +0.086 C 
ATOM     20  C   UNL     1      34.665 -22.052 -18.330  0.00  0.00    +0.109 C 
ATOM     21  C   UNL     1      36.801 -21.684 -17.354  0.00  0.00    -0.016 C 
ATOM     22  C   UNL     1      35.966 -21.594 -18.460  0.00  0.00    +0.023 C 
ATOM     23  C   UNL     1      33.740 -21.972 -19.499  0.00  0.00    +0.066 C 
ENDBRANCH   4  18
BRANCH   5  24
ATOM     24  C   UNL     1      31.725 -23.394 -12.551  0.00  0.00    +0.128 C 
BRANCH  24  25
ATOM     25  N   UNL     1      30.670 -24.273 -13.029  0.00  0.00    -0.328 N 
ATOM     26  H   UNL     1      30.515 -25.118 -12.551  0.00  0.00    +0.147 HD
BRANCH  25  28
ATOM     27  F   UNL     1      29.880 -26.261 -14.784  0.00  0.00    -0.203 F 
ATOM     28  C   UNL     1      29.877 -23.982 -14.120  0.00  0.00    +0.073 C 
ATOM     29  C   UNL     1      29.488 -24.996 -14.995  0.00  0.00    +0.153 C 
ATOM     30  C   UNL     1      29.464 -22.668 -14.349  0.00  0.00    +0.017 C 
ATOM     31  C   UNL     1      28.687 -24.700 -16.096  0.00  0.00    +0.031 C 
ATOM     32  C   UNL     1      28.662 -22.372 -15.452  0.00  0.00    +0.001 C 
ATOM     33  C   UNL     1      28.274 -23.388 -16.325  0.00  0.00    +0.002 C 
ENDBRANCH  25  28
ENDBRANCH  24  25
ENDBRANCH   5  24
TORSDOF 5
ENDMDL
MODEL 5
REMARK VINA RESULT:     -11.3      1.658      2.421
REMARK  Name = 54766013
REMARK  5 active torsions:
REMARK  status: ('A' for Active; 'I' for Inactive)
REMARK    1  A    between atoms: C_3  and  C_11
REMARK    2  A    between atoms: C_4  and  C_18
REMARK    3  A    between atoms: C_5  and  C_24
REMARK    4  A    between atoms: C_24  and  N_25
REMARK    5  A    between atoms: N_25  and  C_28
REMARK                            x       y       z     vdW  Elec       q    Type
REMARK                         _______ _______ _______ _____ _____    ______ ____
ROOT
ATOM      1  N   UNL     1      35.247 -22.739 -17.124  0.00  0.00    -0.315 N 
ATOM      2  N   UNL     1      33.240 -22.429 -18.022  0.00  0.00    -0.317 N 
ATOM      3  C   UNL     1      33.116 -22.936 -16.753  0.00  0.00    +0.063 C 
ATOM      4  C   UNL     1      34.348 -23.137 -16.175  0.00  0.00    +0.085 C 
ATOM      5  C   UNL     1      34.536 -22.322 -18.215  0.00  0.00    +0.164 C 
ATOM      6  H   UNL     1      36.228 -22.750 -17.038  0.00  0.00    +0.148 HD
ATOM      7  H   UNL     1      32.517 -22.197 -18.650  0.00  0.00    +0.148 HD
ENDROOT
BRANCH   3  11
ATOM      8  N   UNL     1      29.464 -22.698 -16.021  0.00  0.00    -0.170 N 
ATOM      9  N   UNL     1      28.294 -22.071 -16.301  0.00  0.00    -0.150 NA
ATOM     10  N   UNL     1      27.962 -23.674 -14.706  0.00  0.00    -0.206 NA
ATOM     11  C   UNL     1      31.788 -23.201 -16.165  0.00  0.00    +0.031 C 
ATOM     12  C   UNL     1      30.728 -22.470 -16.571  0.00  0.00    +0.092 C 
ATOM     13  C   UNL     1      31.557 -24.222 -15.139  0.00  0.00    +0.006 C 
ATOM     14  C   UNL     1      29.232 -23.670 -15.045  0.00  0.00    +0.157 C 
ATOM     15  C   UNL     1      30.341 -24.443 -14.609  0.00  0.00    +0.036 C 
ATOM     16  C   UNL     1      27.439 -22.692 -15.490  0.00  0.00    +0.219 C 
ENDBRANCH   3  11
BRANCH   4  18
ATOM     17  N   UNL     1      35.648 -24.645 -14.925  0.00  0.00    -0.409 NA
ATOM     18  C   UNL     1      34.745 -23.640 -14.885  0.00  0.00    +0.127 C 
ATOM     19  C   UNL     1      34.225 -23.111 -13.714  0.00  0.00    +0.086 C 
ATOM     20  C   UNL     1      36.047 -25.141 -13.732  0.00  0.00    +0.109 C 
ATOM     21  C   UNL     1      34.661 -23.648 -12.508  0.00  0.00    -0.016 C 
ATOM     22  C   UNL     1      35.589 -24.682 -12.508  0.00  0.00    +0.023 C 
ATOM     23  C   UNL     1      37.044 -26.252 -13.771  0.00  0.00    +0.066 C 
ENDBRANCH   4  18
BRANCH   5  24
ATOM     24  C   UNL     1      35.211 -21.824 -19.427  0.00  0.00    +0.128 C 
BRANCH  24  25
ATOM     25  N   UNL     1      35.306 -20.374 -19.428  0.00  0.00    -0.328 N 
ATOM     26  H   UNL     1      35.339 -19.908 -18.562  0.00  0.00    +0.147 HD
BRANCH  25  28
ATOM     27  F   UNL     1      37.562 -18.908 -20.077  0.00  0.00    -0.203 F 
ATOM     28  C   UNL     1      35.353 -19.617 -20.581  0.00  0.00    +0.073 C 
ATOM     29  C   UNL     1      36.498 -18.884 -20.892  0.00  0.00    +0.153 C 
ATOM     30  C   UNL     1      34.250 -19.584 -21.436  0.00  0.00    +0.017 C 
ATOM     31  C   UNL     1      36.543 -18.120 -22.058  0.00  0.00    +0.031 C 
ATOM     32  C   UNL     1      34.295 -18.819 -22.602  0.00  0.00    +0.001 C 
ATOM     33  C   UNL     1      35.441 -18.087 -22.913  0.00  0.00    +0.002 C 
ENDBRANCH  25  28
ENDBRANCH  24  25
ENDBRANCH   5  24
TORSDOF 5
ENDMDL
MODEL 6
REMARK VINA RESULT:     -10.7      2.828      7.506
REMARK  Name = 54766013
REMARK  5 active torsions:
REMARK  status: ('A' for Active; 'I' for Inactive)
REMARK    1  A    between atoms: C_3  and  C_11
REMARK    2  A    between atoms: C_4  and  C_18
REMARK    3  A    between atoms: C_5  and  C_24
REMARK    4  A    between atoms: C_24  and  N_25
REMARK    5  A    between atoms: N_25  and  C_28
REMARK                            x       y       z     vdW  Elec       q    Type
REMARK                         _______ _______ _______ _____ _____    ______ ____
ROOT
ATOM      1  N   UNL     1      32.373 -23.994 -14.830  0.00  0.00    -0.315 N 
ATOM      2  N   UNL     1      33.429 -24.892 -13.095  0.00  0.00    -0.317 N 
ATOM      3  C   UNL     1      34.336 -24.368 -13.980  0.00  0.00    +0.063 C 
ATOM      4  C   UNL     1      33.705 -23.805 -15.065  0.00  0.00    +0.085 C 
ATOM      5  C   UNL     1      32.255 -24.650 -13.636  0.00  0.00    +0.164 C 
ATOM      6  H   UNL     1      31.632 -23.708 -15.413  0.00  0.00    +0.148 HD
ATOM      7  H   UNL     1      33.615 -25.349 -12.243  0.00  0.00    +0.148 HD
ENDROOT
BRANCH   3  11
ATOM      8  N   UNL     1      37.877 -25.546 -14.023  0.00  0.00    -0.170 N 
ATOM      9  N   UNL     1      38.754 -26.475 -14.481  0.00  0.00    -0.150 NA
ATOM     10  N   UNL     1      39.839 -24.957 -13.162  0.00  0.00    -0.206 NA
ATOM     11  C   UNL     1      35.787 -24.445 -13.718  0.00  0.00    +0.031 C 
ATOM     12  C   UNL     1      36.505 -25.449 -14.265  0.00  0.00    +0.092 C 
ATOM     13  C   UNL     1      36.499 -23.483 -12.872  0.00  0.00    +0.006 C 
ATOM     14  C   UNL     1      38.566 -24.634 -13.220  0.00  0.00    +0.157 C 
ATOM     15  C   UNL     1      37.820 -23.575 -12.638  0.00  0.00    +0.036 C 
ATOM     16  C   UNL     1      39.901 -26.073 -13.937  0.00  0.00    +0.219 C 
ENDBRANCH   3  11
BRANCH   4  18
ATOM     17  N   UNL     1      35.422 -22.573 -16.096  0.00  0.00    -0.409 NA
ATOM     18  C   UNL     1      34.204 -23.140 -16.242  0.00  0.00    +0.127 C 
ATOM     19  C   UNL     1      33.469 -23.106 -17.416  0.00  0.00    +0.086 C 
ATOM     20  C   UNL     1      35.925 -21.942 -17.181  0.00  0.00    +0.109 C 
ATOM     21  C   UNL     1      34.020 -22.448 -18.510  0.00  0.00    -0.016 C 
ATOM     22  C   UNL     1      35.271 -21.853 -18.399  0.00  0.00    +0.023 C 
ATOM     23  C   UNL     1      37.270 -21.313 -17.024  0.00  0.00    +0.066 C 
ENDBRANCH   4  18
BRANCH   5  24
ATOM     24  C   UNL     1      30.936 -25.010 -13.085  0.00  0.00    +0.128 C 
BRANCH  24  25
ATOM     25  N   UNL     1      29.970 -23.940 -13.268  0.00  0.00    -0.328 N 
ATOM     26  H   UNL     1      29.822 -23.313 -12.524  0.00  0.00    +0.147 HD
BRANCH  25  28
ATOM     27  F   UNL     1      28.978 -21.448 -13.952  0.00  0.00    -0.203 F 
ATOM     28  C   UNL     1      29.249 -23.758 -14.431  0.00  0.00    +0.073 C 
ATOM     29  C   UNL     1      28.757 -22.495 -14.760  0.00  0.00    +0.153 C 
ATOM     30  C   UNL     1      29.012 -24.841 -15.279  0.00  0.00    +0.017 C 
ATOM     31  C   UNL     1      28.029 -22.314 -15.935  0.00  0.00    +0.031 C 
ATOM     32  C   UNL     1      28.284 -24.660 -16.455  0.00  0.00    +0.001 C 
ATOM     33  C   UNL     1      27.793 -23.396 -16.783  0.00  0.00    +0.002 C 
ENDBRANCH  25  28
ENDBRANCH  24  25
ENDBRANCH   5  24
TORSDOF 5
ENDMDL
MODEL 7
REMARK VINA RESULT:     -10.6      1.813      2.541
REMARK  Name = 54766013
REMARK  5 active torsions:
REMARK  status: ('A' for Active; 'I' for Inactive)
REMARK    1  A    between atoms: C_3  and  C_11
REMARK    2  A    between atoms: C_4  and  C_18
REMARK    3  A    between atoms: C_5  and  C_24
REMARK    4  A    between atoms: C_24  and  N_25
REMARK    5  A    between atoms: N_25  and  C_28
REMARK                            x       y       z     vdW  Elec       q    Type
REMARK                         _______ _______ _______ _____ _____    ______ ____
ROOT
ATOM      1  N   UNL     1      34.871 -21.712 -18.330  0.00  0.00    -0.315 N 
ATOM      2  N   UNL     1      32.664 -21.890 -18.164  0.00  0.00    -0.317 N 
ATOM      3  C   UNL     1      33.267 -22.465 -17.074  0.00  0.00    +0.063 C 
ATOM      4  C   UNL     1      34.636 -22.367 -17.155  0.00  0.00    +0.085 C 
ATOM      5  C   UNL     1      33.658 -21.445 -18.901  0.00  0.00    +0.164 C 
ATOM      6  H   UNL     1      35.753 -21.474 -18.699  0.00  0.00    +0.148 HD
ATOM      7  H   UNL     1      31.699 -21.824 -18.353  0.00  0.00    +0.148 HD
ENDROOT
BRANCH   3  11
ATOM      8  N   UNL     1      30.488 -24.211 -15.298  0.00  0.00    -0.170 N 
ATOM      9  N   UNL     1      29.269 -24.797 -15.406  0.00  0.00    -0.150 NA
ATOM     10  N   UNL     1      29.983 -24.870 -13.236  0.00  0.00    -0.206 NA
ATOM     11  C   UNL     1      32.467 -23.087 -16.001  0.00  0.00    +0.031 C 
ATOM     12  C   UNL     1      31.266 -23.625 -16.300  0.00  0.00    +0.092 C 
ATOM     13  C   UNL     1      32.907 -23.140 -14.604  0.00  0.00    +0.006 C 
ATOM     14  C   UNL     1      30.899 -24.269 -13.964  0.00  0.00    +0.157 C 
ATOM     15  C   UNL     1      32.160 -23.703 -13.638  0.00  0.00    +0.036 C 
ATOM     16  C   UNL     1      29.021 -25.169 -14.151  0.00  0.00    +0.219 C 
ENDBRANCH   3  11
BRANCH   4  18
ATOM     17  N   UNL     1      35.447 -23.966 -15.633  0.00  0.00    -0.409 NA
ATOM     18  C   UNL     1      35.695 -22.806 -16.280  0.00  0.00    +0.127 C 
ATOM     19  C   UNL     1      36.864 -22.074 -16.141  0.00  0.00    +0.086 C 
ATOM     20  C   UNL     1      36.418 -24.411 -14.805  0.00  0.00    +0.109 C 
ATOM     21  C   UNL     1      37.840 -22.566 -15.281  0.00  0.00    -0.016 C 
ATOM     22  C   UNL     1      37.621 -23.755 -14.597  0.00  0.00    +0.023 C 
ATOM     23  C   UNL     1      36.149 -25.691 -14.086  0.00  0.00    +0.066 C 
ENDBRANCH   4  18
BRANCH   5  24
ATOM     24  C   UNL     1      33.554 -20.740 -20.192  0.00  0.00    +0.128 C 
BRANCH  24  25
ATOM     25  N   UNL     1      34.636 -19.784 -20.365  0.00  0.00    -0.328 N 
ATOM     26  H   UNL     1      35.345 -19.753 -19.684  0.00  0.00    +0.147 HD
BRANCH  25  28
ATOM     27  F   UNL     1      35.788 -17.283 -20.085  0.00  0.00    -0.203 F 
ATOM     28  C   UNL     1      34.717 -18.916 -21.436  0.00  0.00    +0.073 C 
ATOM     29  C   UNL     1      35.301 -17.660 -21.276  0.00  0.00    +0.153 C 
ATOM     30  C   UNL     1      34.212 -19.298 -22.680  0.00  0.00    +0.017 C 
ATOM     31  C   UNL     1      35.382 -16.785 -22.359  0.00  0.00    +0.031 C 
ATOM     32  C   UNL     1      34.293 -18.422 -23.763  0.00  0.00    +0.001 C 
ATOM     33  C   UNL     1      34.878 -17.166 -23.603  0.00  0.00    +0.002 C 
ENDBRANCH  25  28
ENDBRANCH  24  25
ENDBRANCH   5  24
TORSDOF 5
ENDMDL
MODEL 8
REMARK VINA RESULT:     -10.4      8.110     13.407
REMARK  Name = 54766013
REMARK  5 active torsions:
REMARK  status: ('A' for Active; 'I' for Inactive)
REMARK    1  A    between atoms: C_3  and  C_11
REMARK    2  A    between atoms: C_4  and  C_18
REMARK    3  A    between atoms: C_5  and  C_24
REMARK    4  A    between atoms: C_24  and  N_25
REMARK    5  A    between atoms: N_25  and  C_28
REMARK                            x       y       z     vdW  Elec       q    Type
REMARK                         _______ _______ _______ _____ _____    ______ ____
ROOT
ATOM      1  N   UNL     1      32.590 -11.486 -21.769  0.00  0.00    -0.315 N 
ATOM      2  N   UNL     1      32.966 -13.162 -20.362  0.00  0.00    -0.317 N 
ATOM      3  C   UNL     1      33.497 -13.451 -21.594  0.00  0.00    +0.063 C 
ATOM      4  C   UNL     1      33.277 -12.426 -22.483  0.00  0.00    +0.085 C 
ATOM      5  C   UNL     1      32.426 -11.971 -20.501  0.00  0.00    +0.164 C 
ATOM      6  H   UNL     1      32.271 -10.616 -22.105  0.00  0.00    +0.148 HD
ATOM      7  H   UNL     1      32.984 -13.723 -19.553  0.00  0.00    +0.148 HD
ENDROOT
BRANCH   3  11
ATOM      8  N   UNL     1      35.338 -16.643 -21.001  0.00  0.00    -0.170 N 
ATOM      9  N   UNL     1      35.869 -17.488 -20.082  0.00  0.00    -0.150 NA
ATOM     10  N   UNL     1      36.218 -18.303 -22.188  0.00  0.00    -0.206 NA
ATOM     11  C   UNL     1      34.199 -14.726 -21.839  0.00  0.00    +0.031 C 
ATOM     12  C   UNL     1      34.663 -15.438 -20.791  0.00  0.00    +0.092 C 
ATOM     13  C   UNL     1      34.435 -15.263 -23.183  0.00  0.00    +0.006 C 
ATOM     14  C   UNL     1      35.566 -17.165 -22.277  0.00  0.00    +0.157 C 
ATOM     15  C   UNL     1      35.084 -16.423 -23.387  0.00  0.00    +0.036 C 
ATOM     16  C   UNL     1      36.377 -18.454 -20.845  0.00  0.00    +0.219 C 
ENDBRANCH   3  11
BRANCH   4  18
ATOM     17  N   UNL     1      34.473 -11.222 -24.111  0.00  0.00    -0.409 NA
ATOM     18  C   UNL     1      33.630 -12.250 -23.869  0.00  0.00    +0.127 C 
ATOM     19  C   UNL     1      33.129 -13.090 -24.852  0.00  0.00    +0.086 C 
ATOM     20  C   UNL     1      34.829 -11.028 -25.401  0.00  0.00    +0.109 C 
ATOM     21  C   UNL     1      33.519 -12.858 -26.166  0.00  0.00    -0.016 C 
ATOM     22  C   UNL     1      34.385 -11.811 -26.455  0.00  0.00    +0.023 C 
ATOM     23  C   UNL     1      35.759  -9.893 -25.674  0.00  0.00    +0.066 C 
ENDBRANCH   4  18
BRANCH   5  24
ATOM     24  C   UNL     1      31.719 -11.194 -19.467  0.00  0.00    +0.128 C 
BRANCH  24  25
ATOM     25  N   UNL     1      31.043 -10.040 -20.035  0.00  0.00    -0.328 N 
ATOM     26  H   UNL     1      30.076 -10.104 -20.209  0.00  0.00    +0.147 HD
BRANCH  25  28
ATOM     27  F   UNL     1      30.572  -8.750 -22.438  0.00  0.00    -0.203 F 
ATOM     28  C   UNL     1      31.687  -8.859 -20.344  0.00  0.00    +0.073 C 
ATOM     29  C   UNL     1      31.438  -8.223 -21.560  0.00  0.00    +0.153 C 
ATOM     30  C   UNL     1      32.590  -8.301 -19.438  0.00  0.00    +0.017 C 
ATOM     31  C   UNL     1      32.089  -7.030 -21.871  0.00  0.00    +0.031 C 
ATOM     32  C   UNL     1      33.242  -7.108 -19.749  0.00  0.00    +0.001 C 
ATOM     33  C   UNL     1      32.992  -6.472 -20.965  0.00  0.00    +0.002 C 
ENDBRANCH  25  28
ENDBRANCH  24  25
ENDBRANCH   5  24
TORSDOF 5
ENDMDL
MODEL 9
REMARK VINA RESULT:      -9.8      6.686     12.456
REMARK  Name = 54766013
REMARK  5 active torsions:
REMARK  status: ('A' for Active; 'I' for Inactive)
REMARK    1  A    between atoms: C_3  and  C_11
REMARK    2  A    between atoms: C_4  and  C_18
REMARK    3  A    between atoms: C_5  and  C_24
REMARK    4  A    between atoms: C_24  and  N_25
REMARK    5  A    between atoms: N_25  and  C_28
REMARK                            x       y       z     vdW  Elec       q    Type
REMARK                         _______ _______ _______ _____ _____    ______ ____
ROOT
ATOM      1  N   UNL     1      34.837 -15.577 -22.525  0.00  0.00    -0.315 N 
ATOM      2  N   UNL     1      34.274 -14.944 -20.472  0.00  0.00    -0.317 N 
ATOM      3  C   UNL     1      33.837 -14.020 -21.388  0.00  0.00    +0.063 C 
ATOM      4  C   UNL     1      34.174 -14.391 -22.668  0.00  0.00    +0.085 C 
ATOM      5  C   UNL     1      34.873 -15.869 -21.190  0.00  0.00    +0.164 C 
ATOM      6  H   UNL     1      35.219 -16.122 -23.251  0.00  0.00    +0.148 HD
ATOM      7  H   UNL     1      34.165 -14.919 -19.494  0.00  0.00    +0.148 HD
ENDROOT
BRANCH   3  11
ATOM      8  N   UNL     1      32.289 -10.625 -21.432  0.00  0.00    -0.170 N 
ATOM      9  N   UNL     1      32.055  -9.498 -22.152  0.00  0.00    -0.150 NA
ATOM     10  N   UNL     1      31.147  -9.297 -20.065  0.00  0.00    -0.206 NA
ATOM     11  C   UNL     1      33.105 -12.812 -20.960  0.00  0.00    +0.031 C 
ATOM     12  C   UNL     1      32.970 -11.781 -21.820  0.00  0.00    +0.092 C 
ATOM     13  C   UNL     1      32.520 -12.664 -19.624  0.00  0.00    +0.006 C 
ATOM     14  C   UNL     1      31.725 -10.473 -20.163  0.00  0.00    +0.157 C 
ATOM     15  C   UNL     1      31.864 -11.551 -19.249  0.00  0.00    +0.036 C 
ATOM     16  C   UNL     1      31.373  -8.748 -21.288  0.00  0.00    +0.219 C 
ENDBRANCH   3  11
BRANCH   4  18
ATOM     17  N   UNL     1      34.445 -12.523 -24.070  0.00  0.00    -0.409 NA
ATOM     18  C   UNL     1      33.946 -13.773 -23.950  0.00  0.00    +0.127 C 
ATOM     19  C   UNL     1      33.270 -14.439 -24.961  0.00  0.00    +0.086 C 
ATOM     20  C   UNL     1      34.253 -11.911 -25.261  0.00  0.00    +0.109 C 
ATOM     21  C   UNL     1      33.094 -13.776 -26.171  0.00  0.00    -0.016 C 
ATOM     22  C   UNL     1      33.592 -12.489 -26.332  0.00  0.00    +0.023 C 
ATOM     23  C   UNL     1      34.801 -10.529 -25.398  0.00  0.00    +0.066 C 
ENDBRANCH   4  18
BRANCH   5  24
ATOM     24  C   UNL     1      35.523 -17.094 -20.689  0.00  0.00    +0.128 C 
BRANCH  24  25
ATOM     25  N   UNL     1      34.896 -18.289 -21.227  0.00  0.00    -0.328 N 
ATOM     26  H   UNL     1      34.586 -18.274 -22.161  0.00  0.00    +0.147 HD
BRANCH  25  28
ATOM     27  F   UNL     1      37.059 -19.726 -20.269  0.00  0.00    -0.203 F 
ATOM     28  C   UNL     1      34.712 -19.445 -20.495  0.00  0.00    +0.073 C 
ATOM     29  C   UNL     1      35.813 -20.156 -20.021  0.00  0.00    +0.153 C 
ATOM     30  C   UNL     1      33.420 -19.903 -20.232  0.00  0.00    +0.017 C 
ATOM     31  C   UNL     1      35.626 -21.324 -19.282  0.00  0.00    +0.031 C 
ATOM     32  C   UNL     1      33.232 -21.072 -19.493  0.00  0.00    +0.001 C 
ATOM     33  C   UNL     1      34.334 -21.782 -19.017  0.00  0.00    +0.002 C 
ENDBRANCH  25  28
ENDBRANCH  24  25
ENDBRANCH   5  24
TORSDOF 5
ENDMDL
