MODEL 1
REMARK VINA RESULT:     -11.7      0.000      0.000
REMARK  Name = 4413
REMARK  6 active torsions:
REMARK  status: ('A' for Active; 'I' for Inactive)
REMARK    1  A    between atoms: O_1  and  C_9
REMARK    2  A    between atoms: O_1  and  C_19
REMARK    3  A    between atoms: C_6  and  C_14
REMARK    4  A    between atoms: C_19  and  C_20
REMARK    5  A    between atoms: C_23  and  N_26
REMARK    6  A    between atoms: N_26  and  C_29
REMARK                            x       y       z     vdW  Elec       q    Type
REMARK                         _______ _______ _______ _____ _____    ______ ____
ROOT
ATOM      1  O   UNL     1      34.090 -23.629 -17.394  0.00  0.00    -0.421 OA
ENDROOT
BRANCH   1   9
ATOM      2  C   UNL     1      34.179 -20.253 -19.839  0.00  0.00    +0.000 C 
ATOM      3  C   UNL     1      35.389 -20.825 -19.379  0.00  0.00    +0.003 C 
ATOM      4  C   UNL     1      34.226 -19.115 -20.662  0.00  0.00    +0.003 C 
ATOM      5  C   UNL     1      35.341 -21.962 -18.556  0.00  0.00    +0.038 C 
ATOM      6  C   UNL     1      35.449 -18.552 -21.026  0.00  0.00    +0.031 C 
ATOM      7  C   UNL     1      36.610 -20.245 -19.756  0.00  0.00    +0.000 C 
ATOM      8  C   UNL     1      32.957 -20.833 -19.461  0.00  0.00    +0.003 C 
ATOM      9  C   UNL     1      34.118 -22.527 -18.191  0.00  0.00    +0.149 C 
ATOM     10  C   UNL     1      36.639 -19.115 -20.574  0.00  0.00    +0.003 C 
ATOM     11  C   UNL     1      32.929 -21.963 -18.643  0.00  0.00    +0.038 C 
BRANCH   6  14
ATOM     12  N   UNL     1      35.261 -16.098 -21.362  0.00  0.00    -0.343 N 
ATOM     13  N   UNL     1      35.720 -17.504 -23.172  0.00  0.00    -0.285 NA
ATOM     14  C   UNL     1      35.481 -17.374 -21.879  0.00  0.00    +0.117 C 
ATOM     15  H   UNL     1      35.289 -15.315 -21.958  0.00  0.00    +0.144 HD
ATOM     16  H   UNL     1      35.080 -15.981 -20.402  0.00  0.00    +0.144 HD
ATOM     17  H   UNL     1      35.742 -16.708 -23.751  0.00  0.00    +0.188 HD
ENDBRANCH   6  14
ENDBRANCH   1   9
BRANCH   1  19
ATOM     18  O   UNL     1      33.008 -22.899 -15.464  0.00  0.00    -0.244 OA
ATOM     19  C   UNL     1      33.993 -23.351 -16.029  0.00  0.00    +0.346 C 
BRANCH  19  20
ATOM     20  C   UNL     1      35.254 -23.687 -15.320  0.00  0.00    +0.076 C 
ATOM     21  C   UNL     1      35.382 -24.931 -14.739  0.00  0.00    +0.008 C 
ATOM     22  C   UNL     1      36.259 -22.743 -15.267  0.00  0.00    +0.008 C 
ATOM     23  C   UNL     1      37.599 -24.310 -14.007  0.00  0.00    +0.084 C 
ATOM     24  C   UNL     1      36.567 -25.246 -14.075  0.00  0.00    +0.019 C 
ATOM     25  C   UNL     1      37.445 -23.058 -14.602  0.00  0.00    +0.019 C 
BRANCH  23  26
ATOM     26  N   UNL     1      38.787 -24.625 -13.340  0.00  0.00    -0.214 NA
BRANCH  26  29
ATOM     27  N   UNL     1      39.978 -25.173 -15.273  0.00  0.00    -0.370 N 
ATOM     28  N   UNL     1      40.395 -26.419 -13.408  0.00  0.00    -0.370 N 
ATOM     29  C   UNL     1      39.674 -25.377 -13.948  0.00  0.00    +0.193 C 
ATOM     30  H   UNL     1      39.530 -24.456 -15.777  0.00  0.00    +0.159 HD
ATOM     31  H   UNL     1      40.646 -25.744 -15.719  0.00  0.00    +0.159 HD
ATOM     32  H   UNL     1      40.269 -26.667 -12.464  0.00  0.00    +0.159 HD
ATOM     33  H   UNL     1      41.038 -26.915 -13.966  0.00  0.00    +0.159 HD
ENDBRANCH  26  29
ENDBRANCH  23  26
ENDBRANCH  19  20
ENDBRANCH   1  19
TORSDOF 6
ENDMDL
MODEL 2
REMARK VINA RESULT:     -11.5      3.056     10.018
REMARK  Name = 4413
REMARK  6 active torsions:
REMARK  status: ('A' for Active; 'I' for Inactive)
REMARK    1  A    between atoms: O_1  and  C_9
REMARK    2  A    between atoms: O_1  and  C_19
REMARK    3  A    between atoms: C_6  and  C_14
REMARK    4  A    between atoms: C_19  and  C_20
REMARK    5  A    between atoms: C_23  and  N_26
REMARK    6  A    between atoms: N_26  and  C_29
REMARK                            x       y       z     vdW  Elec       q    Type
REMARK                         _______ _______ _______ _____ _____    ______ ____
ROOT
ATOM      1  O   UNL     1      35.703 -19.888 -21.205  0.00  0.00    -0.421 OA
ENDROOT
BRANCH   1   9
ATOM      2  C   UNL     1      34.506 -22.020 -17.827  0.00  0.00    +0.000 C 
ATOM      3  C   UNL     1      35.857 -21.620 -17.970  0.00  0.00    +0.003 C 
ATOM      4  C   UNL     1      34.119 -22.737 -16.684  0.00  0.00    +0.003 C 
ATOM      5  C   UNL     1      36.243 -20.903 -19.114  0.00  0.00    +0.038 C 
ATOM      6  C   UNL     1      35.050 -23.055 -15.695  0.00  0.00    +0.031 C 
ATOM      7  C   UNL     1      36.780 -21.948 -16.965  0.00  0.00    +0.000 C 
ATOM      8  C   UNL     1      33.582 -21.691 -18.834  0.00  0.00    +0.003 C 
ATOM      9  C   UNL     1      35.312 -20.584 -20.104  0.00  0.00    +0.149 C 
ATOM     10  C   UNL     1      36.378 -22.662 -15.835  0.00  0.00    +0.003 C 
ATOM     11  C   UNL     1      33.985 -20.978 -19.963  0.00  0.00    +0.038 C 
BRANCH   6  14
ATOM     12  N   UNL     1      35.122 -25.079 -14.257  0.00  0.00    -0.343 N 
ATOM     13  N   UNL     1      33.775 -23.261 -13.669  0.00  0.00    -0.285 NA
ATOM     14  C   UNL     1      34.634 -23.799 -14.516  0.00  0.00    +0.117 C 
ATOM     15  H   UNL     1      34.827 -25.563 -13.453  0.00  0.00    +0.144 HD
ATOM     16  H   UNL     1      35.761 -25.497 -14.878  0.00  0.00    +0.144 HD
ATOM     17  H   UNL     1      33.492 -23.763 -12.870  0.00  0.00    +0.188 HD
ENDBRANCH   6  14
ENDBRANCH   1   9
BRANCH   1  19
ATOM     18  O   UNL     1      36.118 -17.918 -20.031  0.00  0.00    -0.244 OA
ATOM     19  C   UNL     1      35.728 -18.502 -21.031  0.00  0.00    +0.346 C 
BRANCH  19  20
ATOM     20  C   UNL     1      35.222 -17.799 -22.238  0.00  0.00    +0.076 C 
ATOM     21  C   UNL     1      35.442 -16.443 -22.360  0.00  0.00    +0.008 C 
ATOM     22  C   UNL     1      34.550 -18.525 -23.199  0.00  0.00    +0.008 C 
ATOM     23  C   UNL     1      34.287 -16.494 -24.481  0.00  0.00    +0.084 C 
ATOM     24  C   UNL     1      34.969 -15.783 -23.494  0.00  0.00    +0.019 C 
ATOM     25  C   UNL     1      34.077 -17.865 -24.334  0.00  0.00    +0.019 C 
BRANCH  23  26
ATOM     26  N   UNL     1      33.811 -15.833 -25.618  0.00  0.00    -0.214 NA
BRANCH  26  29
ATOM     27  N   UNL     1      33.926 -13.633 -26.396  0.00  0.00    -0.370 N 
ATOM     28  N   UNL     1      32.602 -14.024 -24.579  0.00  0.00    -0.370 N 
ATOM     29  C   UNL     1      33.450 -14.575 -25.514  0.00  0.00    +0.193 C 
ATOM     30  H   UNL     1      34.543 -13.899 -27.116  0.00  0.00    +0.159 HD
ATOM     31  H   UNL     1      33.648 -12.692 -26.309  0.00  0.00    +0.159 HD
ATOM     32  H   UNL     1      32.193 -14.594 -23.889  0.00  0.00    +0.159 HD
ATOM     33  H   UNL     1      32.404 -13.059 -24.601  0.00  0.00    +0.159 HD
ENDBRANCH  26  29
ENDBRANCH  23  26
ENDBRANCH  19  20
ENDBRANCH   1  19
TORSDOF 6
ENDMDL
MODEL 3
REMARK VINA RESULT:     -11.5      2.253      8.379
REMARK  Name = 4413
REMARK  6 active torsions:
REMARK  status: ('A' for Active; 'I' for Inactive)
REMARK    1  A    between atoms: O_1  and  C_9
REMARK    2  A    between atoms: O_1  and  C_19
REMARK    3  A    between atoms: C_6  and  C_14
REMARK    4  A    between atoms: C_19  and  C_20
REMARK    5  A    between atoms: C_23  and  N_26
REMARK    6  A    between atoms: N_26  and  C_29
REMARK                            x       y       z     vdW  Elec       q    Type
REMARK                         _______ _______ _______ _____ _____    ______ ____
ROOT
ATOM      1  O   UNL     1      32.743 -22.613 -17.802  0.00  0.00    -0.421 OA
ENDROOT
BRANCH   1   9
ATOM      2  C   UNL     1      33.855 -23.605 -13.908  0.00  0.00    +0.000 C 
ATOM      3  C   UNL     1      34.825 -23.121 -14.820  0.00  0.00    +0.003 C 
ATOM      4  C   UNL     1      34.246 -23.934 -12.600  0.00  0.00    +0.003 C 
ATOM      5  C   UNL     1      34.433 -22.792 -16.127  0.00  0.00    +0.038 C 
ATOM      6  C   UNL     1      35.573 -23.788 -12.196  0.00  0.00    +0.031 C 
ATOM      7  C   UNL     1      36.155 -22.980 -14.396  0.00  0.00    +0.000 C 
ATOM      8  C   UNL     1      32.523 -23.746 -14.332  0.00  0.00    +0.003 C 
ATOM      9  C   UNL     1      33.105 -22.938 -16.532  0.00  0.00    +0.149 C 
ATOM     10  C   UNL     1      36.527 -23.313 -13.092  0.00  0.00    +0.003 C 
ATOM     11  C   UNL     1      32.153 -23.413 -15.636  0.00  0.00    +0.038 C 
BRANCH   6  14
ATOM     12  N   UNL     1      37.013 -23.480 -10.196  0.00  0.00    -0.343 N 
ATOM     13  N   UNL     1      35.316 -25.088 -10.192  0.00  0.00    -0.285 NA
ATOM     14  C   UNL     1      35.962 -24.134 -10.838  0.00  0.00    +0.117 C 
ATOM     15  H   UNL     1      37.258 -23.730  -9.276  0.00  0.00    +0.144 HD
ATOM     16  H   UNL     1      37.508 -22.768 -10.662  0.00  0.00    +0.144 HD
ATOM     17  H   UNL     1      35.578 -25.323  -9.272  0.00  0.00    +0.188 HD
ENDBRANCH   6  14
ENDBRANCH   1   9
BRANCH   1  19
ATOM     18  O   UNL     1      33.878 -24.090 -19.201  0.00  0.00    -0.244 OA
ATOM     19  C   UNL     1      33.681 -22.962 -18.776  0.00  0.00    +0.346 C 
BRANCH  19  20
ATOM     20  C   UNL     1      34.426 -21.771 -19.258  0.00  0.00    +0.076 C 
ATOM     21  C   UNL     1      35.783 -21.693 -19.025  0.00  0.00    +0.008 C 
ATOM     22  C   UNL     1      33.737 -20.779 -19.925  0.00  0.00    +0.008 C 
ATOM     23  C   UNL     1      35.810 -19.560 -20.157  0.00  0.00    +0.084 C 
ATOM     24  C   UNL     1      36.483 -20.576 -19.480  0.00  0.00    +0.019 C 
ATOM     25  C   UNL     1      34.436 -19.660 -20.379  0.00  0.00    +0.019 C 
BRANCH  23  26
ATOM     26  N   UNL     1      36.510 -18.438 -20.611  0.00  0.00    -0.214 NA
BRANCH  26  29
ATOM     27  N   UNL     1      35.176 -16.556 -20.247  0.00  0.00    -0.370 N 
ATOM     28  N   UNL     1      35.677 -17.070 -22.413  0.00  0.00    -0.370 N 
ATOM     29  C   UNL     1      35.835 -17.420 -21.090  0.00  0.00    +0.193 C 
ATOM     30  H   UNL     1      35.210 -16.696 -19.273  0.00  0.00    +0.159 HD
ATOM     31  H   UNL     1      34.672 -15.795 -20.617  0.00  0.00    +0.159 HD
ATOM     32  H   UNL     1      36.101 -17.610 -23.118  0.00  0.00    +0.159 HD
ATOM     33  H   UNL     1      35.143 -16.278 -22.653  0.00  0.00    +0.159 HD
ENDBRANCH  26  29
ENDBRANCH  23  26
ENDBRANCH  19  20
ENDBRANCH   1  19
TORSDOF 6
ENDMDL
MODEL 4
REMARK VINA RESULT:     -11.4      4.513     10.905
REMARK  Name = 4413
REMARK  6 active torsions:
REMARK  status: ('A' for Active; 'I' for Inactive)
REMARK    1  A    between atoms: O_1  and  C_9
REMARK    2  A    between atoms: O_1  and  C_19
REMARK    3  A    between atoms: C_6  and  C_14
REMARK    4  A    between atoms: C_19  and  C_20
REMARK    5  A    between atoms: C_23  and  N_26
REMARK    6  A    between atoms: N_26  and  C_29
REMARK                            x       y       z     vdW  Elec       q    Type
REMARK                         _______ _______ _______ _____ _____    ______ ____
ROOT
ATOM      1  O   UNL     1      36.070 -17.088 -22.646  0.00  0.00    -0.421 OA
ENDROOT
BRANCH   1   9
ATOM      2  C   UNL     1      35.686 -20.203 -19.900  0.00  0.00    +0.000 C 
ATOM      3  C   UNL     1      34.535 -19.663 -20.524  0.00  0.00    +0.003 C 
ATOM      4  C   UNL     1      35.540 -21.252 -18.978  0.00  0.00    +0.003 C 
ATOM      5  C   UNL     1      34.683 -18.615 -21.446  0.00  0.00    +0.038 C 
ATOM      6  C   UNL     1      34.277 -21.762 -18.676  0.00  0.00    +0.031 C 
ATOM      7  C   UNL     1      33.273 -20.190 -20.208  0.00  0.00    +0.000 C 
ATOM      8  C   UNL     1      36.950 -19.676 -20.216  0.00  0.00    +0.003 C 
ATOM      9  C   UNL     1      35.945 -18.103 -21.749  0.00  0.00    +0.149 C 
ATOM     10  C   UNL     1      33.146 -21.232 -19.289  0.00  0.00    +0.003 C 
ATOM     11  C   UNL     1      37.076 -18.634 -21.135  0.00  0.00    +0.038 C 
BRANCH   6  14
ATOM     12  N   UNL     1      34.597 -22.720 -16.407  0.00  0.00    -0.343 N 
ATOM     13  N   UNL     1      33.582 -23.986 -18.089  0.00  0.00    -0.285 NA
ATOM     14  C   UNL     1      34.142 -22.848 -17.718  0.00  0.00    +0.117 C 
ATOM     15  H   UNL     1      34.494 -23.468 -15.776  0.00  0.00    +0.144 HD
ATOM     16  H   UNL     1      35.019 -21.881 -16.112  0.00  0.00    +0.144 HD
ATOM     17  H   UNL     1      33.489 -24.723 -17.442  0.00  0.00    +0.188 HD
ENDBRANCH   6  14
ENDBRANCH   1   9
BRANCH   1  19
ATOM     18  O   UNL     1      34.389 -17.691 -24.143  0.00  0.00    -0.244 OA
ATOM     19  C   UNL     1      34.933 -16.865 -23.425  0.00  0.00    +0.346 C 
BRANCH  19  20
ATOM     20  C   UNL     1      34.438 -15.473 -23.269  0.00  0.00    +0.076 C 
ATOM     21  C   UNL     1      34.752 -14.777 -22.121  0.00  0.00    +0.008 C 
ATOM     22  C   UNL     1      33.680 -14.919 -24.281  0.00  0.00    +0.008 C 
ATOM     23  C   UNL     1      33.522 -12.886 -22.984  0.00  0.00    +0.084 C 
ATOM     24  C   UNL     1      34.289 -13.470 -21.976  0.00  0.00    +0.019 C 
ATOM     25  C   UNL     1      33.216 -13.611 -24.136  0.00  0.00    +0.019 C 
BRANCH  23  26
ATOM     26  N   UNL     1      33.056 -11.576 -22.839  0.00  0.00    -0.214 NA
BRANCH  26  29
ATOM     27  N   UNL     1      33.335  -9.291 -23.233  0.00  0.00    -0.370 N 
ATOM     28  N   UNL     1      34.950 -10.688 -24.037  0.00  0.00    -0.370 N 
ATOM     29  C   UNL     1      33.760 -10.593 -23.349  0.00  0.00    +0.193 C 
ATOM     30  H   UNL     1      32.495  -9.087 -22.762  0.00  0.00    +0.159 HD
ATOM     31  H   UNL     1      33.872  -8.561 -23.621  0.00  0.00    +0.159 HD
ATOM     32  H   UNL     1      35.362 -11.569 -24.189  0.00  0.00    +0.159 HD
ATOM     33  H   UNL     1      35.389  -9.874 -24.376  0.00  0.00    +0.159 HD
ENDBRANCH  26  29
ENDBRANCH  23  26
ENDBRANCH  19  20
ENDBRANCH   1  19
TORSDOF 6
ENDMDL
MODEL 5
REMARK VINA RESULT:     -11.4      1.868      2.304
REMARK  Name = 4413
REMARK  6 active torsions:
REMARK  status: ('A' for Active; 'I' for Inactive)
REMARK    1  A    between atoms: O_1  and  C_9
REMARK    2  A    between atoms: O_1  and  C_19
REMARK    3  A    between atoms: C_6  and  C_14
REMARK    4  A    between atoms: C_19  and  C_20
REMARK    5  A    between atoms: C_23  and  N_26
REMARK    6  A    between atoms: N_26  and  C_29
REMARK                            x       y       z     vdW  Elec       q    Type
REMARK                         _______ _______ _______ _____ _____    ______ ____
ROOT
ATOM      1  O   UNL     1      34.877 -22.838 -17.706  0.00  0.00    -0.421 OA
ENDROOT
BRANCH   1   9
ATOM      2  C   UNL     1      34.393 -19.824 -20.546  0.00  0.00    +0.000 C 
ATOM      3  C   UNL     1      35.682 -20.122 -20.043  0.00  0.00    +0.003 C 
ATOM      4  C   UNL     1      34.247 -18.806 -21.503  0.00  0.00    +0.003 C 
ATOM      5  C   UNL     1      35.827 -21.140 -19.087  0.00  0.00    +0.038 C 
ATOM      6  C   UNL     1      35.356 -18.093 -21.957  0.00  0.00    +0.031 C 
ATOM      7  C   UNL     1      36.787 -19.395 -20.512  0.00  0.00    +0.000 C 
ATOM      8  C   UNL     1      33.287 -20.552 -20.076  0.00  0.00    +0.003 C 
ATOM      9  C   UNL     1      34.718 -21.854 -18.631  0.00  0.00    +0.149 C 
ATOM     10  C   UNL     1      36.624 -18.386 -21.463  0.00  0.00    +0.003 C 
ATOM     11  C   UNL     1      33.451 -21.560 -19.126  0.00  0.00    +0.038 C 
BRANCH   6  14
ATOM     12  N   UNL     1      34.461 -17.256 -24.117  0.00  0.00    -0.343 N 
ATOM     13  N   UNL     1      35.736 -15.855 -22.747  0.00  0.00    -0.285 NA
ATOM     14  C   UNL     1      35.189 -17.041 -22.948  0.00  0.00    +0.117 C 
ATOM     15  H   UNL     1      34.360 -16.529 -24.773  0.00  0.00    +0.144 HD
ATOM     16  H   UNL     1      34.048 -18.133 -24.286  0.00  0.00    +0.144 HD
ATOM     17  H   UNL     1      35.624 -15.142 -23.417  0.00  0.00    +0.188 HD
ENDBRANCH   6  14
ENDBRANCH   1   9
BRANCH   1  19
ATOM     18  O   UNL     1      32.635 -22.867 -17.072  0.00  0.00    -0.244 OA
ATOM     19  C   UNL     1      33.823 -22.949 -16.797  0.00  0.00    +0.346 C 
BRANCH  19  20
ATOM     20  C   UNL     1      34.322 -23.196 -15.420  0.00  0.00    +0.076 C 
ATOM     21  C   UNL     1      35.632 -22.886 -15.120  0.00  0.00    +0.008 C 
ATOM     22  C   UNL     1      33.459 -23.727 -14.484  0.00  0.00    +0.008 C 
ATOM     23  C   UNL     1      35.248 -23.651 -12.861  0.00  0.00    +0.084 C 
ATOM     24  C   UNL     1      36.100 -23.116 -13.826  0.00  0.00    +0.019 C 
ATOM     25  C   UNL     1      33.927 -23.958 -13.189  0.00  0.00    +0.019 C 
BRANCH  23  26
ATOM     26  N   UNL     1      35.717 -23.884 -11.565  0.00  0.00    -0.214 NA
BRANCH  26  29
ATOM     27  N   UNL     1      37.951 -23.918 -10.883  0.00  0.00    -0.370 N 
ATOM     28  N   UNL     1      37.089 -25.860 -11.714  0.00  0.00    -0.370 N 
ATOM     29  C   UNL     1      36.842 -24.540 -11.406  0.00  0.00    +0.193 C 
ATOM     30  H   UNL     1      37.906 -22.970 -10.620  0.00  0.00    +0.159 HD
ATOM     31  H   UNL     1      38.790 -24.421 -10.768  0.00  0.00    +0.159 HD
ATOM     32  H   UNL     1      36.375 -26.418 -12.097  0.00  0.00    +0.159 HD
ATOM     33  H   UNL     1      37.980 -26.246 -11.549  0.00  0.00    +0.159 HD
ENDBRANCH  26  29
ENDBRANCH  23  26
ENDBRANCH  19  20
ENDBRANCH   1  19
TORSDOF 6
ENDMDL
MODEL 6
REMARK VINA RESULT:     -11.1      3.720      4.586
REMARK  Name = 4413
REMARK  6 active torsions:
REMARK  status: ('A' for Active; 'I' for Inactive)
REMARK    1  A    between atoms: O_1  and  C_9
REMARK    2  A    between atoms: O_1  and  C_19
REMARK    3  A    between atoms: C_6  and  C_14
REMARK    4  A    between atoms: C_19  and  C_20
REMARK    5  A    between atoms: C_23  and  N_26
REMARK    6  A    between atoms: N_26  and  C_29
REMARK                            x       y       z     vdW  Elec       q    Type
REMARK                         _______ _______ _______ _____ _____    ______ ____
ROOT
ATOM      1  O   UNL     1      35.055 -22.330 -18.029  0.00  0.00    -0.421 OA
ENDROOT
BRANCH   1   9
ATOM      2  C   UNL     1      34.487 -19.386 -20.926  0.00  0.00    +0.000 C 
ATOM      3  C   UNL     1      35.793 -19.691 -20.474  0.00  0.00    +0.003 C 
ATOM      4  C   UNL     1      34.313 -18.392 -21.903  0.00  0.00    +0.003 C 
ATOM      5  C   UNL     1      35.966 -20.685 -19.497  0.00  0.00    +0.038 C 
ATOM      6  C   UNL     1      35.410 -17.709 -22.426  0.00  0.00    +0.031 C 
ATOM      7  C   UNL     1      36.886 -18.993 -21.011  0.00  0.00    +0.000 C 
ATOM      8  C   UNL     1      33.393 -20.084 -20.388  0.00  0.00    +0.003 C 
ATOM      9  C   UNL     1      34.869 -21.369 -18.973  0.00  0.00    +0.149 C 
ATOM     10  C   UNL     1      36.695 -18.008 -21.981  0.00  0.00    +0.003 C 
ATOM     11  C   UNL     1      33.585 -21.069 -19.418  0.00  0.00    +0.038 C 
BRANCH   6  14
ATOM     12  N   UNL     1      34.473 -16.933 -24.591  0.00  0.00    -0.343 N 
ATOM     13  N   UNL     1      35.744 -15.483 -23.269  0.00  0.00    -0.285 NA
ATOM     14  C   UNL     1      35.213 -16.682 -23.437  0.00  0.00    +0.117 C 
ATOM     15  H   UNL     1      34.352 -16.222 -25.261  0.00  0.00    +0.144 HD
ATOM     16  H   UNL     1      34.071 -17.820 -24.735  0.00  0.00    +0.144 HD
ATOM     17  H   UNL     1      35.612 -14.787 -23.952  0.00  0.00    +0.188 HD
ENDBRANCH   6  14
ENDBRANCH   1   9
BRANCH   1  19
ATOM     18  O   UNL     1      33.860 -24.115 -18.930  0.00  0.00    -0.244 OA
ATOM     19  C   UNL     1      34.078 -23.328 -18.022  0.00  0.00    +0.346 C 
BRANCH  19  20
ATOM     20  C   UNL     1      33.321 -23.331 -16.744  0.00  0.00    +0.076 C 
ATOM     21  C   UNL     1      33.971 -23.696 -15.584  0.00  0.00    +0.008 C 
ATOM     22  C   UNL     1      31.990 -22.966 -16.759  0.00  0.00    +0.008 C 
ATOM     23  C   UNL     1      31.913 -23.332 -14.371  0.00  0.00    +0.084 C 
ATOM     24  C   UNL     1      33.259 -23.697 -14.384  0.00  0.00    +0.019 C 
ATOM     25  C   UNL     1      31.278 -22.967 -15.558  0.00  0.00    +0.019 C 
BRANCH  23  26
ATOM     26  N   UNL     1      31.199 -23.334 -13.169  0.00  0.00    -0.214 NA
BRANCH  26  29
ATOM     27  N   UNL     1      30.092 -24.612 -11.558  0.00  0.00    -0.370 N 
ATOM     28  N   UNL     1      30.055 -25.387 -13.704  0.00  0.00    -0.370 N 
ATOM     29  C   UNL     1      30.489 -24.392 -12.856  0.00  0.00    +0.193 C 
ATOM     30  H   UNL     1      30.339 -23.972 -10.852  0.00  0.00    +0.159 HD
ATOM     31  H   UNL     1      29.560 -25.410 -11.335  0.00  0.00    +0.159 HD
ATOM     32  H   UNL     1      30.274 -25.346 -14.662  0.00  0.00    +0.159 HD
ATOM     33  H   UNL     1      29.524 -26.138 -13.351  0.00  0.00    +0.159 HD
ENDBRANCH  26  29
ENDBRANCH  23  26
ENDBRANCH  19  20
ENDBRANCH   1  19
TORSDOF 6
ENDMDL
MODEL 7
REMARK VINA RESULT:     -11.1      4.468      6.945
REMARK  Name = 4413
REMARK  6 active torsions:
REMARK  status: ('A' for Active; 'I' for Inactive)
REMARK    1  A    between atoms: O_1  and  C_9
REMARK    2  A    between atoms: O_1  and  C_19
REMARK    3  A    between atoms: C_6  and  C_14
REMARK    4  A    between atoms: C_19  and  C_20
REMARK    5  A    between atoms: C_23  and  N_26
REMARK    6  A    between atoms: N_26  and  C_29
REMARK                            x       y       z     vdW  Elec       q    Type
REMARK                         _______ _______ _______ _____ _____    ______ ____
ROOT
ATOM      1  O   UNL     1      35.676 -17.489 -20.123  0.00  0.00    -0.421 OA
ENDROOT
BRANCH   1   9
ATOM      2  C   UNL     1      34.272 -14.382 -22.524  0.00  0.00    +0.000 C 
ATOM      3  C   UNL     1      34.588 -15.636 -23.102  0.00  0.00    +0.003 C 
ATOM      4  C   UNL     1      33.801 -13.347 -23.347  0.00  0.00    +0.003 C 
ATOM      5  C   UNL     1      35.060 -16.671 -22.278  0.00  0.00    +0.038 C 
ATOM      6  C   UNL     1      33.642 -13.544 -24.719  0.00  0.00    +0.031 C 
ATOM      7  C   UNL     1      34.422 -15.816 -24.484  0.00  0.00    +0.000 C 
ATOM      8  C   UNL     1      34.439 -14.202 -21.141  0.00  0.00    +0.003 C 
ATOM      9  C   UNL     1      35.219 -16.474 -20.906  0.00  0.00    +0.149 C 
ATOM     10  C   UNL     1      33.952 -14.776 -25.287  0.00  0.00    +0.003 C 
ATOM     11  C   UNL     1      34.908 -15.242 -20.339  0.00  0.00    +0.038 C 
BRANCH   6  14
ATOM     12  N   UNL     1      32.344 -12.710 -26.665  0.00  0.00    -0.343 N 
ATOM     13  N   UNL     1      33.477 -11.212 -25.274  0.00  0.00    -0.285 NA
ATOM     14  C   UNL     1      33.152 -12.461 -25.557  0.00  0.00    +0.117 C 
ATOM     15  H   UNL     1      32.024 -11.962 -27.218  0.00  0.00    +0.144 HD
ATOM     16  H   UNL     1      32.094 -13.634 -26.894  0.00  0.00    +0.144 HD
ATOM     17  H   UNL     1      33.146 -10.477 -25.841  0.00  0.00    +0.188 HD
ENDBRANCH   6  14
ENDBRANCH   1   9
BRANCH   1  19
ATOM     18  O   UNL     1      36.647 -18.768 -21.811  0.00  0.00    -0.244 OA
ATOM     19  C   UNL     1      35.948 -18.672 -20.813  0.00  0.00    +0.346 C 
BRANCH  19  20
ATOM     20  C   UNL     1      35.281 -19.834 -20.174  0.00  0.00    +0.076 C 
ATOM     21  C   UNL     1      36.055 -20.779 -19.534  0.00  0.00    +0.008 C 
ATOM     22  C   UNL     1      33.905 -19.931 -20.238  0.00  0.00    +0.008 C 
ATOM     23  C   UNL     1      34.040 -21.991 -18.981  0.00  0.00    +0.084 C 
ATOM     24  C   UNL     1      35.428 -21.869 -18.932  0.00  0.00    +0.019 C 
ATOM     25  C   UNL     1      33.278 -21.022 -19.635  0.00  0.00    +0.019 C 
BRANCH  23  26
ATOM     26  N   UNL     1      33.411 -23.084 -18.379  0.00  0.00    -0.214 NA
BRANCH  26  29
ATOM     27  N   UNL     1      31.730 -22.607 -16.828  0.00  0.00    -0.370 N 
ATOM     28  N   UNL     1      33.768 -23.209 -15.998  0.00  0.00    -0.370 N 
ATOM     29  C   UNL     1      33.018 -22.981 -17.131  0.00  0.00    +0.193 C 
ATOM     30  H   UNL     1      31.090 -22.415 -17.551  0.00  0.00    +0.159 HD
ATOM     31  H   UNL     1      31.447 -22.533 -15.888  0.00  0.00    +0.159 HD
ATOM     32  H   UNL     1      34.710 -23.483 -16.079  0.00  0.00    +0.159 HD
ATOM     33  H   UNL     1      33.362 -23.098 -15.108  0.00  0.00    +0.159 HD
ENDBRANCH  26  29
ENDBRANCH  23  26
ENDBRANCH  19  20
ENDBRANCH   1  19
TORSDOF 6
ENDMDL
MODEL 8
REMARK VINA RESULT:     -11.0      2.381      3.976
REMARK  Name = 4413
REMARK  6 active torsions:
REMARK  status: ('A' for Active; 'I' for Inactive)
REMARK    1  A    between atoms: O_1  and  C_9
REMARK    2  A    between atoms: O_1  and  C_19
REMARK    3  A    between atoms: C_6  and  C_14
REMARK    4  A    between atoms: C_19  and  C_20
REMARK    5  A    between atoms: C_23  and  N_26
REMARK    6  A    between atoms: N_26  and  C_29
REMARK                            x       y       z     vdW  Elec       q    Type
REMARK                         _______ _______ _______ _____ _____    ______ ____
ROOT
ATOM      1  O   UNL     1      35.698 -20.911 -20.114  0.00  0.00    -0.421 OA
ENDROOT
BRANCH   1   9
ATOM      2  C   UNL     1      35.036 -17.373 -22.218  0.00  0.00    +0.000 C 
ATOM      3  C   UNL     1      34.646 -18.613 -22.779  0.00  0.00    +0.003 C 
ATOM      4  C   UNL     1      34.806 -16.190 -22.940  0.00  0.00    +0.003 C 
ATOM      5  C   UNL     1      34.876 -19.795 -22.056  0.00  0.00    +0.038 C 
ATOM      6  C   UNL     1      34.199 -16.229 -24.195  0.00  0.00    +0.031 C 
ATOM      7  C   UNL     1      34.036 -18.634 -24.042  0.00  0.00    +0.000 C 
ATOM      8  C   UNL     1      35.647 -17.352 -20.953  0.00  0.00    +0.003 C 
ATOM      9  C   UNL     1      35.484 -19.756 -20.800  0.00  0.00    +0.149 C 
ATOM     10  C   UNL     1      33.814 -17.449 -24.746  0.00  0.00    +0.003 C 
ATOM     11  C   UNL     1      35.867 -18.537 -20.251  0.00  0.00    +0.038 C 
BRANCH   6  14
ATOM     12  N   UNL     1      33.809 -13.778 -24.271  0.00  0.00    -0.343 N 
ATOM     13  N   UNL     1      33.901 -15.019 -26.250  0.00  0.00    -0.285 NA
ATOM     14  C   UNL     1      33.967 -14.996 -24.930  0.00  0.00    +0.117 C 
ATOM     15  H   UNL     1      33.654 -12.956 -24.789  0.00  0.00    +0.144 HD
ATOM     16  H   UNL     1      33.853 -13.741 -23.288  0.00  0.00    +0.144 HD
ATOM     17  H   UNL     1      33.744 -14.185 -26.749  0.00  0.00    +0.188 HD
ENDBRANCH   6  14
ENDBRANCH   1   9
BRANCH   1  19
ATOM     18  O   UNL     1      33.456 -21.191 -19.547  0.00  0.00    -0.244 OA
ATOM     19  C   UNL     1      34.644 -21.290 -19.280  0.00  0.00    +0.346 C 
BRANCH  19  20
ATOM     20  C   UNL     1      35.145 -21.851 -18.000  0.00  0.00    +0.076 C 
ATOM     21  C   UNL     1      36.443 -21.583 -17.616  0.00  0.00    +0.008 C 
ATOM     22  C   UNL     1      34.296 -22.622 -17.232  0.00  0.00    +0.008 C 
ATOM     23  C   UNL     1      36.074 -22.890 -15.618  0.00  0.00    +0.084 C 
ATOM     24  C   UNL     1      36.912 -22.109 -16.413  0.00  0.00    +0.019 C 
ATOM     25  C   UNL     1      34.765 -23.148 -16.028  0.00  0.00    +0.019 C 
BRANCH  23  26
ATOM     26  N   UNL     1      36.544 -23.419 -14.413  0.00  0.00    -0.214 NA
BRANCH  26  29
ATOM     27  N   UNL     1      38.173 -25.080 -14.627  0.00  0.00    -0.370 N 
ATOM     28  N   UNL     1      36.066 -25.757 -14.072  0.00  0.00    -0.370 N 
ATOM     29  C   UNL     1      36.882 -24.686 -14.365  0.00  0.00    +0.193 C 
ATOM     30  H   UNL     1      38.857 -24.408 -14.851  0.00  0.00    +0.159 HD
ATOM     31  H   UNL     1      38.415 -26.034 -14.588  0.00  0.00    +0.159 HD
ATOM     32  H   UNL     1      35.116 -25.609 -13.865  0.00  0.00    +0.159 HD
ATOM     33  H   UNL     1      36.435 -26.670 -14.066  0.00  0.00    +0.159 HD
ENDBRANCH  26  29
ENDBRANCH  23  26
ENDBRANCH  19  20
ENDBRANCH   1  19
TORSDOF 6
ENDMDL
MODEL 9
REMARK VINA RESULT:     -11.0      3.912      9.632
REMARK  Name = 4413
REMARK  6 active torsions:
REMARK  status: ('A' for Active; 'I' for Inactive)
REMARK    1  A    between atoms: O_1  and  C_9
REMARK    2  A    between atoms: O_1  and  C_19
REMARK    3  A    between atoms: C_6  and  C_14
REMARK    4  A    between atoms: C_19  and  C_20
REMARK    5  A    between atoms: C_23  and  N_26
REMARK    6  A    between atoms: N_26  and  C_29
REMARK                            x       y       z     vdW  Elec       q    Type
REMARK                         _______ _______ _______ _____ _____    ______ ____
ROOT
ATOM      1  O   UNL     1      35.580 -19.530 -21.692  0.00  0.00    -0.421 OA
ENDROOT
BRANCH   1   9
ATOM      2  C   UNL     1      33.255 -21.371 -18.760  0.00  0.00    +0.000 C 
ATOM      3  C   UNL     1      34.663 -21.515 -18.740  0.00  0.00    +0.003 C 
ATOM      4  C   UNL     1      32.487 -21.997 -17.766  0.00  0.00    +0.003 C 
ATOM      5  C   UNL     1      35.431 -20.888 -19.735  0.00  0.00    +0.038 C 
ATOM      6  C   UNL     1      33.097 -22.754 -16.766  0.00  0.00    +0.031 C 
ATOM      7  C   UNL     1      35.261 -22.279 -17.727  0.00  0.00    +0.000 C 
ATOM      8  C   UNL     1      32.657 -20.605 -19.775  0.00  0.00    +0.003 C 
ATOM      9  C   UNL     1      34.821 -20.131 -20.736  0.00  0.00    +0.149 C 
ATOM     10  C   UNL     1      34.482 -22.895 -16.746  0.00  0.00    +0.003 C 
ATOM     11  C   UNL     1      33.436 -19.990 -20.755  0.00  0.00    +0.038 C 
BRANCH   6  14
ATOM     12  N   UNL     1      30.898 -23.442 -15.841  0.00  0.00    -0.343 N 
ATOM     13  N   UNL     1      32.870 -23.948 -14.693  0.00  0.00    -0.285 NA
ATOM     14  C   UNL     1      32.288 -23.396 -15.743  0.00  0.00    +0.117 C 
ATOM     15  H   UNL     1      30.370 -23.883 -15.137  0.00  0.00    +0.144 HD
ATOM     16  H   UNL     1      30.445 -23.034 -16.614  0.00  0.00    +0.144 HD
ATOM     17  H   UNL     1      32.323 -24.384 -14.000  0.00  0.00    +0.188 HD
ENDBRANCH   6  14
ENDBRANCH   1   9
BRANCH   1  19
ATOM     18  O   UNL     1      37.508 -18.620 -20.752  0.00  0.00    -0.244 OA
ATOM     19  C   UNL     1      36.386 -18.492 -21.218  0.00  0.00    +0.346 C 
BRANCH  19  20
ATOM     20  C   UNL     1      35.710 -17.178 -21.359  0.00  0.00    +0.076 C 
ATOM     21  C   UNL     1      35.525 -16.654 -22.622  0.00  0.00    +0.008 C 
ATOM     22  C   UNL     1      35.285 -16.522 -20.222  0.00  0.00    +0.008 C 
ATOM     23  C   UNL     1      34.449 -14.737 -21.621  0.00  0.00    +0.084 C 
ATOM     24  C   UNL     1      34.888 -15.420 -22.754  0.00  0.00    +0.019 C 
ATOM     25  C   UNL     1      34.648 -15.287 -20.354  0.00  0.00    +0.019 C 
BRANCH  23  26
ATOM     26  N   UNL     1      33.812 -13.500 -21.752  0.00  0.00    -0.214 NA
BRANCH  26  29
ATOM     27  N   UNL     1      32.718 -13.455 -23.816  0.00  0.00    -0.370 N 
ATOM     28  N   UNL     1      34.411 -11.957 -23.505  0.00  0.00    -0.370 N 
ATOM     29  C   UNL     1      33.676 -12.982 -22.950  0.00  0.00    +0.193 C 
ATOM     30  H   UNL     1      32.124 -14.190 -23.539  0.00  0.00    +0.159 HD
ATOM     31  H   UNL     1      32.625 -13.058 -24.712  0.00  0.00    +0.159 HD
ATOM     32  H   UNL     1      35.130 -11.531 -22.986  0.00  0.00    +0.159 HD
ATOM     33  H   UNL     1      34.215 -11.650 -24.421  0.00  0.00    +0.159 HD
ENDBRANCH  26  29
ENDBRANCH  23  26
ENDBRANCH  19  20
ENDBRANCH   1  19
TORSDOF 6
ENDMDL
