MODEL 1
REMARK VINA RESULT:     -12.6      0.000      0.000
REMARK  Name = 54726191
REMARK  4 active torsions:
REMARK  status: ('A' for Active; 'I' for Inactive)
REMARK    1  A    between atoms: C_15  and  O_31
REMARK    2  A    between atoms: C_16  and  C_20
REMARK    3  A    between atoms: N_19  and  C_22
REMARK    4  A    between atoms: C_22  and  C_25
REMARK                            x       y       z     vdW  Elec       q    Type
REMARK                         _______ _______ _______ _____ _____    ______ ____
ROOT
ATOM      1  O   UNL     1      37.265 -22.947 -14.835  0.00  0.00    -0.336 OA
ATOM      2  O   UNL     1      33.354 -23.686 -17.330  0.00  0.00    -0.268 OA
ATOM      3  O   UNL     1      33.691 -20.051 -20.878  0.00  0.00    -0.283 OA
ATOM      4  N   UNL     1      35.144 -23.169 -15.956  0.00  0.00    -0.253 N 
ATOM      5  N   UNL     1      36.139 -21.484 -17.982  0.00  0.00    -0.275 N 
ATOM      6  C   UNL     1      36.313 -22.319 -15.702  0.00  0.00    +0.215 C 
ATOM      7  C   UNL     1      34.584 -23.932 -14.826  0.00  0.00    +0.080 C 
ATOM      8  C   UNL     1      35.685 -24.477 -13.916  0.00  0.00    +0.052 C 
ATOM      9  C   UNL     1      37.056 -22.040 -16.998  0.00  0.00    +0.147 C 
ATOM     10  C   UNL     1      36.709 -23.402 -13.609  0.00  0.00    +0.146 C 
ATOM     11  C   UNL     1      34.368 -23.023 -17.114  0.00  0.00    +0.267 C 
ATOM     12  C   UNL     1      34.835 -21.974 -18.097  0.00  0.00    +0.143 C 
ATOM     13  C   UNL     1      33.578 -23.077 -14.046  0.00  0.00    +0.022 C 
ATOM     14  C   UNL     1      36.580 -20.529 -18.888  0.00  0.00    +0.074 C 
ATOM     15  C   UNL     1      33.973 -21.534 -19.040  0.00  0.00    +0.191 C 
ATOM     16  C   UNL     1      35.837 -20.006 -19.871  0.00  0.00    +0.110 C 
ATOM     17  C   UNL     1      34.438 -20.488 -20.007  0.00  0.00    +0.236 C 
ENDROOT
BRANCH  16  20
ATOM     18  O   UNL     1      37.651 -18.779 -20.721  0.00  0.00    -0.270 OA
ATOM     19  N   UNL     1      35.515 -18.370 -21.565  0.00  0.00    -0.297 N 
ATOM     20  C   UNL     1      36.440 -19.001 -20.747  0.00  0.00    +0.251 C 
ATOM     21  H   UNL     1      34.571 -18.637 -21.492  0.00  0.00    +0.150 HD
BRANCH  19  22
ATOM     22  C   UNL     1      35.866 -17.340 -22.516  0.00  0.00    +0.119 C 
BRANCH  22  25
ATOM     23  F   UNL     1      34.801 -15.693 -24.555  0.00  0.00    -0.204 F 
ATOM     24  F   UNL     1      33.199 -12.497 -21.456  0.00  0.00    -0.204 F 
ATOM     25  C   UNL     1      35.155 -16.049 -22.235  0.00  0.00    +0.025 C 
ATOM     26  C   UNL     1      34.653 -15.284 -23.289  0.00  0.00    +0.140 C 
ATOM     27  C   UNL     1      34.996 -15.615 -20.919  0.00  0.00    +0.002 C 
ATOM     28  C   UNL     1      33.993 -14.083 -23.025  0.00  0.00    +0.059 C 
ATOM     29  C   UNL     1      34.335 -14.414 -20.656  0.00  0.00    +0.030 C 
ATOM     30  C   UNL     1      33.834 -13.648 -21.708  0.00  0.00    +0.142 C 
ENDBRANCH  22  25
ENDBRANCH  19  22
ENDBRANCH  16  20
BRANCH  15  31
ATOM     31  O   UNL     1      32.674 -21.973 -19.166  0.00  0.00    -0.502 OA
ATOM     32  H   UNL     1      31.976 -21.354 -19.245  0.00  0.00    +0.292 HD
ENDBRANCH  15  31
TORSDOF 4
ENDMDL
MODEL 2
REMARK VINA RESULT:     -12.5      3.998      9.677
REMARK  Name = 54726191
REMARK  4 active torsions:
REMARK  status: ('A' for Active; 'I' for Inactive)
REMARK    1  A    between atoms: C_15  and  O_31
REMARK    2  A    between atoms: C_16  and  C_20
REMARK    3  A    between atoms: N_19  and  C_22
REMARK    4  A    between atoms: C_22  and  C_25
REMARK                            x       y       z     vdW  Elec       q    Type
REMARK                         _______ _______ _______ _____ _____    ______ ____
ROOT
ATOM      1  O   UNL     1      34.396 -12.280 -22.733  0.00  0.00    -0.336 OA
ATOM      2  O   UNL     1      32.676 -15.825 -25.290  0.00  0.00    -0.268 OA
ATOM      3  O   UNL     1      35.237 -19.798 -23.400  0.00  0.00    -0.283 OA
ATOM      4  N   UNL     1      33.698 -14.051 -24.209  0.00  0.00    -0.253 N 
ATOM      5  N   UNL     1      34.855 -15.886 -22.412  0.00  0.00    -0.275 N 
ATOM      6  C   UNL     1      34.683 -13.596 -23.222  0.00  0.00    +0.215 C 
ATOM      7  C   UNL     1      33.220 -13.079 -25.210  0.00  0.00    +0.080 C 
ATOM      8  C   UNL     1      33.038 -11.689 -24.601  0.00  0.00    +0.052 C 
ATOM      9  C   UNL     1      34.667 -14.502 -22.002  0.00  0.00    +0.147 C 
ATOM     10  C   UNL     1      34.242 -11.310 -23.760  0.00  0.00    +0.146 C 
ATOM     11  C   UNL     1      33.458 -15.414 -24.433  0.00  0.00    +0.267 C 
ATOM     12  C   UNL     1      34.241 -16.375 -23.568  0.00  0.00    +0.143 C 
ATOM     13  C   UNL     1      34.163 -13.048 -26.419  0.00  0.00    +0.022 C 
ATOM     14  C   UNL     1      35.566 -16.764 -21.606  0.00  0.00    +0.074 C 
ATOM     15  C   UNL     1      34.334 -17.668 -23.950  0.00  0.00    +0.191 C 
ATOM     16  C   UNL     1      35.739 -18.067 -21.860  0.00  0.00    +0.110 C 
ATOM     17  C   UNL     1      35.118 -18.615 -23.093  0.00  0.00    +0.236 C 
ENDROOT
BRANCH  16  20
ATOM     18  O   UNL     1      37.726 -18.671 -20.762  0.00  0.00    -0.270 OA
ATOM     19  N   UNL     1      35.761 -19.823 -20.260  0.00  0.00    -0.297 N 
ATOM     20  C   UNL     1      36.519 -18.868 -20.917  0.00  0.00    +0.251 C 
ATOM     21  H   UNL     1      34.801 -19.883 -20.471  0.00  0.00    +0.150 HD
BRANCH  19  22
ATOM     22  C   UNL     1      36.305 -20.737 -19.281  0.00  0.00    +0.119 C 
BRANCH  22  25
ATOM     23  F   UNL     1      36.781 -22.147 -16.875  0.00  0.00    -0.204 F 
ATOM     24  F   UNL     1      32.262 -23.498 -16.500  0.00  0.00    -0.204 F 
ATOM     25  C   UNL     1      35.229 -21.474 -18.539  0.00  0.00    +0.025 C 
ATOM     26  C   UNL     1      35.532 -22.150 -17.357  0.00  0.00    +0.140 C 
ATOM     27  C   UNL     1      33.924 -21.481 -19.032  0.00  0.00    +0.002 C 
ATOM     28  C   UNL     1      34.529 -22.833 -16.668  0.00  0.00    +0.059 C 
ATOM     29  C   UNL     1      32.922 -22.165 -18.343  0.00  0.00    +0.030 C 
ATOM     30  C   UNL     1      33.224 -22.842 -17.162  0.00  0.00    +0.142 C 
ENDBRANCH  22  25
ENDBRANCH  19  22
ENDBRANCH  16  20
BRANCH  15  31
ATOM     31  O   UNL     1      33.765 -18.179 -25.095  0.00  0.00    -0.502 OA
ATOM     32  H   UNL     1      34.298 -18.352 -25.846  0.00  0.00    +0.292 HD
ENDBRANCH  15  31
TORSDOF 4
ENDMDL
MODEL 3
REMARK VINA RESULT:     -11.5      6.373     12.081
REMARK  Name = 54726191
REMARK  4 active torsions:
REMARK  status: ('A' for Active; 'I' for Inactive)
REMARK    1  A    between atoms: C_15  and  O_31
REMARK    2  A    between atoms: C_16  and  C_20
REMARK    3  A    between atoms: N_19  and  C_22
REMARK    4  A    between atoms: C_22  and  C_25
REMARK                            x       y       z     vdW  Elec       q    Type
REMARK                         _______ _______ _______ _____ _____    ______ ____
ROOT
ATOM      1  O   UNL     1      33.521  -6.398 -23.599  0.00  0.00    -0.336 OA
ATOM      2  O   UNL     1      31.987  -8.608 -19.748  0.00  0.00    -0.268 OA
ATOM      3  O   UNL     1      31.962 -13.461 -21.285  0.00  0.00    -0.283 OA
ATOM      4  N   UNL     1      32.502  -7.496 -21.713  0.00  0.00    -0.253 N 
ATOM      5  N   UNL     1      33.289  -9.958 -22.833  0.00  0.00    -0.275 N 
ATOM      6  C   UNL     1      32.859  -7.580 -23.133  0.00  0.00    +0.215 C 
ATOM      7  C   UNL     1      31.972  -6.217 -21.206  0.00  0.00    +0.080 C 
ATOM      8  C   UNL     1      32.687  -5.023 -21.840  0.00  0.00    +0.052 C 
ATOM      9  C   UNL     1      33.837  -8.720 -23.366  0.00  0.00    +0.147 C 
ATOM     10  C   UNL     1      32.801  -5.201 -23.341  0.00  0.00    +0.146 C 
ATOM     11  C   UNL     1      32.336  -8.646 -20.928  0.00  0.00    +0.267 C 
ATOM     12  C   UNL     1      32.591  -9.964 -21.622  0.00  0.00    +0.143 C 
ATOM     13  C   UNL     1      30.455  -6.144 -21.416  0.00  0.00    +0.022 C 
ATOM     14  C   UNL     1      33.538 -11.166 -23.471  0.00  0.00    +0.074 C 
ATOM     15  C   UNL     1      32.123 -11.100 -21.058  0.00  0.00    +0.191 C 
ATOM     16  C   UNL     1      33.136 -12.363 -23.027  0.00  0.00    +0.110 C 
ATOM     17  C   UNL     1      32.372 -12.404 -21.753  0.00  0.00    +0.236 C 
ENDROOT
BRANCH  16  20
ATOM     18  O   UNL     1      32.893 -13.796 -24.873  0.00  0.00    -0.270 OA
ATOM     19  N   UNL     1      34.469 -14.319 -23.235  0.00  0.00    -0.297 N 
ATOM     20  C   UNL     1      33.470 -13.551 -23.812  0.00  0.00    +0.251 C 
ATOM     21  H   UNL     1      34.854 -14.017 -22.381  0.00  0.00    +0.150 HD
BRANCH  19  22
ATOM     22  C   UNL     1      34.972 -15.541 -23.820  0.00  0.00    +0.119 C 
BRANCH  22  25
ATOM     23  F   UNL     1      34.250 -18.187 -24.516  0.00  0.00    -0.204 F 
ATOM     24  F   UNL     1      34.996 -19.791 -20.128  0.00  0.00    -0.204 F 
ATOM     25  C   UNL     1      34.978 -16.675 -22.837  0.00  0.00    +0.025 C 
ATOM     26  C   UNL     1      34.610 -17.957 -23.247  0.00  0.00    +0.140 C 
ATOM     27  C   UNL     1      35.352 -16.446 -21.513  0.00  0.00    +0.002 C 
ATOM     28  C   UNL     1      34.616 -19.010 -22.331  0.00  0.00    +0.059 C 
ATOM     29  C   UNL     1      35.358 -17.499 -20.598  0.00  0.00    +0.030 C 
ATOM     30  C   UNL     1      34.990 -18.781 -21.006  0.00  0.00    +0.142 C 
ENDBRANCH  22  25
ENDBRANCH  19  22
ENDBRANCH  16  20
BRANCH  15  31
ATOM     31  O   UNL     1      31.410 -11.141 -19.881  0.00  0.00    -0.502 OA
ATOM     32  H   UNL     1      31.757 -11.596 -19.138  0.00  0.00    +0.292 HD
ENDBRANCH  15  31
TORSDOF 4
ENDMDL
MODEL 4
REMARK VINA RESULT:     -11.4      3.126      4.636
REMARK  Name = 54726191
REMARK  4 active torsions:
REMARK  status: ('A' for Active; 'I' for Inactive)
REMARK    1  A    between atoms: C_15  and  O_31
REMARK    2  A    between atoms: C_16  and  C_20
REMARK    3  A    between atoms: N_19  and  C_22
REMARK    4  A    between atoms: C_22  and  C_25
REMARK                            x       y       z     vdW  Elec       q    Type
REMARK                         _______ _______ _______ _____ _____    ______ ____
ROOT
ATOM      1  O   UNL     1      37.849 -24.605 -13.195  0.00  0.00    -0.336 OA
ATOM      2  O   UNL     1      33.231 -24.614 -12.330  0.00  0.00    -0.268 OA
ATOM      3  O   UNL     1      31.378 -22.557 -16.602  0.00  0.00    -0.283 OA
ATOM      4  N   UNL     1      35.513 -24.382 -12.649  0.00  0.00    -0.253 N 
ATOM      5  N   UNL     1      35.020 -23.838 -15.369  0.00  0.00    -0.275 N 
ATOM      6  C   UNL     1      36.610 -23.967 -13.529  0.00  0.00    +0.215 C 
ATOM      7  C   UNL     1      35.796 -24.527 -11.210  0.00  0.00    +0.080 C 
ATOM      8  C   UNL     1      37.179 -25.131 -10.968  0.00  0.00    +0.052 C 
ATOM      9  C   UNL     1      36.316 -24.365 -14.966  0.00  0.00    +0.147 C 
ATOM     10  C   UNL     1      38.221 -24.448 -11.832  0.00  0.00    +0.146 C 
ATOM     11  C   UNL     1      34.175 -24.320 -13.064  0.00  0.00    +0.267 C 
ATOM     12  C   UNL     1      33.942 -23.846 -14.480  0.00  0.00    +0.143 C 
ATOM     13  C   UNL     1      35.633 -23.182 -10.492  0.00  0.00    +0.022 C 
ATOM     14  C   UNL     1      34.812 -23.415 -16.674  0.00  0.00    +0.074 C 
ATOM     15  C   UNL     1      32.705 -23.429 -14.832  0.00  0.00    +0.191 C 
ATOM     16  C   UNL     1      33.643 -22.978 -17.160  0.00  0.00    +0.110 C 
ATOM     17  C   UNL     1      32.481 -22.952 -16.235  0.00  0.00    +0.236 C 
ENDROOT
BRANCH  16  20
ATOM     18  O   UNL     1      33.780 -23.360 -19.474  0.00  0.00    -0.270 OA
ATOM     19  N   UNL     1      33.275 -21.215 -18.710  0.00  0.00    -0.297 N 
ATOM     20  C   UNL     1      33.578 -22.559 -18.560  0.00  0.00    +0.251 C 
ATOM     21  H   UNL     1      33.135 -20.676 -17.899  0.00  0.00    +0.150 HD
BRANCH  19  22
ATOM     22  C   UNL     1      33.156 -20.565 -19.995  0.00  0.00    +0.119 C 
BRANCH  22  25
ATOM     23  F   UNL     1      33.434 -19.130 -22.418  0.00  0.00    -0.204 F 
ATOM     24  F   UNL     1      38.044 -18.345 -21.693  0.00  0.00    -0.204 F 
ATOM     25  C   UNL     1      34.458 -19.973 -20.449  0.00  0.00    +0.025 C 
ATOM     26  C   UNL     1      34.526 -19.276 -21.656  0.00  0.00    +0.140 C 
ATOM     27  C   UNL     1      35.601 -20.119 -19.662  0.00  0.00    +0.002 C 
ATOM     28  C   UNL     1      35.738 -18.726 -22.076  0.00  0.00    +0.059 C 
ATOM     29  C   UNL     1      36.812 -19.569 -20.083  0.00  0.00    +0.030 C 
ATOM     30  C   UNL     1      36.881 -18.873 -21.290  0.00  0.00    +0.142 C 
ENDBRANCH  22  25
ENDBRANCH  19  22
ENDBRANCH  16  20
BRANCH  15  31
ATOM     31  O   UNL     1      31.627 -23.397 -13.977  0.00  0.00    -0.502 OA
ATOM     32  H   UNL     1      31.326 -22.579 -13.633  0.00  0.00    +0.292 HD
ENDBRANCH  15  31
TORSDOF 4
ENDMDL
MODEL 5
REMARK VINA RESULT:     -11.0      4.506     10.010
REMARK  Name = 54726191
REMARK  4 active torsions:
REMARK  status: ('A' for Active; 'I' for Inactive)
REMARK    1  A    between atoms: C_15  and  O_31
REMARK    2  A    between atoms: C_16  and  C_20
REMARK    3  A    between atoms: N_19  and  C_22
REMARK    4  A    between atoms: C_22  and  C_25
REMARK                            x       y       z     vdW  Elec       q    Type
REMARK                         _______ _______ _______ _____ _____    ______ ____
ROOT
ATOM      1  O   UNL     1      31.812 -10.878 -19.495  0.00  0.00    -0.336 OA
ATOM      2  O   UNL     1      32.686 -11.774 -24.023  0.00  0.00    -0.268 OA
ATOM      3  O   UNL     1      35.570 -15.957 -23.708  0.00  0.00    -0.283 OA
ATOM      4  N   UNL     1      32.462 -11.189 -21.794  0.00  0.00    -0.253 N 
ATOM      5  N   UNL     1      33.409 -13.747 -21.087  0.00  0.00    -0.275 N 
ATOM      6  C   UNL     1      32.733 -11.514 -20.389  0.00  0.00    +0.215 C 
ATOM      7  C   UNL     1      32.095  -9.801 -22.125  0.00  0.00    +0.080 C 
ATOM      8  C   UNL     1      31.186  -9.190 -21.058  0.00  0.00    +0.052 C 
ATOM      9  C   UNL     1      32.575 -13.007 -20.151  0.00  0.00    +0.147 C 
ATOM     10  C   UNL     1      31.726  -9.470 -19.670  0.00  0.00    +0.146 C 
ATOM     11  C   UNL     1      32.855 -12.044 -22.834  0.00  0.00    +0.267 C 
ATOM     12  C   UNL     1      33.529 -13.330 -22.416  0.00  0.00    +0.143 C 
ATOM     13  C   UNL     1      33.352  -8.952 -22.351  0.00  0.00    +0.022 C 
ATOM     14  C   UNL     1      34.015 -14.933 -20.698  0.00  0.00    +0.074 C 
ATOM     15  C   UNL     1      34.237 -14.024 -23.334  0.00  0.00    +0.191 C 
ATOM     16  C   UNL     1      34.743 -15.720 -21.499  0.00  0.00    +0.110 C 
ATOM     17  C   UNL     1      34.910 -15.295 -22.913  0.00  0.00    +0.236 C 
ENDROOT
BRANCH  16  20
ATOM     18  O   UNL     1      35.784 -16.965 -19.800  0.00  0.00    -0.270 OA
ATOM     19  N   UNL     1      35.293 -18.008 -21.827  0.00  0.00    -0.297 N 
ATOM     20  C   UNL     1      35.325 -16.941 -20.944  0.00  0.00    +0.251 C 
ATOM     21  H   UNL     1      34.899 -17.864 -22.718  0.00  0.00    +0.150 HD
BRANCH  19  22
ATOM     22  C   UNL     1      35.809 -19.321 -21.510  0.00  0.00    +0.119 C 
BRANCH  22  25
ATOM     23  F   UNL     1      36.800 -21.109 -19.555  0.00  0.00    -0.204 F 
ATOM     24  F   UNL     1      32.470 -22.085 -17.917  0.00  0.00    -0.204 F 
ATOM     25  C   UNL     1      34.920 -20.058 -20.552  0.00  0.00    +0.025 C 
ATOM     26  C   UNL     1      35.475 -20.926 -19.611  0.00  0.00    +0.140 C 
ATOM     27  C   UNL     1      33.538 -19.874 -20.603  0.00  0.00    +0.002 C 
ATOM     28  C   UNL     1      34.646 -21.611 -18.721  0.00  0.00    +0.059 C 
ATOM     29  C   UNL     1      32.710 -20.559 -19.712  0.00  0.00    +0.030 C 
ATOM     30  C   UNL     1      33.264 -21.428 -18.772  0.00  0.00    +0.142 C 
ENDBRANCH  22  25
ENDBRANCH  19  22
ENDBRANCH  16  20
BRANCH  15  31
ATOM     31  O   UNL     1      34.399 -13.631 -24.644  0.00  0.00    -0.502 OA
ATOM     32  H   UNL     1      34.387 -12.720 -24.865  0.00  0.00    +0.292 HD
ENDBRANCH  15  31
TORSDOF 4
ENDMDL
MODEL 6
REMARK VINA RESULT:     -10.8      1.699      2.183
REMARK  Name = 54726191
REMARK  4 active torsions:
REMARK  status: ('A' for Active; 'I' for Inactive)
REMARK    1  A    between atoms: C_15  and  O_31
REMARK    2  A    between atoms: C_16  and  C_20
REMARK    3  A    between atoms: N_19  and  C_22
REMARK    4  A    between atoms: C_22  and  C_25
REMARK                            x       y       z     vdW  Elec       q    Type
REMARK                         _______ _______ _______ _____ _____    ______ ____
ROOT
ATOM      1  O   UNL     1      36.419 -23.324 -13.691  0.00  0.00    -0.336 OA
ATOM      2  O   UNL     1      32.711 -23.840 -16.530  0.00  0.00    -0.268 OA
ATOM      3  O   UNL     1      33.839 -20.607 -20.297  0.00  0.00    -0.283 OA
ATOM      4  N   UNL     1      34.407 -23.406 -15.015  0.00  0.00    -0.253 N 
ATOM      5  N   UNL     1      35.796 -22.037 -17.048  0.00  0.00    -0.275 N 
ATOM      6  C   UNL     1      35.640 -22.674 -14.704  0.00  0.00    +0.215 C 
ATOM      7  C   UNL     1      33.649 -23.994 -13.896  0.00  0.00    +0.080 C 
ATOM      8  C   UNL     1      34.580 -24.575 -12.831  0.00  0.00    +0.052 C 
ATOM      9  C   UNL     1      36.536 -22.601 -15.929  0.00  0.00    +0.147 C 
ATOM     10  C   UNL     1      35.692 -23.599 -12.501  0.00  0.00    +0.146 C 
ATOM     11  C   UNL     1      33.773 -23.279 -16.259  0.00  0.00    +0.267 C 
ATOM     12  C   UNL     1      34.459 -22.385 -17.265  0.00  0.00    +0.143 C 
ATOM     13  C   UNL     1      32.683 -22.962 -13.300  0.00  0.00    +0.022 C 
ATOM     14  C   UNL     1      36.437 -21.225 -17.974  0.00  0.00    +0.074 C 
ATOM     15  C   UNL     1      33.755 -21.938 -18.328  0.00  0.00    +0.191 C 
ATOM     16  C   UNL     1      35.865 -20.713 -19.070  0.00  0.00    +0.110 C 
ATOM     17  C   UNL     1      34.437 -21.044 -19.319  0.00  0.00    +0.236 C 
ENDROOT
BRANCH  16  20
ATOM     18  O   UNL     1      37.871 -20.083 -20.117  0.00  0.00    -0.270 OA
ATOM     19  N   UNL     1      35.936 -18.852 -20.545  0.00  0.00    -0.297 N 
ATOM     20  C   UNL     1      36.669 -19.868 -19.952  0.00  0.00    +0.251 C 
ATOM     21  H   UNL     1      34.978 -18.783 -20.333  0.00  0.00    +0.150 HD
BRANCH  19  22
ATOM     22  C   UNL     1      36.508 -17.886 -21.456  0.00  0.00    +0.119 C 
BRANCH  22  25
ATOM     23  F   UNL     1      35.090 -19.747 -23.047  0.00  0.00    -0.204 F 
ATOM     24  F   UNL     1      32.860 -16.339 -25.456  0.00  0.00    -0.204 F 
ATOM     25  C   UNL     1      35.535 -17.475 -22.522  0.00  0.00    +0.025 C 
ATOM     26  C   UNL     1      34.869 -18.445 -23.272  0.00  0.00    +0.140 C 
ATOM     27  C   UNL     1      35.297 -16.122 -22.763  0.00  0.00    +0.002 C 
ATOM     28  C   UNL     1      33.965 -18.061 -24.263  0.00  0.00    +0.059 C 
ATOM     29  C   UNL     1      34.393 -15.738 -23.754  0.00  0.00    +0.030 C 
ATOM     30  C   UNL     1      33.727 -16.707 -24.505  0.00  0.00    +0.142 C 
ENDBRANCH  22  25
ENDBRANCH  19  22
ENDBRANCH  16  20
BRANCH  15  31
ATOM     31  O   UNL     1      32.431 -22.237 -18.559  0.00  0.00    -0.502 OA
ATOM     32  H   UNL     1      31.759 -21.799 -18.074  0.00  0.00    +0.292 HD
ENDBRANCH  15  31
TORSDOF 4
ENDMDL
MODEL 7
REMARK VINA RESULT:     -10.7      5.170      8.806
REMARK  Name = 54726191
REMARK  4 active torsions:
REMARK  status: ('A' for Active; 'I' for Inactive)
REMARK    1  A    between atoms: C_15  and  O_31
REMARK    2  A    between atoms: C_16  and  C_20
REMARK    3  A    between atoms: N_19  and  C_22
REMARK    4  A    between atoms: C_22  and  C_25
REMARK                            x       y       z     vdW  Elec       q    Type
REMARK                         _______ _______ _______ _____ _____    ______ ____
ROOT
ATOM      1  O   UNL     1      35.800 -17.470 -19.969  0.00  0.00    -0.336 OA
ATOM      2  O   UNL     1      35.406 -16.067 -24.434  0.00  0.00    -0.268 OA
ATOM      3  O   UNL     1      32.247 -12.099 -23.994  0.00  0.00    -0.283 OA
ATOM      4  N   UNL     1      35.404 -16.910 -22.278  0.00  0.00    -0.253 N 
ATOM      5  N   UNL     1      34.222 -14.508 -21.401  0.00  0.00    -0.275 N 
ATOM      6  C   UNL     1      34.951 -16.774 -20.890  0.00  0.00    +0.215 C 
ATOM      7  C   UNL     1      35.895 -18.227 -22.721  0.00  0.00    +0.080 C 
ATOM      8  C   UNL     1      36.709 -18.920 -21.628  0.00  0.00    +0.052 C 
ATOM      9  C   UNL     1      34.985 -15.316 -20.461  0.00  0.00    +0.147 C 
ATOM     10  C   UNL     1      35.993 -18.840 -20.294  0.00  0.00    +0.146 C 
ATOM     11  C   UNL     1      35.083 -15.954 -23.252  0.00  0.00    +0.267 C 
ATOM     12  C   UNL     1      34.285 -14.763 -22.774  0.00  0.00    +0.143 C 
ATOM     13  C   UNL     1      34.729 -19.102 -23.197  0.00  0.00    +0.022 C 
ATOM     14  C   UNL     1      33.501 -13.409 -20.954  0.00  0.00    +0.074 C 
ATOM     15  C   UNL     1      33.646 -13.997 -23.686  0.00  0.00    +0.191 C 
ATOM     16  C   UNL     1      32.823 -12.566 -21.742  0.00  0.00    +0.110 C 
ATOM     17  C   UNL     1      32.850 -12.821 -23.206  0.00  0.00    +0.236 C 
ENDROOT
BRANCH  16  20
ATOM     18  O   UNL     1      31.485 -11.602 -20.070  0.00  0.00    -0.270 OA
ATOM     19  N   UNL     1      32.207 -10.274 -21.846  0.00  0.00    -0.297 N 
ATOM     20  C   UNL     1      32.104 -11.453 -21.125  0.00  0.00    +0.251 C 
ATOM     21  H   UNL     1      32.733 -10.281 -22.678  0.00  0.00    +0.150 HD
BRANCH  19  22
ATOM     22  C   UNL     1      31.583  -9.035 -21.440  0.00  0.00    +0.119 C 
BRANCH  22  25
ATOM     23  F   UNL     1      30.124  -7.445 -23.269  0.00  0.00    -0.204 F 
ATOM     24  F   UNL     1      33.808  -4.589 -24.083  0.00  0.00    -0.204 F 
ATOM     25  C   UNL     1      32.175  -7.849 -22.145  0.00  0.00    +0.025 C 
ATOM     26  C   UNL     1      31.399  -7.107 -23.036  0.00  0.00    +0.140 C 
ATOM     27  C   UNL     1      33.502  -7.490 -21.908  0.00  0.00    +0.002 C 
ATOM     28  C   UNL     1      31.951  -6.006 -23.691  0.00  0.00    +0.059 C 
ATOM     29  C   UNL     1      34.053  -6.388 -22.563  0.00  0.00    +0.030 C 
ATOM     30  C   UNL     1      33.278  -5.646 -23.455  0.00  0.00    +0.142 C 
ENDBRANCH  22  25
ENDBRANCH  19  22
ENDBRANCH  16  20
BRANCH  15  31
ATOM     31  O   UNL     1      33.663 -14.233 -25.042  0.00  0.00    -0.502 OA
ATOM     32  H   UNL     1      34.402 -13.968 -25.555  0.00  0.00    +0.292 HD
ENDBRANCH  15  31
TORSDOF 4
ENDMDL
MODEL 8
REMARK VINA RESULT:      -9.6      3.207      5.779
REMARK  Name = 54726191
REMARK  4 active torsions:
REMARK  status: ('A' for Active; 'I' for Inactive)
REMARK    1  A    between atoms: C_15  and  O_31
REMARK    2  A    between atoms: C_16  and  C_20
REMARK    3  A    between atoms: N_19  and  C_22
REMARK    4  A    between atoms: C_22  and  C_25
REMARK                            x       y       z     vdW  Elec       q    Type
REMARK                         _______ _______ _______ _____ _____    ______ ____
ROOT
ATOM      1  O   UNL     1      29.311 -22.963 -16.603  0.00  0.00    -0.336 OA
ATOM      2  O   UNL     1      31.655 -24.341 -12.772  0.00  0.00    -0.268 OA
ATOM      3  O   UNL     1      36.489 -23.819 -14.277  0.00  0.00    -0.283 OA
ATOM      4  N   UNL     1      30.503 -23.903 -14.732  0.00  0.00    -0.253 N 
ATOM      5  N   UNL     1      32.872 -22.835 -15.818  0.00  0.00    -0.275 N 
ATOM      6  C   UNL     1      30.555 -23.507 -16.143  0.00  0.00    +0.215 C 
ATOM      7  C   UNL     1      29.285 -24.575 -14.245  0.00  0.00    +0.080 C 
ATOM      8  C   UNL     1      28.025 -23.977 -14.870  0.00  0.00    +0.052 C 
ATOM      9  C   UNL     1      31.585 -22.409 -16.348  0.00  0.00    +0.147 C 
ATOM     10  C   UNL     1      28.196 -23.812 -16.367  0.00  0.00    +0.146 C 
ATOM     11  C   UNL     1      31.661 -23.964 -13.943  0.00  0.00    +0.267 C 
ATOM     12  C   UNL     1      32.947 -23.555 -14.623  0.00  0.00    +0.143 C 
ATOM     13  C   UNL     1      29.373 -26.087 -14.488  0.00  0.00    +0.022 C 
ATOM     14  C   UNL     1      34.049 -22.446 -16.443  0.00  0.00    +0.074 C 
ATOM     15  C   UNL     1      34.123 -23.913 -14.061  0.00  0.00    +0.191 C 
ATOM     16  C   UNL     1      35.281 -22.729 -16.000  0.00  0.00    +0.110 C 
ATOM     17  C   UNL     1      35.397 -23.512 -14.743  0.00  0.00    +0.236 C 
ENDROOT
BRANCH  16  20
ATOM     18  O   UNL     1      37.579 -22.392 -16.349  0.00  0.00    -0.270 OA
ATOM     19  N   UNL     1      36.070 -21.660 -17.970  0.00  0.00    -0.297 N 
ATOM     20  C   UNL     1      36.430 -22.254 -16.770  0.00  0.00    +0.251 C 
ATOM     21  H   UNL     1      35.114 -21.608 -18.196  0.00  0.00    +0.150 HD
BRANCH  19  22
ATOM     22  C   UNL     1      37.027 -21.112 -18.905  0.00  0.00    +0.119 C 
BRANCH  22  25
ATOM     23  F   UNL     1      34.300 -21.297 -19.636  0.00  0.00    -0.204 F 
ATOM     24  F   UNL     1      34.607 -17.627 -22.606  0.00  0.00    -0.204 F 
ATOM     25  C   UNL     1      36.380 -20.184 -19.892  0.00  0.00    +0.025 C 
ATOM     26  C   UNL     1      35.029 -20.330 -20.208  0.00  0.00    +0.140 C 
ATOM     27  C   UNL     1      37.132 -19.173 -20.492  0.00  0.00    +0.002 C 
ATOM     28  C   UNL     1      34.431 -19.466 -21.125  0.00  0.00    +0.059 C 
ATOM     29  C   UNL     1      36.533 -18.309 -21.409  0.00  0.00    +0.030 C 
ATOM     30  C   UNL     1      35.182 -18.456 -21.726  0.00  0.00    +0.142 C 
ENDBRANCH  22  25
ENDBRANCH  19  22
ENDBRANCH  16  20
BRANCH  15  31
ATOM     31  O   UNL     1      34.235 -24.644 -12.900  0.00  0.00    -0.502 OA
ATOM     32  H   UNL     1      34.115 -25.573 -12.917  0.00  0.00    +0.292 HD
ENDBRANCH  15  31
TORSDOF 4
ENDMDL
