MODEL 1
REMARK VINA RESULT:     -11.2      0.000      0.000
REMARK  Name = 24764434
REMARK  8 active torsions:
REMARK  status: ('A' for Active; 'I' for Inactive)
REMARK    1  A    between atoms: C_1  and  N_4
REMARK    2  A    between atoms: C_1  and  C_17
REMARK    3  A    between atoms: C_1  and  C_28
REMARK    4  A    between atoms: C_11  and  C_14
REMARK    5  A    between atoms: C_14  and  O_15
REMARK    6  A    between atoms: C_17  and  C_18
REMARK    7  A    between atoms: C_28  and  C_30
REMARK    8  A    between atoms: C_30  and  O_31
REMARK                            x       y       z     vdW  Elec       q    Type
REMARK                         _______ _______ _______ _____ _____    ______ ____
ROOT
ATOM      1  C   UNL     1      33.682 -12.226 -22.991  0.00  0.00    +0.098 C 
ENDROOT
BRANCH   1   4
ATOM      2  O   UNL     1      34.858 -13.610 -20.626  0.00  0.00    -0.269 OA
ATOM      3  O   UNL     1      33.524 -14.439 -24.984  0.00  0.00    -0.269 OA
ATOM      4  N   UNL     1      34.082 -13.611 -22.850  0.00  0.00    -0.224 N 
ATOM      5  C   UNL     1      34.623 -14.138 -21.696  0.00  0.00    +0.255 C 
ATOM      6  C   UNL     1      33.964 -14.548 -23.855  0.00  0.00    +0.255 C 
ATOM      7  C   UNL     1      34.886 -15.546 -21.992  0.00  0.00    +0.059 C 
ATOM      8  C   UNL     1      34.488 -15.794 -23.296  0.00  0.00    +0.058 C 
ATOM      9  C   UNL     1      35.427 -16.533 -21.193  0.00  0.00    +0.011 C 
ATOM     10  C   UNL     1      34.607 -17.043 -23.872  0.00  0.00    +0.005 C 
ATOM     11  C   UNL     1      35.559 -17.807 -21.755  0.00  0.00    +0.076 C 
ATOM     12  C   UNL     1      35.153 -18.058 -23.082  0.00  0.00    +0.007 C 
BRANCH  11  14
ATOM     13  O   UNL     1      35.498 -19.874 -20.551  0.00  0.00    -0.245 OA
ATOM     14  C   UNL     1      36.121 -18.888 -20.961  0.00  0.00    +0.338 C 
BRANCH  14  15
ATOM     15  O   UNL     1      37.445 -18.710 -20.703  0.00  0.00    -0.477 OA
ATOM     16  H   UNL     1      37.992 -19.448 -20.524  0.00  0.00    +0.295 HD
ENDBRANCH  14  15
ENDBRANCH  11  14
ENDBRANCH   1   4
BRANCH   1  17
ATOM     17  C   UNL     1      32.242 -12.010 -22.475  0.00  0.00    +0.047 C 
BRANCH  17  18
ATOM     18  C   UNL     1      32.096 -11.045 -21.323  0.00  0.00    -0.020 C 
ATOM     19  C   UNL     1      32.000  -9.658 -21.521  0.00  0.00    -0.004 C 
ATOM     20  C   UNL     1      32.058 -11.585 -20.037  0.00  0.00    -0.004 C 
ATOM     21  C   UNL     1      31.864  -8.806 -20.400  0.00  0.00    -0.000 C 
ATOM     22  C   UNL     1      32.036  -9.098 -22.809  0.00  0.00    -0.000 C 
ATOM     23  C   UNL     1      31.925 -10.747 -18.933  0.00  0.00    -0.000 C 
ATOM     24  C   UNL     1      31.829  -9.366 -19.112  0.00  0.00    -0.000 C 
ATOM     25  C   UNL     1      31.768  -7.420 -20.598  0.00  0.00    -0.000 C 
ATOM     26  C   UNL     1      31.939  -7.718 -22.987  0.00  0.00    -0.000 C 
ATOM     27  C   UNL     1      31.806  -6.880 -21.884  0.00  0.00    -0.000 C 
ENDBRANCH  17  18
ENDBRANCH   1  17
BRANCH   1  28
ATOM     28  C   UNL     1      33.924 -11.751 -24.431  0.00  0.00    +0.130 C 
BRANCH  28  30
ATOM     29  O   UNL     1      35.372 -10.163 -25.572  0.00  0.00    -0.250 OA
ATOM     30  C   UNL     1      34.930 -10.625 -24.530  0.00  0.00    +0.316 C 
BRANCH  30  31
ATOM     31  O   UNL     1      35.269 -10.145 -23.305  0.00  0.00    -0.480 OA
ATOM     32  H   UNL     1      35.080 -10.647 -22.537  0.00  0.00    +0.295 HD
ENDBRANCH  30  31
ENDBRANCH  28  30
ENDBRANCH   1  28
TORSDOF 8
ENDMDL
MODEL 2
REMARK VINA RESULT:     -10.8      1.545      2.593
REMARK  Name = 24764434
REMARK  8 active torsions:
REMARK  status: ('A' for Active; 'I' for Inactive)
REMARK    1  A    between atoms: C_1  and  N_4
REMARK    2  A    between atoms: C_1  and  C_17
REMARK    3  A    between atoms: C_1  and  C_28
REMARK    4  A    between atoms: C_11  and  C_14
REMARK    5  A    between atoms: C_14  and  O_15
REMARK    6  A    between atoms: C_17  and  C_18
REMARK    7  A    between atoms: C_28  and  C_30
REMARK    8  A    between atoms: C_30  and  O_31
REMARK                            x       y       z     vdW  Elec       q    Type
REMARK                         _______ _______ _______ _____ _____    ______ ____
ROOT
ATOM      1  C   UNL     1      33.713 -13.795 -24.160  0.00  0.00    +0.098 C 
ENDROOT
BRANCH   1   4
ATOM      2  O   UNL     1      35.064 -14.415 -21.575  0.00  0.00    -0.269 OA
ATOM      3  O   UNL     1      33.399 -16.509 -25.357  0.00  0.00    -0.269 OA
ATOM      4  N   UNL     1      34.121 -15.080 -23.629  0.00  0.00    -0.224 N 
ATOM      5  C   UNL     1      34.748 -15.240 -22.411  0.00  0.00    +0.255 C 
ATOM      6  C   UNL     1      33.924 -16.277 -24.284  0.00  0.00    +0.255 C 
ATOM      7  C   UNL     1      34.985 -16.677 -22.276  0.00  0.00    +0.059 C 
ATOM      8  C   UNL     1      34.487 -17.304 -23.408  0.00  0.00    +0.058 C 
ATOM      9  C   UNL     1      35.584 -17.384 -21.253  0.00  0.00    +0.011 C 
ATOM     10  C   UNL     1      34.560 -18.672 -23.578  0.00  0.00    +0.005 C 
ATOM     11  C   UNL     1      35.670 -18.772 -21.404  0.00  0.00    +0.076 C 
ATOM     12  C   UNL     1      35.164 -19.409 -22.555  0.00  0.00    +0.007 C 
BRANCH  11  14
ATOM     13  O   UNL     1      35.863 -20.651 -19.935  0.00  0.00    -0.245 OA
ATOM     14  C   UNL     1      36.290 -19.571 -20.358  0.00  0.00    +0.338 C 
BRANCH  14  15
ATOM     15  O   UNL     1      37.426 -19.001 -19.872  0.00  0.00    -0.477 OA
ATOM     16  H   UNL     1      37.412 -18.116 -19.567  0.00  0.00    +0.295 HD
ENDBRANCH  14  15
ENDBRANCH  11  14
ENDBRANCH   1   4
BRANCH   1  17
ATOM     17  C   UNL     1      32.918 -12.988 -23.110  0.00  0.00    +0.047 C 
BRANCH  17  18
ATOM     18  C   UNL     1      33.241 -11.515 -23.033  0.00  0.00    -0.020 C 
ATOM     19  C   UNL     1      32.651 -10.673 -22.076  0.00  0.00    -0.004 C 
ATOM     20  C   UNL     1      34.156 -11.011 -23.958  0.00  0.00    -0.004 C 
ATOM     21  C   UNL     1      32.995  -9.300 -22.056  0.00  0.00    -0.000 C 
ATOM     22  C   UNL     1      31.727 -11.163 -21.139  0.00  0.00    -0.000 C 
ATOM     23  C   UNL     1      34.495  -9.661 -23.938  0.00  0.00    -0.000 C 
ATOM     24  C   UNL     1      33.919  -8.810 -22.995  0.00  0.00    -0.000 C 
ATOM     25  C   UNL     1      32.407  -8.458 -21.100  0.00  0.00    -0.000 C 
ATOM     26  C   UNL     1      31.152 -10.312 -20.195  0.00  0.00    -0.000 C 
ATOM     27  C   UNL     1      31.491  -8.962 -20.176  0.00  0.00    -0.000 C 
ENDBRANCH  17  18
ENDBRANCH   1  17
BRANCH   1  28
ATOM     28  C   UNL     1      32.991 -13.985 -25.502  0.00  0.00    +0.130 C 
BRANCH  28  30
ATOM     29  O   UNL     1      34.493 -12.902 -27.081  0.00  0.00    -0.250 OA
ATOM     30  C   UNL     1      33.394 -12.971 -26.550  0.00  0.00    +0.316 C 
BRANCH  30  31
ATOM     31  O   UNL     1      32.363 -12.146 -26.873  0.00  0.00    -0.480 OA
ATOM     32  H   UNL     1      32.536 -11.276 -27.173  0.00  0.00    +0.295 HD
ENDBRANCH  30  31
ENDBRANCH  28  30
ENDBRANCH   1  28
TORSDOF 8
ENDMDL
MODEL 3
REMARK VINA RESULT:     -10.6      8.079     12.742
REMARK  Name = 24764434
REMARK  8 active torsions:
REMARK  status: ('A' for Active; 'I' for Inactive)
REMARK    1  A    between atoms: C_1  and  N_4
REMARK    2  A    between atoms: C_1  and  C_17
REMARK    3  A    between atoms: C_1  and  C_28
REMARK    4  A    between atoms: C_11  and  C_14
REMARK    5  A    between atoms: C_14  and  O_15
REMARK    6  A    between atoms: C_17  and  C_18
REMARK    7  A    between atoms: C_28  and  C_30
REMARK    8  A    between atoms: C_30  and  O_31
REMARK                            x       y       z     vdW  Elec       q    Type
REMARK                         _______ _______ _______ _____ _____    ______ ____
ROOT
ATOM      1  C   UNL     1      34.410 -23.360 -15.908  0.00  0.00    +0.098 C 
ENDROOT
BRANCH   1   4
ATOM      2  O   UNL     1      36.908 -21.974 -16.763  0.00  0.00    -0.269 OA
ATOM      3  O   UNL     1      32.498 -22.561 -18.053  0.00  0.00    -0.269 OA
ATOM      4  N   UNL     1      34.634 -22.510 -17.060  0.00  0.00    -0.224 N 
ATOM      5  C   UNL     1      35.845 -21.917 -17.350  0.00  0.00    +0.255 C 
ATOM      6  C   UNL     1      33.660 -22.207 -17.988  0.00  0.00    +0.255 C 
ATOM      7  C   UNL     1      35.625 -21.152 -18.577  0.00  0.00    +0.059 C 
ATOM      8  C   UNL     1      34.304 -21.327 -18.963  0.00  0.00    +0.058 C 
ATOM      9  C   UNL     1      36.500 -20.367 -19.301  0.00  0.00    +0.011 C 
ATOM     10  C   UNL     1      33.788 -20.727 -20.094  0.00  0.00    +0.005 C 
ATOM     11  C   UNL     1      35.998 -19.749 -20.451  0.00  0.00    +0.076 C 
ATOM     12  C   UNL     1      34.656 -19.927 -20.842  0.00  0.00    +0.007 C 
BRANCH  11  14
ATOM     13  O   UNL     1      38.067 -18.692 -21.022  0.00  0.00    -0.245 OA
ATOM     14  C   UNL     1      36.873 -18.911 -21.255  0.00  0.00    +0.338 C 
BRANCH  14  15
ATOM     15  O   UNL     1      36.234 -18.371 -22.328  0.00  0.00    -0.477 OA
ATOM     16  H   UNL     1      35.850 -17.520 -22.266  0.00  0.00    +0.295 HD
ENDBRANCH  14  15
ENDBRANCH  11  14
ENDBRANCH   1   4
BRANCH   1  17
ATOM     17  C   UNL     1      33.426 -22.702 -14.917  0.00  0.00    +0.047 C 
BRANCH  17  18
ATOM     18  C   UNL     1      32.331 -23.598 -14.387  0.00  0.00    -0.020 C 
ATOM     19  C   UNL     1      31.023 -23.554 -14.895  0.00  0.00    -0.004 C 
ATOM     20  C   UNL     1      32.668 -24.482 -13.362  0.00  0.00    -0.004 C 
ATOM     21  C   UNL     1      30.041 -24.420 -14.356  0.00  0.00    -0.000 C 
ATOM     22  C   UNL     1      30.666 -22.669 -15.926  0.00  0.00    -0.000 C 
ATOM     23  C   UNL     1      31.704 -25.334 -12.831  0.00  0.00    -0.000 C 
ATOM     24  C   UNL     1      30.398 -25.304 -13.323  0.00  0.00    -0.000 C 
ATOM     25  C   UNL     1      28.734 -24.377 -14.863  0.00  0.00    -0.000 C 
ATOM     26  C   UNL     1      29.361 -22.640 -16.418  0.00  0.00    -0.000 C 
ATOM     27  C   UNL     1      28.397 -23.492 -15.888  0.00  0.00    -0.000 C 
ENDBRANCH  17  18
ENDBRANCH   1  17
BRANCH   1  28
ATOM     28  C   UNL     1      35.754 -23.779 -15.293  0.00  0.00    +0.130 C 
BRANCH  28  30
ATOM     29  O   UNL     1      35.727 -26.210 -15.391  0.00  0.00    -0.250 OA
ATOM     30  C   UNL     1      35.745 -25.182 -14.729  0.00  0.00    +0.316 C 
BRANCH  30  31
ATOM     31  O   UNL     1      35.798 -25.178 -13.372  0.00  0.00    -0.480 OA
ATOM     32  H   UNL     1      36.612 -25.020 -12.936  0.00  0.00    +0.295 HD
ENDBRANCH  30  31
ENDBRANCH  28  30
ENDBRANCH   1  28
TORSDOF 8
ENDMDL
MODEL 4
REMARK VINA RESULT:     -10.4      4.213      6.743
REMARK  Name = 24764434
REMARK  8 active torsions:
REMARK  status: ('A' for Active; 'I' for Inactive)
REMARK    1  A    between atoms: C_1  and  N_4
REMARK    2  A    between atoms: C_1  and  C_17
REMARK    3  A    between atoms: C_1  and  C_28
REMARK    4  A    between atoms: C_11  and  C_14
REMARK    5  A    between atoms: C_14  and  O_15
REMARK    6  A    between atoms: C_17  and  C_18
REMARK    7  A    between atoms: C_28  and  C_30
REMARK    8  A    between atoms: C_30  and  O_31
REMARK                            x       y       z     vdW  Elec       q    Type
REMARK                         _______ _______ _______ _____ _____    ______ ____
ROOT
ATOM      1  C   UNL     1      35.272 -18.524 -22.377  0.00  0.00    +0.098 C 
ENDROOT
BRANCH   1   4
ATOM      2  O   UNL     1      33.042 -20.081 -21.154  0.00  0.00    -0.269 OA
ATOM      3  O   UNL     1      37.560 -19.222 -20.596  0.00  0.00    -0.269 OA
ATOM      4  N   UNL     1      35.293 -19.387 -21.213  0.00  0.00    -0.224 N 
ATOM      5  C   UNL     1      34.185 -20.057 -20.737  0.00  0.00    +0.255 C 
ATOM      6  C   UNL     1      36.422 -19.630 -20.460  0.00  0.00    +0.255 C 
ATOM      7  C   UNL     1      34.645 -20.793 -19.560  0.00  0.00    +0.059 C 
ATOM      8  C   UNL     1      35.997 -20.536 -19.393  0.00  0.00    +0.058 C 
ATOM      9  C   UNL     1      33.947 -21.620 -18.704  0.00  0.00    +0.011 C 
ATOM     10  C   UNL     1      36.725 -21.093 -18.361  0.00  0.00    +0.005 C 
ATOM     11  C   UNL     1      34.664 -22.196 -17.650  0.00  0.00    +0.076 C 
ATOM     12  C   UNL     1      36.039 -21.934 -17.480  0.00  0.00    +0.007 C 
BRANCH  11  14
ATOM     13  O   UNL     1      34.538 -23.854 -15.930  0.00  0.00    -0.245 OA
ATOM     14  C   UNL     1      33.983 -23.078 -16.715  0.00  0.00    +0.338 C 
BRANCH  14  15
ATOM     15  O   UNL     1      32.628 -22.965 -16.786  0.00  0.00    -0.477 OA
ATOM     16  H   UNL     1      32.175 -22.387 -16.205  0.00  0.00    +0.295 HD
ENDBRANCH  14  15
ENDBRANCH  11  14
ENDBRANCH   1   4
BRANCH   1  17
ATOM     17  C   UNL     1      36.014 -17.198 -22.097  0.00  0.00    +0.047 C 
BRANCH  17  18
ATOM     18  C   UNL     1      35.136 -16.005 -21.803  0.00  0.00    -0.020 C 
ATOM     19  C   UNL     1      34.536 -15.253 -22.827  0.00  0.00    -0.004 C 
ATOM     20  C   UNL     1      34.938 -15.670 -20.464  0.00  0.00    -0.004 C 
ATOM     21  C   UNL     1      33.724 -14.145 -22.487  0.00  0.00    -0.000 C 
ATOM     22  C   UNL     1      34.726 -15.576 -24.181  0.00  0.00    -0.000 C 
ATOM     23  C   UNL     1      34.139 -14.580 -20.128  0.00  0.00    -0.000 C 
ATOM     24  C   UNL     1      33.535 -13.822 -21.132  0.00  0.00    -0.000 C 
ATOM     25  C   UNL     1      33.124 -13.393 -23.509  0.00  0.00    -0.000 C 
ATOM     26  C   UNL     1      34.122 -14.817 -25.184  0.00  0.00    -0.000 C 
ATOM     27  C   UNL     1      33.323 -13.728 -24.849  0.00  0.00    -0.000 C 
ENDBRANCH  17  18
ENDBRANCH   1  17
BRANCH   1  28
ATOM     28  C   UNL     1      33.832 -18.357 -22.883  0.00  0.00    +0.130 C 
BRANCH  28  30
ATOM     29  O   UNL     1      32.836 -18.332 -25.103  0.00  0.00    -0.250 OA
ATOM     30  C   UNL     1      33.644 -18.803 -24.316  0.00  0.00    +0.316 C 
BRANCH  30  31
ATOM     31  O   UNL     1      34.521 -19.784 -24.655  0.00  0.00    -0.480 OA
ATOM     32  H   UNL     1      35.012 -20.224 -23.990  0.00  0.00    +0.295 HD
ENDBRANCH  30  31
ENDBRANCH  28  30
ENDBRANCH   1  28
TORSDOF 8
ENDMDL
MODEL 5
REMARK VINA RESULT:     -10.4      2.371      7.982
REMARK  Name = 24764434
REMARK  8 active torsions:
REMARK  status: ('A' for Active; 'I' for Inactive)
REMARK    1  A    between atoms: C_1  and  N_4
REMARK    2  A    between atoms: C_1  and  C_17
REMARK    3  A    between atoms: C_1  and  C_28
REMARK    4  A    between atoms: C_11  and  C_14
REMARK    5  A    between atoms: C_14  and  O_15
REMARK    6  A    between atoms: C_17  and  C_18
REMARK    7  A    between atoms: C_28  and  C_30
REMARK    8  A    between atoms: C_30  and  O_31
REMARK                            x       y       z     vdW  Elec       q    Type
REMARK                         _______ _______ _______ _____ _____    ______ ____
ROOT
ATOM      1  C   UNL     1      33.126 -13.502 -23.662  0.00  0.00    +0.098 C 
ENDROOT
BRANCH   1   4
ATOM      2  O   UNL     1      34.202 -10.909 -24.667  0.00  0.00    -0.269 OA
ATOM      3  O   UNL     1      31.659 -12.651 -21.208  0.00  0.00    -0.269 OA
ATOM      4  N   UNL     1      32.983 -12.175 -23.099  0.00  0.00    -0.224 N 
ATOM      5  C   UNL     1      33.536 -11.042 -23.658  0.00  0.00    +0.255 C 
ATOM      6  C   UNL     1      32.278 -11.905 -21.945  0.00  0.00    +0.255 C 
ATOM      7  C   UNL     1      33.158  -9.941 -22.773  0.00  0.00    +0.059 C 
ATOM      8  C   UNL     1      32.397 -10.462 -21.738  0.00  0.00    +0.058 C 
ATOM      9  C   UNL     1      33.449  -8.594 -22.860  0.00  0.00    +0.011 C 
ATOM     10  C   UNL     1      31.885  -9.665 -20.734  0.00  0.00    +0.005 C 
ATOM     11  C   UNL     1      32.942  -7.767 -21.853  0.00  0.00    +0.076 C 
ATOM     12  C   UNL     1      32.168  -8.298 -20.800  0.00  0.00    +0.007 C 
BRANCH  11  14
ATOM     13  O   UNL     1      32.819  -5.513 -21.062  0.00  0.00    -0.245 OA
ATOM     14  C   UNL     1      33.215  -6.339 -21.891  0.00  0.00    +0.338 C 
BRANCH  14  15
ATOM     15  O   UNL     1      33.975  -5.983 -22.962  0.00  0.00    -0.477 OA
ATOM     16  H   UNL     1      34.165  -5.081 -23.123  0.00  0.00    +0.295 HD
ENDBRANCH  14  15
ENDBRANCH  11  14
ENDBRANCH   1   4
BRANCH   1  17
ATOM     17  C   UNL     1      34.558 -14.041 -23.455  0.00  0.00    +0.047 C 
BRANCH  17  18
ATOM     18  C   UNL     1      34.736 -15.009 -22.309  0.00  0.00    -0.020 C 
ATOM     19  C   UNL     1      34.824 -16.396 -22.514  0.00  0.00    -0.004 C 
ATOM     20  C   UNL     1      34.809 -14.473 -21.023  0.00  0.00    -0.004 C 
ATOM     21  C   UNL     1      34.990 -17.252 -21.399  0.00  0.00    -0.000 C 
ATOM     22  C   UNL     1      34.752 -16.952 -23.802  0.00  0.00    -0.000 C 
ATOM     23  C   UNL     1      34.972 -15.314 -19.926  0.00  0.00    -0.000 C 
ATOM     24  C   UNL     1      35.062 -16.695 -20.111  0.00  0.00    -0.000 C 
ATOM     25  C   UNL     1      35.079 -18.637 -21.604  0.00  0.00    -0.000 C 
ATOM     26  C   UNL     1      34.842 -18.332 -23.987  0.00  0.00    -0.000 C 
ATOM     27  C   UNL     1      35.005 -19.173 -22.890  0.00  0.00    -0.000 C 
ENDBRANCH  17  18
ENDBRANCH   1  17
BRANCH   1  28
ATOM     28  C   UNL     1      32.643 -13.510 -25.120  0.00  0.00    +0.130 C 
BRANCH  28  30
ATOM     29  O   UNL     1      34.117 -15.090 -26.239  0.00  0.00    -0.250 OA
ATOM     30  C   UNL     1      33.707 -13.947 -26.102  0.00  0.00    +0.316 C 
BRANCH  30  31
ATOM     31  O   UNL     1      34.143 -12.909 -26.864  0.00  0.00    -0.480 OA
ATOM     32  H   UNL     1      34.500 -13.070 -27.715  0.00  0.00    +0.295 HD
ENDBRANCH  30  31
ENDBRANCH  28  30
ENDBRANCH   1  28
TORSDOF 8
ENDMDL
MODEL 6
REMARK VINA RESULT:     -10.4     12.117     14.905
REMARK  Name = 24764434
REMARK  8 active torsions:
REMARK  status: ('A' for Active; 'I' for Inactive)
REMARK    1  A    between atoms: C_1  and  N_4
REMARK    2  A    between atoms: C_1  and  C_17
REMARK    3  A    between atoms: C_1  and  C_28
REMARK    4  A    between atoms: C_11  and  C_14
REMARK    5  A    between atoms: C_14  and  O_15
REMARK    6  A    between atoms: C_17  and  C_18
REMARK    7  A    between atoms: C_28  and  C_30
REMARK    8  A    between atoms: C_30  and  O_31
REMARK                            x       y       z     vdW  Elec       q    Type
REMARK                         _______ _______ _______ _____ _____    ______ ____
ROOT
ATOM      1  C   UNL     1      34.473 -23.746 -14.796  0.00  0.00    +0.098 C 
ENDROOT
BRANCH   1   4
ATOM      2  O   UNL     1      32.793 -23.452 -17.242  0.00  0.00    -0.269 OA
ATOM      3  O   UNL     1      32.474 -23.326 -12.622  0.00  0.00    -0.269 OA
ATOM      4  N   UNL     1      33.056 -23.462 -14.901  0.00  0.00    -0.224 N 
ATOM      5  C   UNL     1      32.386 -23.344 -16.101  0.00  0.00    +0.255 C 
ATOM      6  C   UNL     1      32.229 -23.281 -13.813  0.00  0.00    +0.255 C 
ATOM      7  C   UNL     1      30.997 -23.050 -15.749  0.00  0.00    +0.059 C 
ATOM      8  C   UNL     1      30.902 -23.012 -14.367  0.00  0.00    +0.058 C 
ATOM      9  C   UNL     1      29.904 -22.834 -16.564  0.00  0.00    +0.011 C 
ATOM     10  C   UNL     1      29.708 -22.757 -13.723  0.00  0.00    +0.005 C 
ATOM     11  C   UNL     1      28.683 -22.572 -15.934  0.00  0.00    +0.076 C 
ATOM     12  C   UNL     1      28.587 -22.534 -14.528  0.00  0.00    +0.007 C 
BRANCH  11  14
ATOM     13  O   UNL     1      26.834 -21.294 -16.752  0.00  0.00    -0.245 OA
ATOM     14  C   UNL     1      27.495 -22.337 -16.740  0.00  0.00    +0.338 C 
BRANCH  14  15
ATOM     15  O   UNL     1      27.167 -23.412 -17.508  0.00  0.00    -0.477 OA
ATOM     16  H   UNL     1      27.840 -23.967 -17.849  0.00  0.00    +0.295 HD
ENDBRANCH  14  15
ENDBRANCH  11  14
ENDBRANCH   1   4
BRANCH   1  17
ATOM     17  C   UNL     1      34.773 -24.622 -13.560  0.00  0.00    +0.047 C 
BRANCH  17  18
ATOM     18  C   UNL     1      36.047 -24.295 -12.817  0.00  0.00    -0.020 C 
ATOM     19  C   UNL     1      37.286 -24.842 -13.189  0.00  0.00    -0.004 C 
ATOM     20  C   UNL     1      35.950 -23.420 -11.736  0.00  0.00    -0.004 C 
ATOM     21  C   UNL     1      38.444 -24.497 -12.452  0.00  0.00    -0.000 C 
ATOM     22  C   UNL     1      37.401 -25.726 -14.275  0.00  0.00    -0.000 C 
ATOM     23  C   UNL     1      37.088 -23.079 -11.011  0.00  0.00    -0.000 C 
ATOM     24  C   UNL     1      38.328 -23.614 -11.365  0.00  0.00    -0.000 C 
ATOM     25  C   UNL     1      39.682 -25.043 -12.822  0.00  0.00    -0.000 C 
ATOM     26  C   UNL     1      38.640 -26.259 -14.629  0.00  0.00    -0.000 C 
ATOM     27  C   UNL     1      39.779 -25.919 -13.904  0.00  0.00    -0.000 C 
ENDBRANCH  17  18
ENDBRANCH   1  17
BRANCH   1  28
ATOM     28  C   UNL     1      35.278 -22.440 -14.865  0.00  0.00    +0.130 C 
BRANCH  28  30
ATOM     29  O   UNL     1      37.483 -22.410 -15.895  0.00  0.00    -0.250 OA
ATOM     30  C   UNL     1      36.265 -22.403 -16.010  0.00  0.00    +0.316 C 
BRANCH  30  31
ATOM     31  O   UNL     1      35.637 -22.399 -17.215  0.00  0.00    -0.480 OA
ATOM     32  H   UNL     1      35.681 -21.642 -17.764  0.00  0.00    +0.295 HD
ENDBRANCH  30  31
ENDBRANCH  28  30
ENDBRANCH   1  28
TORSDOF 8
ENDMDL
MODEL 7
REMARK VINA RESULT:     -10.3      7.896     12.860
REMARK  Name = 24764434
REMARK  8 active torsions:
REMARK  status: ('A' for Active; 'I' for Inactive)
REMARK    1  A    between atoms: C_1  and  N_4
REMARK    2  A    between atoms: C_1  and  C_17
REMARK    3  A    between atoms: C_1  and  C_28
REMARK    4  A    between atoms: C_11  and  C_14
REMARK    5  A    between atoms: C_14  and  O_15
REMARK    6  A    between atoms: C_17  and  C_18
REMARK    7  A    between atoms: C_28  and  C_30
REMARK    8  A    between atoms: C_30  and  O_31
REMARK                            x       y       z     vdW  Elec       q    Type
REMARK                         _______ _______ _______ _____ _____    ______ ____
ROOT
ATOM      1  C   UNL     1      34.399 -23.371 -15.788  0.00  0.00    +0.098 C 
ENDROOT
BRANCH   1   4
ATOM      2  O   UNL     1      32.701 -22.416 -18.046  0.00  0.00    -0.269 OA
ATOM      3  O   UNL     1      37.043 -22.159 -16.450  0.00  0.00    -0.269 OA
ATOM      4  N   UNL     1      34.766 -22.543 -16.918  0.00  0.00    -0.224 N 
ATOM      5  C   UNL     1      33.884 -22.167 -17.911  0.00  0.00    +0.255 C 
ATOM      6  C   UNL     1      36.034 -22.042 -17.121  0.00  0.00    +0.255 C 
ATOM      7  C   UNL     1      34.664 -21.356 -18.844  0.00  0.00    +0.059 C 
ATOM      8  C   UNL     1      35.964 -21.279 -18.367  0.00  0.00    +0.058 C 
ATOM      9  C   UNL     1      34.277 -20.732 -20.013  0.00  0.00    +0.011 C 
ATOM     10  C   UNL     1      36.946 -20.574 -19.032  0.00  0.00    +0.005 C 
ATOM     11  C   UNL     1      35.256 -20.013 -20.705  0.00  0.00    +0.076 C 
ATOM     12  C   UNL     1      36.578 -19.935 -20.220  0.00  0.00    +0.007 C 
BRANCH  11  14
ATOM     13  O   UNL     1      33.796 -19.353 -22.482  0.00  0.00    -0.245 OA
ATOM     14  C   UNL     1      34.908 -19.333 -21.944  0.00  0.00    +0.338 C 
BRANCH  14  15
ATOM     15  O   UNL     1      35.958 -18.647 -22.473  0.00  0.00    -0.477 OA
ATOM     16  H   UNL     1      36.538 -18.173 -21.912  0.00  0.00    +0.295 HD
ENDBRANCH  14  15
ENDBRANCH  11  14
ENDBRANCH   1   4
BRANCH   1  17
ATOM     17  C   UNL     1      33.302 -22.694 -14.937  0.00  0.00    +0.047 C 
BRANCH  17  18
ATOM     18  C   UNL     1      32.211 -23.606 -14.429  0.00  0.00    -0.020 C 
ATOM     19  C   UNL     1      30.906 -23.566 -14.948  0.00  0.00    -0.004 C 
ATOM     20  C   UNL     1      32.546 -24.501 -13.412  0.00  0.00    -0.004 C 
ATOM     21  C   UNL     1      29.927 -24.446 -14.429  0.00  0.00    -0.000 C 
ATOM     22  C   UNL     1      30.552 -22.671 -15.970  0.00  0.00    -0.000 C 
ATOM     23  C   UNL     1      31.584 -25.367 -12.901  0.00  0.00    -0.000 C 
ATOM     24  C   UNL     1      30.282 -25.341 -13.405  0.00  0.00    -0.000 C 
ATOM     25  C   UNL     1      28.624 -24.407 -14.947  0.00  0.00    -0.000 C 
ATOM     26  C   UNL     1      29.251 -22.646 -16.474  0.00  0.00    -0.000 C 
ATOM     27  C   UNL     1      28.289 -23.512 -15.963  0.00  0.00    -0.000 C 
ENDBRANCH  17  18
ENDBRANCH   1  17
BRANCH   1  28
ATOM     28  C   UNL     1      35.655 -23.781 -15.005  0.00  0.00    +0.130 C 
BRANCH  28  30
ATOM     29  O   UNL     1      35.663 -26.182 -15.400  0.00  0.00    -0.250 OA
ATOM     30  C   UNL     1      35.672 -25.243 -14.617  0.00  0.00    +0.316 C 
BRANCH  30  31
ATOM     31  O   UNL     1      35.738 -25.404 -13.270  0.00  0.00    -0.480 OA
ATOM     32  H   UNL     1      35.483 -24.704 -12.702  0.00  0.00    +0.295 HD
ENDBRANCH  30  31
ENDBRANCH  28  30
ENDBRANCH   1  28
TORSDOF 8
ENDMDL
MODEL 8
REMARK VINA RESULT:     -10.2      7.677     12.089
REMARK  Name = 24764434
REMARK  8 active torsions:
REMARK  status: ('A' for Active; 'I' for Inactive)
REMARK    1  A    between atoms: C_1  and  N_4
REMARK    2  A    between atoms: C_1  and  C_17
REMARK    3  A    between atoms: C_1  and  C_28
REMARK    4  A    between atoms: C_11  and  C_14
REMARK    5  A    between atoms: C_14  and  O_15
REMARK    6  A    between atoms: C_17  and  C_18
REMARK    7  A    between atoms: C_28  and  C_30
REMARK    8  A    between atoms: C_30  and  O_31
REMARK                            x       y       z     vdW  Elec       q    Type
REMARK                         _______ _______ _______ _____ _____    ______ ____
ROOT
ATOM      1  C   UNL     1      34.525 -23.182 -16.534  0.00  0.00    +0.098 C 
ENDROOT
BRANCH   1   4
ATOM      2  O   UNL     1      37.059 -21.897 -17.441  0.00  0.00    -0.269 OA
ATOM      3  O   UNL     1      32.543 -22.062 -18.461  0.00  0.00    -0.269 OA
ATOM      4  N   UNL     1      34.736 -22.248 -17.621  0.00  0.00    -0.224 N 
ATOM      5  C   UNL     1      35.967 -21.715 -17.944  0.00  0.00    +0.255 C 
ATOM      6  C   UNL     1      33.730 -21.795 -18.448  0.00  0.00    +0.255 C 
ATOM      7  C   UNL     1      35.725 -20.827 -19.081  0.00  0.00    +0.059 C 
ATOM      8  C   UNL     1      34.374 -20.875 -19.386  0.00  0.00    +0.058 C 
ATOM      9  C   UNL     1      36.608 -20.041 -19.794  0.00  0.00    +0.011 C 
ATOM     10  C   UNL     1      33.832 -20.142 -20.422  0.00  0.00    +0.005 C 
ATOM     11  C   UNL     1      36.081 -19.288 -20.848  0.00  0.00    +0.076 C 
ATOM     12  C   UNL     1      34.706 -19.337 -21.158  0.00  0.00    +0.007 C 
BRANCH  11  14
ATOM     13  O   UNL     1      38.194 -18.409 -21.546  0.00  0.00    -0.245 OA
ATOM     14  C   UNL     1      36.962 -18.441 -21.637  0.00  0.00    +0.338 C 
BRANCH  14  15
ATOM     15  O   UNL     1      36.280 -17.659 -22.518  0.00  0.00    -0.477 OA
ATOM     16  H   UNL     1      35.914 -18.035 -23.293  0.00  0.00    +0.295 HD
ENDBRANCH  14  15
ENDBRANCH  11  14
ENDBRANCH   1   4
BRANCH   1  17
ATOM     17  C   UNL     1      33.103 -23.781 -16.587  0.00  0.00    +0.047 C 
BRANCH  17  18
ATOM     18  C   UNL     1      32.318 -23.723 -15.297  0.00  0.00    -0.020 C 
ATOM     19  C   UNL     1      30.976 -23.312 -15.260  0.00  0.00    -0.004 C 
ATOM     20  C   UNL     1      32.981 -24.098 -14.128  0.00  0.00    -0.004 C 
ATOM     21  C   UNL     1      30.296 -23.279 -14.019  0.00  0.00    -0.000 C 
ATOM     22  C   UNL     1      30.294 -22.931 -16.427  0.00  0.00    -0.000 C 
ATOM     23  C   UNL     1      32.313 -24.066 -12.907  0.00  0.00    -0.000 C 
ATOM     24  C   UNL     1      30.979 -23.659 -12.851  0.00  0.00    -0.000 C 
ATOM     25  C   UNL     1      28.955 -22.868 -13.982  0.00  0.00    -0.000 C 
ATOM     26  C   UNL     1      28.961 -22.525 -16.372  0.00  0.00    -0.000 C 
ATOM     27  C   UNL     1      28.292 -22.493 -15.151  0.00  0.00    -0.000 C 
ENDBRANCH  17  18
ENDBRANCH   1  17
BRANCH   1  28
ATOM     28  C   UNL     1      34.894 -22.525 -15.196  0.00  0.00    +0.130 C 
BRANCH  28  30
ATOM     29  O   UNL     1      36.317 -23.100 -13.308  0.00  0.00    -0.250 OA
ATOM     30  C   UNL     1      36.057 -23.195 -14.499  0.00  0.00    +0.316 C 
BRANCH  30  31
ATOM     31  O   UNL     1      36.779 -23.965 -15.355  0.00  0.00    -0.480 OA
ATOM     32  H   UNL     1      37.535 -23.610 -15.780  0.00  0.00    +0.295 HD
ENDBRANCH  30  31
ENDBRANCH  28  30
ENDBRANCH   1  28
TORSDOF 8
ENDMDL
MODEL 9
REMARK VINA RESULT:     -10.2      4.378      6.851
REMARK  Name = 24764434
REMARK  8 active torsions:
REMARK  status: ('A' for Active; 'I' for Inactive)
REMARK    1  A    between atoms: C_1  and  N_4
REMARK    2  A    between atoms: C_1  and  C_17
REMARK    3  A    between atoms: C_1  and  C_28
REMARK    4  A    between atoms: C_11  and  C_14
REMARK    5  A    between atoms: C_14  and  O_15
REMARK    6  A    between atoms: C_17  and  C_18
REMARK    7  A    between atoms: C_28  and  C_30
REMARK    8  A    between atoms: C_30  and  O_31
REMARK                            x       y       z     vdW  Elec       q    Type
REMARK                         _______ _______ _______ _____ _____    ______ ____
ROOT
ATOM      1  C   UNL     1      35.356 -18.782 -22.162  0.00  0.00    +0.098 C 
ENDROOT
BRANCH   1   4
ATOM      2  O   UNL     1      37.572 -19.419 -20.270  0.00  0.00    -0.269 OA
ATOM      3  O   UNL     1      33.068 -20.264 -20.952  0.00  0.00    -0.269 OA
ATOM      4  N   UNL     1      35.330 -19.606 -20.971  0.00  0.00    -0.224 N 
ATOM      5  C   UNL     1      36.432 -19.831 -20.171  0.00  0.00    +0.255 C 
ATOM      6  C   UNL     1      34.202 -20.250 -20.510  0.00  0.00    +0.255 C 
ATOM      7  C   UNL     1      35.968 -20.713 -19.101  0.00  0.00    +0.059 C 
ATOM      8  C   UNL     1      34.620 -20.966 -19.305  0.00  0.00    +0.058 C 
ATOM      9  C   UNL     1      36.659 -21.251 -18.034  0.00  0.00    +0.011 C 
ATOM     10  C   UNL     1      33.890 -21.770 -18.453  0.00  0.00    +0.005 C 
ATOM     11  C   UNL     1      35.940 -22.070 -17.158  0.00  0.00    +0.076 C 
ATOM     12  C   UNL     1      34.570 -22.327 -17.366  0.00  0.00    +0.007 C 
BRANCH  11  14
ATOM     13  O   UNL     1      36.056 -23.230 -15.068  0.00  0.00    -0.245 OA
ATOM     14  C   UNL     1      36.615 -22.665 -16.015  0.00  0.00    +0.338 C 
BRANCH  14  15
ATOM     15  O   UNL     1      37.968 -22.541 -16.086  0.00  0.00    -0.477 OA
ATOM     16  H   UNL     1      38.459 -22.316 -15.322  0.00  0.00    +0.295 HD
ENDBRANCH  14  15
ENDBRANCH  11  14
ENDBRANCH   1   4
BRANCH   1  17
ATOM     17  C   UNL     1      36.116 -17.462 -21.907  0.00  0.00    +0.047 C 
BRANCH  17  18
ATOM     18  C   UNL     1      35.255 -16.244 -21.669  0.00  0.00    -0.020 C 
ATOM     19  C   UNL     1      34.695 -15.510 -22.728  0.00  0.00    -0.004 C 
ATOM     20  C   UNL     1      35.029 -15.868 -20.345  0.00  0.00    -0.004 C 
ATOM     21  C   UNL     1      33.897 -14.378 -22.440  0.00  0.00    -0.000 C 
ATOM     22  C   UNL     1      34.913 -15.875 -24.067  0.00  0.00    -0.000 C 
ATOM     23  C   UNL     1      34.243 -14.755 -20.060  0.00  0.00    -0.000 C 
ATOM     24  C   UNL     1      33.680 -14.014 -21.100  0.00  0.00    -0.000 C 
ATOM     25  C   UNL     1      33.338 -13.645 -23.497  0.00  0.00    -0.000 C 
ATOM     26  C   UNL     1      34.349 -15.134 -25.106  0.00  0.00    -0.000 C 
ATOM     27  C   UNL     1      33.563 -14.021 -24.822  0.00  0.00    -0.000 C 
ENDBRANCH  17  18
ENDBRANCH   1  17
BRANCH   1  28
ATOM     28  C   UNL     1      33.933 -18.605 -22.712  0.00  0.00    +0.130 C 
BRANCH  28  30
ATOM     29  O   UNL     1      32.963 -18.603 -24.943  0.00  0.00    -0.250 OA
ATOM     30  C   UNL     1      33.788 -19.039 -24.153  0.00  0.00    +0.316 C 
BRANCH  30  31
ATOM     31  O   UNL     1      34.723 -19.964 -24.496  0.00  0.00    -0.480 OA
ATOM     32  H   UNL     1      35.633 -19.771 -24.388  0.00  0.00    +0.295 HD
ENDBRANCH  30  31
ENDBRANCH  28  30
ENDBRANCH   1  28
TORSDOF 8
ENDMDL
