MODEL 1
REMARK VINA RESULT:     -12.1      0.000      0.000
REMARK  Name = 24821094
REMARK  5 active torsions:
REMARK  status: ('A' for Active; 'I' for Inactive)
REMARK    1  A    between atoms: N_1  and  C_12
REMARK    2  A    between atoms: C_7  and  C_20
REMARK    3  A    between atoms: C_17  and  C_18
REMARK    4  A    between atoms: C_25  and  O_26
REMARK    5  A    between atoms: O_26  and  C_27
REMARK                            x       y       z     vdW  Elec       q    Type
REMARK                         _______ _______ _______ _____ _____    ______ ____
ROOT
ATOM      1  N   UNL     1      34.041 -14.829 -21.929  0.00  0.00    -0.198 N 
ATOM      2  N   UNL     1      34.455 -15.726 -21.015  0.00  0.00    -0.181 NA
ATOM      3  N   UNL     1      33.686 -14.646 -24.317  0.00  0.00    -0.231 NA
ATOM      4  N   UNL     1      34.244 -16.720 -25.473  0.00  0.00    -0.234 NA
ATOM      5  C   UNL     1      34.046 -15.307 -23.206  0.00  0.00    +0.137 C 
ATOM      6  C   UNL     1      34.496 -16.613 -23.122  0.00  0.00    +0.150 C 
ATOM      7  C   UNL     1      34.731 -16.811 -21.748  0.00  0.00    +0.090 C 
ATOM      8  C   UNL     1      34.591 -17.326 -24.312  0.00  0.00    +0.112 C 
ATOM      9  C   UNL     1      33.820 -15.436 -25.405  0.00  0.00    +0.252 C 
ATOM     10  N   UNL     1      35.036 -18.660 -24.330  0.00  0.00    -0.346 N 
ATOM     11  H   UNL     1      35.095 -19.148 -25.184  0.00  0.00    +0.143 HD
ATOM     12  H   UNL     1      35.288 -19.107 -23.490  0.00  0.00    +0.143 HD
ENDROOT
BRANCH   1  15
ATOM     13  O   UNL     1      32.472  -9.031 -22.251  0.00  0.00    -0.270 OA
ATOM     14  N   UNL     1      32.467 -11.351 -22.084  0.00  0.00    -0.274 N 
ATOM     15  C   UNL     1      33.628 -13.440 -21.479  0.00  0.00    +0.117 C 
ATOM     16  C   UNL     1      32.833 -13.478 -20.159  0.00  0.00    +0.025 C 
ATOM     17  C   UNL     1      32.833 -12.692 -22.563  0.00  0.00    +0.115 C 
ATOM     18  C   UNL     1      32.400 -12.072 -19.737  0.00  0.00    +0.023 C 
ATOM     19  C   UNL     1      31.659 -11.354 -20.863  0.00  0.00    +0.094 C 
ATOM     20  C   UNL     1      32.805 -10.138 -22.678  0.00  0.00    +0.249 C 
BRANCH  20  21
ATOM     21  C   UNL     1      33.626 -10.178 -23.904  0.00  0.00    +0.058 C 
ATOM     22  C   UNL     1      34.918  -9.851 -23.825  0.00  0.00    +0.005 C 
ENDBRANCH  20  21
ENDBRANCH   1  15
BRANCH   7  23
ATOM     23  C   UNL     1      35.213 -18.007 -21.105  0.00  0.00    +0.016 C 
ATOM     24  C   UNL     1      34.315 -19.008 -20.733  0.00  0.00    +0.004 C 
ATOM     25  C   UNL     1      36.576 -18.165 -20.855  0.00  0.00    +0.004 C 
ATOM     26  C   UNL     1      34.782 -20.166 -20.111  0.00  0.00    +0.038 C 
ATOM     27  C   UNL     1      37.042 -19.323 -20.234  0.00  0.00    +0.038 C 
ATOM     28  C   UNL     1      36.145 -20.323 -19.861  0.00  0.00    +0.145 C 
BRANCH  28  29
ATOM     29  O   UNL     1      36.599 -21.452 -19.251  0.00  0.00    -0.453 OA
BRANCH  29  30
ATOM     30  C   UNL     1      35.876 -21.938 -18.175  0.00  0.00    +0.145 C 
ATOM     31  C   UNL     1      36.472 -22.027 -16.917  0.00  0.00    +0.037 C 
ATOM     32  C   UNL     1      34.551 -22.340 -18.348  0.00  0.00    +0.037 C 
ATOM     33  C   UNL     1      35.744 -22.518 -15.833  0.00  0.00    +0.003 C 
ATOM     34  C   UNL     1      33.823 -22.830 -17.265  0.00  0.00    +0.003 C 
ATOM     35  C   UNL     1      34.420 -22.920 -16.007  0.00  0.00    +0.000 C 
ENDBRANCH  29  30
ENDBRANCH  28  29
ENDBRANCH   7  23
TORSDOF 5
ENDMDL
MODEL 2
REMARK VINA RESULT:     -11.6      5.219     11.667
REMARK  Name = 24821094
REMARK  5 active torsions:
REMARK  status: ('A' for Active; 'I' for Inactive)
REMARK    1  A    between atoms: N_1  and  C_12
REMARK    2  A    between atoms: C_7  and  C_20
REMARK    3  A    between atoms: C_17  and  C_18
REMARK    4  A    between atoms: C_25  and  O_26
REMARK    5  A    between atoms: O_26  and  C_27
REMARK                            x       y       z     vdW  Elec       q    Type
REMARK                         _______ _______ _______ _____ _____    ______ ____
ROOT
ATOM      1  N   UNL     1      34.687 -23.651 -15.006  0.00  0.00    -0.198 N 
ATOM      2  N   UNL     1      35.345 -23.063 -16.021  0.00  0.00    -0.181 NA
ATOM      3  N   UNL     1      32.422 -24.060 -14.257  0.00  0.00    -0.231 NA
ATOM      4  N   UNL     1      30.779 -23.131 -15.802  0.00  0.00    -0.234 NA
ATOM      5  C   UNL     1      33.330 -23.569 -15.113  0.00  0.00    +0.137 C 
ATOM      6  C   UNL     1      33.082 -22.878 -16.286  0.00  0.00    +0.150 C 
ATOM      7  C   UNL     1      34.362 -22.594 -16.798  0.00  0.00    +0.090 C 
ATOM      8  C   UNL     1      31.750 -22.662 -16.622  0.00  0.00    +0.112 C 
ATOM      9  C   UNL     1      31.169 -23.791 -14.686  0.00  0.00    +0.252 C 
ATOM     10  N   UNL     1      31.396 -21.971 -17.795  0.00  0.00    -0.346 N 
ATOM     11  H   UNL     1      30.446 -21.830 -18.015  0.00  0.00    +0.143 HD
ATOM     12  H   UNL     1      32.096 -21.629 -18.396  0.00  0.00    +0.143 HD
ENDROOT
BRANCH   1  15
ATOM     13  O   UNL     1      39.336 -26.064 -12.048  0.00  0.00    -0.270 OA
ATOM     14  N   UNL     1      37.688 -24.635 -12.855  0.00  0.00    -0.274 N 
ATOM     15  C   UNL     1      35.473 -24.315 -13.891  0.00  0.00    +0.117 C 
ATOM     16  C   UNL     1      34.893 -23.982 -12.503  0.00  0.00    +0.025 C 
ATOM     17  C   UNL     1      36.969 -23.960 -13.946  0.00  0.00    +0.115 C 
ATOM     18  C   UNL     1      35.716 -24.636 -11.390  0.00  0.00    +0.023 C 
ATOM     19  C   UNL     1      37.199 -24.292 -11.518  0.00  0.00    +0.094 C 
ATOM     20  C   UNL     1      38.751 -25.523 -12.988  0.00  0.00    +0.249 C 
BRANCH  20  21
ATOM     21  C   UNL     1      39.209 -25.847 -14.354  0.00  0.00    +0.058 C 
ATOM     22  C   UNL     1      40.478 -25.599 -14.684  0.00  0.00    +0.005 C 
ENDBRANCH  20  21
ENDBRANCH   1  15
BRANCH   7  23
ATOM     23  C   UNL     1      34.683 -21.886 -18.012  0.00  0.00    +0.016 C 
ATOM     24  C   UNL     1      33.662 -21.461 -18.862  0.00  0.00    +0.004 C 
ATOM     25  C   UNL     1      36.014 -21.625 -18.336  0.00  0.00    +0.004 C 
ATOM     26  C   UNL     1      33.973 -20.776 -20.036  0.00  0.00    +0.038 C 
ATOM     27  C   UNL     1      36.325 -20.938 -19.510  0.00  0.00    +0.038 C 
ATOM     28  C   UNL     1      35.304 -20.514 -20.360  0.00  0.00    +0.145 C 
BRANCH  28  29
ATOM     29  O   UNL     1      35.607 -19.848 -21.507  0.00  0.00    -0.453 OA
BRANCH  29  30
ATOM     30  C   UNL     1      35.390 -18.481 -21.535  0.00  0.00    +0.145 C 
ATOM     31  C   UNL     1      35.165 -17.835 -22.751  0.00  0.00    +0.037 C 
ATOM     32  C   UNL     1      35.397 -17.748 -20.347  0.00  0.00    +0.037 C 
ATOM     33  C   UNL     1      34.947 -16.457 -22.779  0.00  0.00    +0.003 C 
ATOM     34  C   UNL     1      35.179 -16.372 -20.375  0.00  0.00    +0.003 C 
ATOM     35  C   UNL     1      34.955 -15.726 -21.591  0.00  0.00    +0.000 C 
ENDBRANCH  29  30
ENDBRANCH  28  29
ENDBRANCH   7  23
TORSDOF 5
ENDMDL
MODEL 3
REMARK VINA RESULT:     -11.5      1.800      2.829
REMARK  Name = 24821094
REMARK  5 active torsions:
REMARK  status: ('A' for Active; 'I' for Inactive)
REMARK    1  A    between atoms: N_1  and  C_12
REMARK    2  A    between atoms: C_7  and  C_20
REMARK    3  A    between atoms: C_17  and  C_18
REMARK    4  A    between atoms: C_25  and  O_26
REMARK    5  A    between atoms: O_26  and  C_27
REMARK                            x       y       z     vdW  Elec       q    Type
REMARK                         _______ _______ _______ _____ _____    ______ ____
ROOT
ATOM      1  N   UNL     1      33.463 -12.417 -22.218  0.00  0.00    -0.198 N 
ATOM      2  N   UNL     1      33.899 -13.472 -21.505  0.00  0.00    -0.181 NA
ATOM      3  N   UNL     1      33.073 -11.769 -24.518  0.00  0.00    -0.231 NA
ATOM      4  N   UNL     1      33.631 -13.567 -26.068  0.00  0.00    -0.234 NA
ATOM      5  C   UNL     1      33.454 -12.633 -23.564  0.00  0.00    +0.137 C 
ATOM      6  C   UNL     1      33.916 -13.924 -23.746  0.00  0.00    +0.150 C 
ATOM      7  C   UNL     1      34.173 -14.387 -22.442  0.00  0.00    +0.090 C 
ATOM      8  C   UNL     1      33.999 -14.387 -25.055  0.00  0.00    +0.112 C 
ATOM      9  C   UNL     1      33.197 -12.327 -25.742  0.00  0.00    +0.252 C 
ATOM     10  N   UNL     1      34.455 -15.686 -25.343  0.00  0.00    -0.346 N 
ATOM     11  H   UNL     1      34.506 -15.994 -26.277  0.00  0.00    +0.143 HD
ATOM     12  H   UNL     1      34.723 -16.288 -24.611  0.00  0.00    +0.143 HD
ENDROOT
BRANCH   1  15
ATOM     13  O   UNL     1      32.299  -6.592 -21.269  0.00  0.00    -0.270 OA
ATOM     14  N   UNL     1      32.138  -8.867 -21.722  0.00  0.00    -0.274 N 
ATOM     15  C   UNL     1      33.047 -11.149 -21.497  0.00  0.00    +0.117 C 
ATOM     16  C   UNL     1      32.009 -11.432 -20.393  0.00  0.00    +0.025 C 
ATOM     17  C   UNL     1      32.517 -10.078 -22.466  0.00  0.00    +0.115 C 
ATOM     18  C   UNL     1      31.578 -10.139 -19.696  0.00  0.00    +0.023 C 
ATOM     19  C   UNL     1      31.109  -9.092 -20.704  0.00  0.00    +0.094 C 
ATOM     20  C   UNL     1      32.649  -7.586 -21.908  0.00  0.00    +0.249 C 
BRANCH  20  21
ATOM     21  C   UNL     1      33.689  -7.403 -22.939  0.00  0.00    +0.058 C 
ATOM     22  C   UNL     1      33.743  -6.247 -23.603  0.00  0.00    +0.005 C 
ENDBRANCH  20  21
ENDBRANCH   1  15
BRANCH   7  23
ATOM     23  C   UNL     1      34.674 -15.682 -22.054  0.00  0.00    +0.016 C 
ATOM     24  C   UNL     1      34.944 -15.951 -20.712  0.00  0.00    +0.004 C 
ATOM     25  C   UNL     1      34.886 -16.666 -23.019  0.00  0.00    +0.004 C 
ATOM     26  C   UNL     1      35.428 -17.204 -20.337  0.00  0.00    +0.038 C 
ATOM     27  C   UNL     1      35.369 -17.920 -22.643  0.00  0.00    +0.038 C 
ATOM     28  C   UNL     1      35.641 -18.188 -21.302  0.00  0.00    +0.145 C 
BRANCH  28  29
ATOM     29  O   UNL     1      36.116 -19.410 -20.935  0.00  0.00    -0.453 OA
BRANCH  29  30
ATOM     30  C   UNL     1      35.289 -20.222 -20.178  0.00  0.00    +0.145 C 
ATOM     31  C   UNL     1      35.841 -21.174 -19.322  0.00  0.00    +0.037 C 
ATOM     32  C   UNL     1      33.903 -20.089 -20.272  0.00  0.00    +0.037 C 
ATOM     33  C   UNL     1      35.008 -21.994 -18.559  0.00  0.00    +0.003 C 
ATOM     34  C   UNL     1      33.070 -20.907 -19.510  0.00  0.00    +0.003 C 
ATOM     35  C   UNL     1      33.623 -21.860 -18.654  0.00  0.00    +0.000 C 
ENDBRANCH  29  30
ENDBRANCH  28  29
ENDBRANCH   7  23
TORSDOF 5
ENDMDL
MODEL 4
REMARK VINA RESULT:     -11.5      4.933     11.552
REMARK  Name = 24821094
REMARK  5 active torsions:
REMARK  status: ('A' for Active; 'I' for Inactive)
REMARK    1  A    between atoms: N_1  and  C_12
REMARK    2  A    between atoms: C_7  and  C_20
REMARK    3  A    between atoms: C_17  and  C_18
REMARK    4  A    between atoms: C_25  and  O_26
REMARK    5  A    between atoms: O_26  and  C_27
REMARK                            x       y       z     vdW  Elec       q    Type
REMARK                         _______ _______ _______ _____ _____    ______ ____
ROOT
ATOM      1  N   UNL     1      36.054 -22.902 -15.948  0.00  0.00    -0.198 N 
ATOM      2  N   UNL     1      36.516 -22.130 -16.949  0.00  0.00    -0.181 NA
ATOM      3  N   UNL     1      33.971 -23.823 -15.129  0.00  0.00    -0.231 NA
ATOM      4  N   UNL     1      32.084 -23.171 -16.531  0.00  0.00    -0.234 NA
ATOM      5  C   UNL     1      34.707 -23.102 -15.989  0.00  0.00    +0.137 C 
ATOM      6  C   UNL     1      34.253 -22.410 -17.098  0.00  0.00    +0.150 C 
ATOM      7  C   UNL     1      35.413 -21.833 -17.646  0.00  0.00    +0.090 C 
ATOM      8  C   UNL     1      32.887 -22.461 -17.358  0.00  0.00    +0.112 C 
ATOM      9  C   UNL     1      32.667 -23.799 -15.482  0.00  0.00    +0.252 C 
ATOM     10  N   UNL     1      32.329 -21.791 -18.463  0.00  0.00    -0.346 N 
ATOM     11  H   UNL     1      31.360 -21.841 -18.630  0.00  0.00    +0.143 HD
ATOM     12  H   UNL     1      32.907 -21.275 -19.070  0.00  0.00    +0.143 HD
ENDROOT
BRANCH   1  15
ATOM     13  O   UNL     1      38.064 -25.791 -11.070  0.00  0.00    -0.270 OA
ATOM     14  N   UNL     1      37.454 -25.200 -13.234  0.00  0.00    -0.274 N 
ATOM     15  C   UNL     1      37.025 -23.450 -14.919  0.00  0.00    +0.117 C 
ATOM     16  C   UNL     1      38.413 -23.725 -15.529  0.00  0.00    +0.025 C 
ATOM     17  C   UNL     1      36.484 -24.714 -14.228  0.00  0.00    +0.115 C 
ATOM     18  C   UNL     1      39.370 -24.305 -14.484  0.00  0.00    +0.023 C 
ATOM     19  C   UNL     1      38.767 -25.526 -13.793  0.00  0.00    +0.094 C 
ATOM     20  C   UNL     1      37.228 -25.373 -11.872  0.00  0.00    +0.249 C 
BRANCH  20  21
ATOM     21  C   UNL     1      35.892 -25.025 -11.347  0.00  0.00    +0.058 C 
ATOM     22  C   UNL     1      35.807 -24.249 -10.265  0.00  0.00    +0.005 C 
ENDBRANCH  20  21
ENDBRANCH   1  15
BRANCH   7  23
ATOM     23  C   UNL     1      35.509 -21.003 -18.820  0.00  0.00    +0.016 C 
ATOM     24  C   UNL     1      34.379 -20.770 -19.603  0.00  0.00    +0.004 C 
ATOM     25  C   UNL     1      36.732 -20.432 -19.173  0.00  0.00    +0.004 C 
ATOM     26  C   UNL     1      34.472 -19.966 -20.739  0.00  0.00    +0.038 C 
ATOM     27  C   UNL     1      36.824 -19.627 -20.309  0.00  0.00    +0.038 C 
ATOM     28  C   UNL     1      35.694 -19.395 -21.092  0.00  0.00    +0.145 C 
BRANCH  28  29
ATOM     29  O   UNL     1      35.785 -18.613 -22.203  0.00  0.00    -0.453 OA
BRANCH  29  30
ATOM     30  C   UNL     1      35.402 -17.288 -22.090  0.00  0.00    +0.145 C 
ATOM     31  C   UNL     1      35.165 -16.531 -23.238  0.00  0.00    +0.037 C 
ATOM     32  C   UNL     1      35.253 -16.708 -20.830  0.00  0.00    +0.037 C 
ATOM     33  C   UNL     1      34.780 -15.194 -23.125  0.00  0.00    +0.003 C 
ATOM     34  C   UNL     1      34.867 -15.373 -20.716  0.00  0.00    +0.003 C 
ATOM     35  C   UNL     1      34.632 -14.616 -21.864  0.00  0.00    +0.000 C 
ENDBRANCH  29  30
ENDBRANCH  28  29
ENDBRANCH   7  23
TORSDOF 5
ENDMDL
MODEL 5
REMARK VINA RESULT:     -11.1      4.411     12.564
REMARK  Name = 24821094
REMARK  5 active torsions:
REMARK  status: ('A' for Active; 'I' for Inactive)
REMARK    1  A    between atoms: N_1  and  C_12
REMARK    2  A    between atoms: C_7  and  C_20
REMARK    3  A    between atoms: C_17  and  C_18
REMARK    4  A    between atoms: C_25  and  O_26
REMARK    5  A    between atoms: O_26  and  C_27
REMARK                            x       y       z     vdW  Elec       q    Type
REMARK                         _______ _______ _______ _____ _____    ______ ____
ROOT
ATOM      1  N   UNL     1      33.156 -11.163 -23.128  0.00  0.00    -0.198 N 
ATOM      2  N   UNL     1      33.082  -9.881 -23.531  0.00  0.00    -0.181 NA
ATOM      3  N   UNL     1      32.655 -12.528 -21.193  0.00  0.00    -0.231 NA
ATOM      4  N   UNL     1      31.715 -11.203 -19.373  0.00  0.00    -0.234 NA
ATOM      5  C   UNL     1      32.703 -11.364 -21.858  0.00  0.00    +0.137 C 
ATOM      6  C   UNL     1      32.301 -10.123 -21.396  0.00  0.00    +0.150 C 
ATOM      7  C   UNL     1      32.560  -9.253 -22.471  0.00  0.00    +0.090 C 
ATOM      8  C   UNL     1      31.792 -10.065 -20.103  0.00  0.00    +0.112 C 
ATOM      9  C   UNL     1      32.145 -12.348 -19.955  0.00  0.00    +0.252 C 
ATOM     10  N   UNL     1      31.356  -8.850 -19.544  0.00  0.00    -0.346 N 
ATOM     11  H   UNL     1      30.998  -8.831 -18.627  0.00  0.00    +0.143 HD
ATOM     12  H   UNL     1      31.408  -8.019 -20.069  0.00  0.00    +0.143 HD
ENDROOT
BRANCH   1  15
ATOM     13  O   UNL     1      34.965 -16.526 -25.165  0.00  0.00    -0.270 OA
ATOM     14  N   UNL     1      33.752 -14.600 -24.687  0.00  0.00    -0.274 N 
ATOM     15  C   UNL     1      33.710 -12.212 -24.074  0.00  0.00    +0.117 C 
ATOM     16  C   UNL     1      33.434 -11.858 -25.548  0.00  0.00    +0.025 C 
ATOM     17  C   UNL     1      33.179 -13.620 -23.752  0.00  0.00    +0.115 C 
ATOM     18  C   UNL     1      33.973 -12.942 -26.485  0.00  0.00    +0.023 C 
ATOM     19  C   UNL     1      33.457 -14.325 -26.094  0.00  0.00    +0.094 C 
ATOM     20  C   UNL     1      34.508 -15.720 -24.353  0.00  0.00    +0.249 C 
BRANCH  20  21
ATOM     21  C   UNL     1      34.790 -15.958 -22.923  0.00  0.00    +0.058 C 
ATOM     22  C   UNL     1      35.239 -17.156 -22.545  0.00  0.00    +0.005 C 
ENDBRANCH  20  21
ENDBRANCH   1  15
BRANCH   7  23
ATOM     23  C   UNL     1      32.325  -7.831 -22.525  0.00  0.00    +0.016 C 
ATOM     24  C   UNL     1      31.145  -7.341 -23.082  0.00  0.00    +0.004 C 
ATOM     25  C   UNL     1      33.277  -6.947 -22.018  0.00  0.00    +0.004 C 
ATOM     26  C   UNL     1      30.917  -5.966 -23.134  0.00  0.00    +0.038 C 
ATOM     27  C   UNL     1      33.049  -5.571 -22.069  0.00  0.00    +0.038 C 
ATOM     28  C   UNL     1      31.869  -5.082 -22.627  0.00  0.00    +0.145 C 
BRANCH  28  29
ATOM     29  O   UNL     1      31.648  -3.739 -22.680  0.00  0.00    -0.453 OA
BRANCH  29  30
ATOM     30  C   UNL     1      31.547  -3.152 -23.930  0.00  0.00    +0.145 C 
ATOM     31  C   UNL     1      30.432  -2.377 -24.248  0.00  0.00    +0.037 C 
ATOM     32  C   UNL     1      32.560  -3.336 -24.872  0.00  0.00    +0.037 C 
ATOM     33  C   UNL     1      30.330  -1.786 -25.508  0.00  0.00    +0.003 C 
ATOM     34  C   UNL     1      32.459  -2.745 -26.130  0.00  0.00    +0.003 C 
ATOM     35  C   UNL     1      31.343  -1.971 -26.449  0.00  0.00    +0.000 C 
ENDBRANCH  29  30
ENDBRANCH  28  29
ENDBRANCH   7  23
TORSDOF 5
ENDMDL
MODEL 6
REMARK VINA RESULT:     -10.7      3.564      6.626
REMARK  Name = 24821094
REMARK  5 active torsions:
REMARK  status: ('A' for Active; 'I' for Inactive)
REMARK    1  A    between atoms: N_1  and  C_12
REMARK    2  A    between atoms: C_7  and  C_20
REMARK    3  A    between atoms: C_17  and  C_18
REMARK    4  A    between atoms: C_25  and  O_26
REMARK    5  A    between atoms: O_26  and  C_27
REMARK                            x       y       z     vdW  Elec       q    Type
REMARK                         _______ _______ _______ _____ _____    ______ ____
ROOT
ATOM      1  N   UNL     1      32.814  -9.499 -22.656  0.00  0.00    -0.198 N 
ATOM      2  N   UNL     1      33.367 -10.525 -23.329  0.00  0.00    -0.181 NA
ATOM      3  N   UNL     1      31.609  -9.067 -20.602  0.00  0.00    -0.231 NA
ATOM      4  N   UNL     1      31.266 -11.108 -19.311  0.00  0.00    -0.234 NA
ATOM      5  C   UNL     1      32.234  -9.867 -21.479  0.00  0.00    +0.137 C 
ATOM      6  C   UNL     1      32.421 -11.235 -21.373  0.00  0.00    +0.150 C 
ATOM      7  C   UNL     1      33.124 -11.579 -22.542  0.00  0.00    +0.090 C 
ATOM      8  C   UNL     1      31.909 -11.856 -20.239  0.00  0.00    +0.112 C 
ATOM      9  C   UNL     1      31.157  -9.779 -19.546  0.00  0.00    +0.252 C 
ATOM     10  N   UNL     1      32.050 -13.242 -20.039  0.00  0.00    -0.346 N 
ATOM     11  H   UNL     1      31.681 -13.662 -19.228  0.00  0.00    +0.143 HD
ATOM     12  H   UNL     1      32.518 -13.791 -20.709  0.00  0.00    +0.143 HD
ENDROOT
BRANCH   1  15
ATOM     13  O   UNL     1      32.124  -3.541 -23.113  0.00  0.00    -0.270 OA
ATOM     14  N   UNL     1      32.960  -5.682 -22.759  0.00  0.00    -0.274 N 
ATOM     15  C   UNL     1      32.883  -8.100 -23.239  0.00  0.00    +0.117 C 
ATOM     16  C   UNL     1      34.088  -7.932 -24.185  0.00  0.00    +0.025 C 
ATOM     17  C   UNL     1      32.905  -7.018 -22.145  0.00  0.00    +0.115 C 
ATOM     18  C   UNL     1      34.157  -6.506 -24.740  0.00  0.00    +0.023 C 
ATOM     19  C   UNL     1      34.126  -5.470 -23.619  0.00  0.00    +0.094 C 
ATOM     20  C   UNL     1      32.039  -4.652 -22.588  0.00  0.00    +0.249 C 
BRANCH  20  21
ATOM     21  C   UNL     1      30.874  -4.910 -21.719  0.00  0.00    +0.058 C 
ATOM     22  C   UNL     1      30.138  -3.877 -21.304  0.00  0.00    +0.005 C 
ENDBRANCH  20  21
ENDBRANCH   1  15
BRANCH   7  23
ATOM     23  C   UNL     1      33.577 -12.889 -22.939  0.00  0.00    +0.016 C 
ATOM     24  C   UNL     1      34.526 -13.561 -22.168  0.00  0.00    +0.004 C 
ATOM     25  C   UNL     1      33.066 -13.485 -24.091  0.00  0.00    +0.004 C 
ATOM     26  C   UNL     1      34.964 -14.829 -22.552  0.00  0.00    +0.038 C 
ATOM     27  C   UNL     1      33.503 -14.753 -24.474  0.00  0.00    +0.038 C 
ATOM     28  C   UNL     1      34.452 -15.424 -23.704  0.00  0.00    +0.145 C 
BRANCH  28  29
ATOM     29  O   UNL     1      34.882 -16.660 -24.080  0.00  0.00    -0.453 OA
BRANCH  29  30
ATOM     30  C   UNL     1      35.087 -17.601 -23.085  0.00  0.00    +0.145 C 
ATOM     31  C   UNL     1      34.151 -18.616 -22.881  0.00  0.00    +0.037 C 
ATOM     32  C   UNL     1      36.228 -17.535 -22.285  0.00  0.00    +0.037 C 
ATOM     33  C   UNL     1      34.357 -19.563 -21.878  0.00  0.00    +0.003 C 
ATOM     34  C   UNL     1      36.434 -18.482 -21.283  0.00  0.00    +0.003 C 
ATOM     35  C   UNL     1      35.498 -19.495 -21.079  0.00  0.00    +0.000 C 
ENDBRANCH  29  30
ENDBRANCH  28  29
ENDBRANCH   7  23
TORSDOF 5
ENDMDL
MODEL 7
REMARK VINA RESULT:     -10.6      4.651     11.259
REMARK  Name = 24821094
REMARK  5 active torsions:
REMARK  status: ('A' for Active; 'I' for Inactive)
REMARK    1  A    between atoms: N_1  and  C_12
REMARK    2  A    between atoms: C_7  and  C_20
REMARK    3  A    between atoms: C_17  and  C_18
REMARK    4  A    between atoms: C_25  and  O_26
REMARK    5  A    between atoms: O_26  and  C_27
REMARK                            x       y       z     vdW  Elec       q    Type
REMARK                         _______ _______ _______ _____ _____    ______ ____
ROOT
ATOM      1  N   UNL     1      36.015 -22.566 -16.369  0.00  0.00    -0.198 N 
ATOM      2  N   UNL     1      36.540 -21.807 -17.348  0.00  0.00    -0.181 NA
ATOM      3  N   UNL     1      33.882 -23.476 -15.673  0.00  0.00    -0.231 NA
ATOM      4  N   UNL     1      32.089 -22.840 -17.199  0.00  0.00    -0.234 NA
ATOM      5  C   UNL     1      34.672 -22.766 -16.493  0.00  0.00    +0.137 C 
ATOM      6  C   UNL     1      34.290 -22.087 -17.637  0.00  0.00    +0.150 C 
ATOM      7  C   UNL     1      35.484 -21.518 -18.117  0.00  0.00    +0.090 C 
ATOM      8  C   UNL     1      32.944 -22.140 -17.983  0.00  0.00    +0.112 C 
ATOM      9  C   UNL     1      32.603 -23.455 -16.108  0.00  0.00    +0.252 C 
ATOM     10  N   UNL     1      32.458 -21.484 -19.129  0.00  0.00    -0.346 N 
ATOM     11  H   UNL     1      31.501 -21.535 -19.356  0.00  0.00    +0.143 HD
ATOM     12  H   UNL     1      33.074 -20.975 -19.704  0.00  0.00    +0.143 HD
ENDROOT
BRANCH   1  15
ATOM     13  O   UNL     1      37.686 -25.135 -11.194  0.00  0.00    -0.270 OA
ATOM     14  N   UNL     1      37.154 -24.707 -13.417  0.00  0.00    -0.274 N 
ATOM     15  C   UNL     1      36.917 -23.103 -15.274  0.00  0.00    +0.117 C 
ATOM     16  C   UNL     1      38.275 -23.575 -15.830  0.00  0.00    +0.025 C 
ATOM     17  C   UNL     1      36.246 -24.230 -14.470  0.00  0.00    +0.115 C 
ATOM     18  C   UNL     1      39.160 -24.140 -14.716  0.00  0.00    +0.023 C 
ATOM     19  C   UNL     1      38.431 -25.219 -13.918  0.00  0.00    +0.094 C 
ATOM     20  C   UNL     1      36.902 -24.719 -12.048  0.00  0.00    +0.249 C 
BRANCH  20  21
ATOM     21  C   UNL     1      35.605 -24.187 -11.583  0.00  0.00    +0.058 C 
ATOM     22  C   UNL     1      35.083 -24.661 -10.450  0.00  0.00    +0.005 C 
ENDBRANCH  20  21
ENDBRANCH   1  15
BRANCH   7  23
ATOM     23  C   UNL     1      35.656 -20.702 -19.293  0.00  0.00    +0.016 C 
ATOM     24  C   UNL     1      36.814 -19.941 -19.450  0.00  0.00    +0.004 C 
ATOM     25  C   UNL     1      34.666 -20.676 -20.275  0.00  0.00    +0.004 C 
ATOM     26  C   UNL     1      36.980 -19.151 -20.588  0.00  0.00    +0.038 C 
ATOM     27  C   UNL     1      34.833 -19.887 -21.414  0.00  0.00    +0.038 C 
ATOM     28  C   UNL     1      35.990 -19.125 -21.569  0.00  0.00    +0.145 C 
BRANCH  28  29
ATOM     29  O   UNL     1      36.151 -18.353 -22.679  0.00  0.00    -0.453 OA
BRANCH  29  30
ATOM     30  C   UNL     1      35.447 -17.162 -22.743  0.00  0.00    +0.145 C 
ATOM     31  C   UNL     1      35.493 -16.267 -21.674  0.00  0.00    +0.037 C 
ATOM     32  C   UNL     1      34.690 -16.859 -23.875  0.00  0.00    +0.037 C 
ATOM     33  C   UNL     1      34.782 -15.067 -21.738  0.00  0.00    +0.003 C 
ATOM     34  C   UNL     1      33.980 -15.661 -23.940  0.00  0.00    +0.003 C 
ATOM     35  C   UNL     1      34.026 -14.766 -22.871  0.00  0.00    +0.000 C 
ENDBRANCH  29  30
ENDBRANCH  28  29
ENDBRANCH   7  23
TORSDOF 5
ENDMDL
MODEL 8
REMARK VINA RESULT:     -10.4      5.331     10.839
REMARK  Name = 24821094
REMARK  5 active torsions:
REMARK  status: ('A' for Active; 'I' for Inactive)
REMARK    1  A    between atoms: N_1  and  C_12
REMARK    2  A    between atoms: C_7  and  C_20
REMARK    3  A    between atoms: C_17  and  C_18
REMARK    4  A    between atoms: C_25  and  O_26
REMARK    5  A    between atoms: O_26  and  C_27
REMARK                            x       y       z     vdW  Elec       q    Type
REMARK                         _______ _______ _______ _____ _____    ______ ____
ROOT
ATOM      1  N   UNL     1      33.411 -23.095 -15.588  0.00  0.00    -0.198 N 
ATOM      2  N   UNL     1      33.325 -22.445 -16.763  0.00  0.00    -0.181 NA
ATOM      3  N   UNL     1      35.080 -23.849 -14.005  0.00  0.00    -0.231 NA
ATOM      4  N   UNL     1      37.336 -23.267 -14.728  0.00  0.00    -0.234 NA
ATOM      5  C   UNL     1      34.688 -23.246 -15.138  0.00  0.00    +0.137 C 
ATOM      6  C   UNL     1      35.500 -22.650 -16.089  0.00  0.00    +0.150 C 
ATOM      7  C   UNL     1      34.602 -22.176 -17.062  0.00  0.00    +0.090 C 
ATOM      8  C   UNL     1      36.870 -22.675 -15.853  0.00  0.00    +0.112 C 
ATOM      9  C   UNL     1      36.425 -23.810 -13.885  0.00  0.00    +0.252 C 
ATOM     10  N   UNL     1      37.777 -22.094 -16.759  0.00  0.00    -0.346 N 
ATOM     11  H   UNL     1      38.744 -22.122 -16.573  0.00  0.00    +0.143 HD
ATOM     12  H   UNL     1      37.445 -21.660 -17.578  0.00  0.00    +0.143 HD
ENDROOT
BRANCH   1  15
ATOM     13  O   UNL     1      27.576 -24.269 -14.715  0.00  0.00    -0.270 OA
ATOM     14  N   UNL     1      29.843 -24.411 -15.213  0.00  0.00    -0.274 N 
ATOM     15  C   UNL     1      32.143 -23.576 -14.907  0.00  0.00    +0.117 C 
ATOM     16  C   UNL     1      32.419 -24.746 -13.943  0.00  0.00    +0.025 C 
ATOM     17  C   UNL     1      31.053 -23.964 -15.920  0.00  0.00    +0.115 C 
ATOM     18  C   UNL     1      31.126 -25.238 -13.288  0.00  0.00    +0.023 C 
ATOM     19  C   UNL     1      30.060 -25.561 -14.333  0.00  0.00    +0.094 C 
ATOM     20  C   UNL     1      28.569 -23.860 -15.318  0.00  0.00    +0.249 C 
BRANCH  20  21
ATOM     21  C   UNL     1      28.395 -22.697 -16.211  0.00  0.00    +0.058 C 
ATOM     22  C   UNL     1      27.159 -22.281 -16.493  0.00  0.00    +0.005 C 
ENDBRANCH  20  21
ENDBRANCH   1  15
BRANCH   7  23
ATOM     23  C   UNL     1      34.919 -21.471 -18.279  0.00  0.00    +0.016 C 
ATOM     24  C   UNL     1      33.896 -21.054 -19.129  0.00  0.00    +0.004 C 
ATOM     25  C   UNL     1      36.249 -21.204 -18.603  0.00  0.00    +0.004 C 
ATOM     26  C   UNL     1      34.203 -20.370 -20.306  0.00  0.00    +0.038 C 
ATOM     27  C   UNL     1      36.556 -20.519 -19.780  0.00  0.00    +0.038 C 
ATOM     28  C   UNL     1      35.533 -20.103 -20.631  0.00  0.00    +0.145 C 
BRANCH  28  29
ATOM     29  O   UNL     1      35.833 -19.439 -21.781  0.00  0.00    -0.453 OA
BRANCH  29  30
ATOM     30  C   UNL     1      35.521 -18.092 -21.846  0.00  0.00    +0.145 C 
ATOM     31  C   UNL     1      35.340 -17.477 -23.085  0.00  0.00    +0.037 C 
ATOM     32  C   UNL     1      35.389 -17.348 -20.673  0.00  0.00    +0.037 C 
ATOM     33  C   UNL     1      35.026 -16.119 -23.152  0.00  0.00    +0.003 C 
ATOM     34  C   UNL     1      35.076 -15.991 -20.739  0.00  0.00    +0.003 C 
ATOM     35  C   UNL     1      34.895 -15.377 -21.978  0.00  0.00    +0.000 C 
ENDBRANCH  29  30
ENDBRANCH  28  29
ENDBRANCH   7  23
TORSDOF 5
ENDMDL
MODEL 9
REMARK VINA RESULT:     -10.4      1.862      9.881
REMARK  Name = 24821094
REMARK  5 active torsions:
REMARK  status: ('A' for Active; 'I' for Inactive)
REMARK    1  A    between atoms: N_1  and  C_12
REMARK    2  A    between atoms: C_7  and  C_20
REMARK    3  A    between atoms: C_17  and  C_18
REMARK    4  A    between atoms: C_25  and  O_26
REMARK    5  A    between atoms: O_26  and  C_27
REMARK                            x       y       z     vdW  Elec       q    Type
REMARK                         _______ _______ _______ _____ _____    ______ ____
ROOT
ATOM      1  N   UNL     1      34.561 -16.290 -21.928  0.00  0.00    -0.198 N 
ATOM      2  N   UNL     1      34.160 -15.182 -21.278  0.00  0.00    -0.181 NA
ATOM      3  N   UNL     1      34.635 -17.198 -24.170  0.00  0.00    -0.231 NA
ATOM      4  N   UNL     1      33.699 -15.646 -25.803  0.00  0.00    -0.234 NA
ATOM      5  C   UNL     1      34.341 -16.245 -23.272  0.00  0.00    +0.137 C 
ATOM      6  C   UNL     1      33.755 -15.017 -23.522  0.00  0.00    +0.150 C 
ATOM      7  C   UNL     1      33.671 -14.410 -22.255  0.00  0.00    +0.090 C 
ATOM      8  C   UNL     1      33.431 -14.729 -24.843  0.00  0.00    +0.112 C 
ATOM      9  C   UNL     1      34.277 -16.807 -25.413  0.00  0.00    +0.252 C 
ATOM     10  N   UNL     1      32.833 -13.505 -25.198  0.00  0.00    -0.346 N 
ATOM     11  H   UNL     1      32.612 -13.321 -26.140  0.00  0.00    +0.143 HD
ATOM     12  H   UNL     1      32.637 -12.834 -24.506  0.00  0.00    +0.143 HD
ENDROOT
BRANCH   1  15
ATOM     13  O   UNL     1      35.067 -21.567 -19.086  0.00  0.00    -0.270 OA
ATOM     14  N   UNL     1      35.133 -19.844 -20.647  0.00  0.00    -0.274 N 
ATOM     15  C   UNL     1      35.185 -17.430 -21.145  0.00  0.00    +0.117 C 
ATOM     16  C   UNL     1      36.702 -17.534 -21.397  0.00  0.00    +0.025 C 
ATOM     17  C   UNL     1      34.500 -18.776 -21.435  0.00  0.00    +0.115 C 
ATOM     18  C   UNL     1      37.310 -18.707 -20.623  0.00  0.00    +0.023 C 
ATOM     19  C   UNL     1      36.564 -20.009 -20.907  0.00  0.00    +0.094 C 
ATOM     20  C   UNL     1      34.505 -20.676 -19.723  0.00  0.00    +0.249 C 
BRANCH  20  21
ATOM     21  C   UNL     1      33.062 -20.472 -19.485  0.00  0.00    +0.058 C 
ATOM     22  C   UNL     1      32.417 -21.314 -18.675  0.00  0.00    +0.005 C 
ENDBRANCH  20  21
ENDBRANCH   1  15
BRANCH   7  23
ATOM     23  C   UNL     1      33.135 -13.109 -21.940  0.00  0.00    +0.016 C 
ATOM     24  C   UNL     1      33.503 -12.001 -22.704  0.00  0.00    +0.004 C 
ATOM     25  C   UNL     1      32.249 -12.958 -20.874  0.00  0.00    +0.004 C 
ATOM     26  C   UNL     1      32.984 -10.742 -22.400  0.00  0.00    +0.038 C 
ATOM     27  C   UNL     1      31.730 -11.699 -20.570  0.00  0.00    +0.038 C 
ATOM     28  C   UNL     1      32.098 -10.591 -21.334  0.00  0.00    +0.145 C 
BRANCH  28  29
ATOM     29  O   UNL     1      31.595  -9.362 -21.035  0.00  0.00    -0.453 OA
BRANCH  29  30
ATOM     30  C   UNL     1      32.091  -8.276 -21.735  0.00  0.00    +0.145 C 
ATOM     31  C   UNL     1      33.314  -7.711 -21.371  0.00  0.00    +0.037 C 
ATOM     32  C   UNL     1      31.369  -7.744 -22.804  0.00  0.00    +0.037 C 
ATOM     33  C   UNL     1      33.814  -6.616 -22.076  0.00  0.00    +0.003 C 
ATOM     34  C   UNL     1      31.868  -6.650 -23.509  0.00  0.00    +0.003 C 
ATOM     35  C   UNL     1      33.091  -6.085 -23.144  0.00  0.00    +0.000 C 
ENDBRANCH  29  30
ENDBRANCH  28  29
ENDBRANCH   7  23
TORSDOF 5
ENDMDL
