MODEL 1
REMARK VINA RESULT:     -12.0      0.000      0.000
REMARK  Name = 24883488
REMARK  8 active torsions:
REMARK  status: ('A' for Active; 'I' for Inactive)
REMARK    1  A    between atoms: N_2  and  C_11
REMARK    2  A    between atoms: C_3  and  C_19
REMARK    3  A    between atoms: C_19  and  C_20
REMARK    4  A    between atoms: C_20  and  C_23
REMARK    5  A    between atoms: N_22  and  C_25
REMARK    6  A    between atoms: C_27  and  O_31
REMARK    7  A    between atoms: O_31  and  C_32
REMARK    8  A    between atoms: C_32  and  C_34
REMARK                            x       y       z     vdW  Elec       q    Type
REMARK                         _______ _______ _______ _____ _____    ______ ____
ROOT
ATOM      1  O   UNL     1      34.064 -18.207 -24.346  0.00  0.00    -0.275 OA
ATOM      2  N   UNL     1      35.506 -17.274 -22.737  0.00  0.00    -0.284 N 
ATOM      3  C   UNL     1      34.765 -17.293 -23.925  0.00  0.00    +0.227 C 
ATOM      4  H   UNL     1      36.034 -16.459 -22.573  0.00  0.00    +0.155 HD
ENDROOT
BRANCH   2  11
ATOM      5  O   UNL     1      32.205 -20.330 -20.315  0.00  0.00    -0.282 OA
ATOM      6  O   UNL     1      36.975 -21.591 -18.281  0.00  0.00    -0.270 OA
ATOM      7  O   UNL     1      32.397 -22.207 -18.451  0.00  0.00    -0.266 OA
ATOM      8  N   UNL     1      34.697 -21.902 -18.359  0.00  0.00    -0.246 N 
ATOM      9  C   UNL     1      34.531 -19.905 -20.335  0.00  0.00    +0.049 C 
ATOM     10  C   UNL     1      35.770 -20.247 -19.793  0.00  0.00    +0.057 C 
ATOM     11  C   UNL     1      35.593 -18.263 -21.756  0.00  0.00    +0.050 C 
ATOM     12  C   UNL     1      34.439 -18.912 -21.317  0.00  0.00    +0.018 C 
ATOM     13  C   UNL     1      36.924 -19.592 -20.237  0.00  0.00    +0.006 C 
ATOM     14  C   UNL     1      36.833 -18.602 -21.218  0.00  0.00    +0.015 C 
ATOM     15  C   UNL     1      33.315 -20.587 -19.875  0.00  0.00    +0.249 C 
ATOM     16  C   UNL     1      35.882 -21.293 -18.755  0.00  0.00    +0.252 C 
ATOM     17  C   UNL     1      33.419 -21.649 -18.822  0.00  0.00    +0.291 C 
ATOM     18  H   UNL     1      34.777 -22.598 -17.668  0.00  0.00    +0.158 HD
ENDBRANCH   2  11
BRANCH   3  19
ATOM     19  C   UNL     1      34.936 -16.017 -24.732  0.00  0.00    +0.095 C 
BRANCH  19  20
ATOM     20  C   UNL     1      33.737 -15.088 -24.561  0.00  0.00    +0.095 C 
BRANCH  20  23
ATOM     21  O   UNL     1      34.945 -14.175 -22.711  0.00  0.00    -0.275 OA
ATOM     22  N   UNL     1      32.705 -13.538 -23.032  0.00  0.00    -0.284 N 
ATOM     23  C   UNL     1      33.879 -14.226 -23.317  0.00  0.00    +0.227 C 
ATOM     24  H   UNL     1      31.953 -13.689 -23.650  0.00  0.00    +0.155 HD
BRANCH  22  25
ATOM     25  C   UNL     1      32.463 -12.647 -21.962  0.00  0.00    +0.053 C 
ATOM     26  C   UNL     1      32.375 -11.276 -22.201  0.00  0.00    +0.052 C 
ATOM     27  C   UNL     1      32.137 -10.397 -21.144  0.00  0.00    +0.140 C 
ATOM     28  C   UNL     1      32.313 -13.140 -20.666  0.00  0.00    +0.015 C 
ATOM     29  C   UNL     1      31.986 -10.890 -19.848  0.00  0.00    +0.037 C 
ATOM     30  C   UNL     1      32.074 -12.262 -19.608  0.00  0.00    +0.004 C 
BRANCH  27  31
ATOM     31  O   UNL     1      32.051  -9.059 -21.377  0.00  0.00    -0.472 OA
BRANCH  31  32
ATOM     32  C   UNL     1      32.069  -8.199 -20.238  0.00  0.00    +0.243 C 
BRANCH  32  34
ATOM     33  F   UNL     1      33.960  -7.573 -21.460  0.00  0.00    -0.230 F 
ATOM     34  C   UNL     1      33.187  -7.195 -20.403  0.00  0.00    +0.240 C 
ENDBRANCH  32  34
ENDBRANCH  31  32
ENDBRANCH  27  31
ENDBRANCH  22  25
ENDBRANCH  20  23
ENDBRANCH  19  20
ENDBRANCH   3  19
TORSDOF 8
ENDMDL
MODEL 2
REMARK VINA RESULT:     -12.0      1.576      2.145
REMARK  Name = 24883488
REMARK  8 active torsions:
REMARK  status: ('A' for Active; 'I' for Inactive)
REMARK    1  A    between atoms: N_2  and  C_11
REMARK    2  A    between atoms: C_3  and  C_19
REMARK    3  A    between atoms: C_19  and  C_20
REMARK    4  A    between atoms: C_20  and  C_23
REMARK    5  A    between atoms: N_22  and  C_25
REMARK    6  A    between atoms: C_27  and  O_31
REMARK    7  A    between atoms: O_31  and  C_32
REMARK    8  A    between atoms: C_32  and  C_34
REMARK                            x       y       z     vdW  Elec       q    Type
REMARK                         _______ _______ _______ _____ _____    ______ ____
ROOT
ATOM      1  O   UNL     1      34.935 -15.607 -21.525  0.00  0.00    -0.275 OA
ATOM      2  N   UNL     1      35.570 -17.580 -22.641  0.00  0.00    -0.284 N 
ATOM      3  C   UNL     1      35.247 -16.222 -22.540  0.00  0.00    +0.227 C 
ATOM      4  H   UNL     1      35.771 -17.908 -23.547  0.00  0.00    +0.155 HD
ENDROOT
BRANCH   2  11
ATOM      5  O   UNL     1      32.241 -20.564 -20.168  0.00  0.00    -0.282 OA
ATOM      6  O   UNL     1      36.977 -21.710 -17.991  0.00  0.00    -0.270 OA
ATOM      7  O   UNL     1      32.407 -22.365 -18.228  0.00  0.00    -0.266 OA
ATOM      8  N   UNL     1      34.703 -22.040 -18.102  0.00  0.00    -0.246 N 
ATOM      9  C   UNL     1      34.564 -20.122 -20.158  0.00  0.00    +0.049 C 
ATOM     10  C   UNL     1      35.794 -20.435 -19.578  0.00  0.00    +0.057 C 
ATOM     11  C   UNL     1      35.643 -18.529 -21.620  0.00  0.00    +0.050 C 
ATOM     12  C   UNL     1      34.485 -19.169 -21.179  0.00  0.00    +0.018 C 
ATOM     13  C   UNL     1      36.953 -19.788 -20.024  0.00  0.00    +0.006 C 
ATOM     14  C   UNL     1      36.875 -18.838 -21.045  0.00  0.00    +0.015 C 
ATOM     15  C   UNL     1      33.343 -20.795 -19.696  0.00  0.00    +0.249 C 
ATOM     16  C   UNL     1      35.892 -21.438 -18.498  0.00  0.00    +0.252 C 
ATOM     17  C   UNL     1      33.433 -21.814 -18.600  0.00  0.00    +0.291 C 
ATOM     18  H   UNL     1      34.774 -22.708 -17.383  0.00  0.00    +0.158 HD
ENDBRANCH   2  11
BRANCH   3  19
ATOM     19  C   UNL     1      35.275 -15.520 -23.888  0.00  0.00    +0.095 C 
BRANCH  19  20
ATOM     20  C   UNL     1      33.873 -15.396 -24.478  0.00  0.00    +0.095 C 
BRANCH  20  23
ATOM     21  O   UNL     1      32.787 -13.555 -25.549  0.00  0.00    -0.275 OA
ATOM     22  N   UNL     1      33.862 -13.199 -23.490  0.00  0.00    -0.284 N 
ATOM     23  C   UNL     1      33.446 -13.942 -24.588  0.00  0.00    +0.227 C 
ATOM     24  H   UNL     1      34.366 -13.689 -22.800  0.00  0.00    +0.155 HD
BRANCH  22  25
ATOM     25  C   UNL     1      33.650 -11.823 -23.245  0.00  0.00    +0.053 C 
ATOM     26  C   UNL     1      32.642 -11.417 -22.370  0.00  0.00    +0.052 C 
ATOM     27  C   UNL     1      32.432 -10.059 -22.129  0.00  0.00    +0.140 C 
ATOM     28  C   UNL     1      34.447 -10.871 -23.880  0.00  0.00    +0.015 C 
ATOM     29  C   UNL     1      33.231  -9.107 -22.764  0.00  0.00    +0.037 C 
ATOM     30  C   UNL     1      34.238  -9.513 -23.639  0.00  0.00    +0.004 C 
BRANCH  27  31
ATOM     31  O   UNL     1      31.450  -9.663 -21.275  0.00  0.00    -0.472 OA
BRANCH  31  32
ATOM     32  C   UNL     1      31.859  -9.146 -20.010  0.00  0.00    +0.243 C 
BRANCH  32  34
ATOM     33  F   UNL     1      32.157 -11.278 -19.102  0.00  0.00    -0.230 F 
ATOM     34  C   UNL     1      31.455 -10.123 -18.929  0.00  0.00    +0.240 C 
ENDBRANCH  32  34
ENDBRANCH  31  32
ENDBRANCH  27  31
ENDBRANCH  22  25
ENDBRANCH  20  23
ENDBRANCH  19  20
ENDBRANCH   3  19
TORSDOF 8
ENDMDL
MODEL 3
REMARK VINA RESULT:     -12.0      5.082     11.110
REMARK  Name = 24883488
REMARK  8 active torsions:
REMARK  status: ('A' for Active; 'I' for Inactive)
REMARK    1  A    between atoms: N_2  and  C_11
REMARK    2  A    between atoms: C_3  and  C_19
REMARK    3  A    between atoms: C_19  and  C_20
REMARK    4  A    between atoms: C_20  and  C_23
REMARK    5  A    between atoms: N_22  and  C_25
REMARK    6  A    between atoms: C_27  and  O_31
REMARK    7  A    between atoms: O_31  and  C_32
REMARK    8  A    between atoms: C_32  and  C_34
REMARK                            x       y       z     vdW  Elec       q    Type
REMARK                         _______ _______ _______ _____ _____    ______ ____
ROOT
ATOM      1  O   UNL     1      37.878 -18.997 -20.624  0.00  0.00    -0.275 OA
ATOM      2  N   UNL     1      35.552 -18.794 -20.322  0.00  0.00    -0.284 N 
ATOM      3  C   UNL     1      36.808 -19.393 -20.172  0.00  0.00    +0.227 C 
ATOM      4  H   UNL     1      34.796 -19.270 -19.908  0.00  0.00    +0.155 HD
ENDROOT
BRANCH   2  11
ATOM      5  O   UNL     1      34.344 -17.486 -25.111  0.00  0.00    -0.282 OA
ATOM      6  O   UNL     1      34.224 -12.905 -22.375  0.00  0.00    -0.270 OA
ATOM      7  O   UNL     1      33.740 -15.218 -26.348  0.00  0.00    -0.266 OA
ATOM      8  N   UNL     1      33.983 -14.050 -24.356  0.00  0.00    -0.246 N 
ATOM      9  C   UNL     1      34.628 -16.436 -23.011  0.00  0.00    +0.049 C 
ATOM     10  C   UNL     1      34.592 -15.230 -22.311  0.00  0.00    +0.057 C 
ATOM     11  C   UNL     1      35.234 -17.608 -20.985  0.00  0.00    +0.050 C 
ATOM     12  C   UNL     1      34.950 -17.628 -22.351  0.00  0.00    +0.018 C 
ATOM     13  C   UNL     1      34.879 -15.217 -20.941  0.00  0.00    +0.006 C 
ATOM     14  C   UNL     1      35.198 -16.405 -20.281  0.00  0.00    +0.015 C 
ATOM     15  C   UNL     1      34.329 -16.460 -24.449  0.00  0.00    +0.249 C 
ATOM     16  C   UNL     1      34.256 -13.964 -22.995  0.00  0.00    +0.252 C 
ATOM     17  C   UNL     1      33.987 -15.181 -25.151  0.00  0.00    +0.291 C 
ATOM     18  H   UNL     1      33.760 -13.203 -24.807  0.00  0.00    +0.158 HD
ENDBRANCH   2  11
BRANCH   3  19
ATOM     19  C   UNL     1      36.739 -20.688 -19.378  0.00  0.00    +0.095 C 
BRANCH  19  20
ATOM     20  C   UNL     1      35.330 -21.276 -19.400  0.00  0.00    +0.095 C 
BRANCH  20  23
ATOM     21  O   UNL     1      34.226 -23.054 -18.245  0.00  0.00    -0.275 OA
ATOM     22  N   UNL     1      35.970 -21.907 -17.165  0.00  0.00    -0.284 N 
ATOM     23  C   UNL     1      35.092 -22.185 -18.205  0.00  0.00    +0.227 C 
ATOM     24  H   UNL     1      36.616 -21.182 -17.325  0.00  0.00    +0.155 HD
BRANCH  22  25
ATOM     25  C   UNL     1      36.046 -22.543 -15.905  0.00  0.00    +0.053 C 
ATOM     26  C   UNL     1      37.280 -22.964 -15.409  0.00  0.00    +0.052 C 
ATOM     27  C   UNL     1      37.355 -23.592 -14.165  0.00  0.00    +0.140 C 
ATOM     28  C   UNL     1      34.887 -22.749 -15.157  0.00  0.00    +0.015 C 
ATOM     29  C   UNL     1      36.195 -23.798 -13.417  0.00  0.00    +0.037 C 
ATOM     30  C   UNL     1      34.961 -23.376 -13.913  0.00  0.00    +0.004 C 
BRANCH  27  31
ATOM     31  O   UNL     1      38.558 -24.004 -13.681  0.00  0.00    -0.472 OA
BRANCH  31  32
ATOM     32  C   UNL     1      38.883 -25.384 -13.838  0.00  0.00    +0.243 C 
BRANCH  32  34
ATOM     33  F   UNL     1      41.008 -26.354 -13.869  0.00  0.00    -0.230 F 
ATOM     34  C   UNL     1      40.207 -25.495 -14.559  0.00  0.00    +0.240 C 
ENDBRANCH  32  34
ENDBRANCH  31  32
ENDBRANCH  27  31
ENDBRANCH  22  25
ENDBRANCH  20  23
ENDBRANCH  19  20
ENDBRANCH   3  19
TORSDOF 8
ENDMDL
MODEL 4
REMARK VINA RESULT:     -11.8      3.658      6.917
REMARK  Name = 24883488
REMARK  8 active torsions:
REMARK  status: ('A' for Active; 'I' for Inactive)
REMARK    1  A    between atoms: N_2  and  C_11
REMARK    2  A    between atoms: C_3  and  C_19
REMARK    3  A    between atoms: C_19  and  C_20
REMARK    4  A    between atoms: C_20  and  C_23
REMARK    5  A    between atoms: N_22  and  C_25
REMARK    6  A    between atoms: C_27  and  O_31
REMARK    7  A    between atoms: O_31  and  C_32
REMARK    8  A    between atoms: C_32  and  C_34
REMARK                            x       y       z     vdW  Elec       q    Type
REMARK                         _______ _______ _______ _____ _____    ______ ____
ROOT
ATOM      1  O   UNL     1      33.318 -21.228 -18.951  0.00  0.00    -0.275 OA
ATOM      2  N   UNL     1      34.623 -22.673 -17.627  0.00  0.00    -0.284 N 
ATOM      3  C   UNL     1      34.370 -21.807 -18.698  0.00  0.00    +0.227 C 
ATOM      4  H   UNL     1      35.524 -23.069 -17.598  0.00  0.00    +0.155 HD
ENDROOT
BRANCH   2  11
ATOM      5  O   UNL     1      29.577 -22.537 -16.841  0.00  0.00    -0.282 OA
ATOM      6  O   UNL     1      31.591 -24.704 -12.399  0.00  0.00    -0.270 OA
ATOM      7  O   UNL     1      27.959 -23.257 -14.865  0.00  0.00    -0.266 OA
ATOM      8  N   UNL     1      29.779 -23.984 -13.620  0.00  0.00    -0.246 N 
ATOM      9  C   UNL     1      31.525 -23.232 -15.695  0.00  0.00    +0.049 C 
ATOM     10  C   UNL     1      32.035 -23.800 -14.527  0.00  0.00    +0.057 C 
ATOM     11  C   UNL     1      33.761 -23.046 -16.595  0.00  0.00    +0.050 C 
ATOM     12  C   UNL     1      32.386 -22.853 -16.731  0.00  0.00    +0.018 C 
ATOM     13  C   UNL     1      33.415 -23.991 -14.397  0.00  0.00    +0.006 C 
ATOM     14  C   UNL     1      34.275 -23.614 -15.431  0.00  0.00    +0.015 C 
ATOM     15  C   UNL     1      30.078 -23.027 -15.841  0.00  0.00    +0.249 C 
ATOM     16  C   UNL     1      31.138 -24.203 -13.425  0.00  0.00    +0.252 C 
ATOM     17  C   UNL     1      29.161 -23.433 -14.727  0.00  0.00    +0.291 C 
ATOM     18  H   UNL     1      29.186 -24.255 -12.883  0.00  0.00    +0.158 HD
ENDBRANCH   2  11
BRANCH   3  19
ATOM     19  C   UNL     1      35.572 -21.657 -19.616  0.00  0.00    +0.095 C 
BRANCH  19  20
ATOM     20  C   UNL     1      36.443 -20.475 -19.199  0.00  0.00    +0.095 C 
BRANCH  20  23
ATOM     21  O   UNL     1      37.622 -18.911 -20.569  0.00  0.00    -0.275 OA
ATOM     22  N   UNL     1      35.329 -19.256 -20.953  0.00  0.00    -0.284 N 
ATOM     23  C   UNL     1      36.547 -19.445 -20.311  0.00  0.00    +0.227 C 
ATOM     24  H   UNL     1      34.575 -19.794 -20.619  0.00  0.00    +0.155 HD
BRANCH  22  25
ATOM     25  C   UNL     1      35.044 -18.383 -22.027  0.00  0.00    +0.053 C 
ATOM     26  C   UNL     1      35.326 -17.022 -21.915  0.00  0.00    +0.052 C 
ATOM     27  C   UNL     1      35.044 -16.160 -22.975  0.00  0.00    +0.140 C 
ATOM     28  C   UNL     1      34.478 -18.883 -23.200  0.00  0.00    +0.015 C 
ATOM     29  C   UNL     1      34.479 -16.661 -24.148  0.00  0.00    +0.037 C 
ATOM     30  C   UNL     1      34.196 -18.022 -24.261  0.00  0.00    +0.004 C 
BRANCH  27  31
ATOM     31  O   UNL     1      35.320 -14.832 -22.866  0.00  0.00    -0.472 OA
BRANCH  31  32
ATOM     32  C   UNL     1      34.208 -13.939 -22.835  0.00  0.00    +0.243 C 
BRANCH  32  34
ATOM     33  F   UNL     1      34.830 -13.785 -20.588  0.00  0.00    -0.230 F 
ATOM     34  C   UNL     1      33.739 -13.793 -21.405  0.00  0.00    +0.240 C 
ENDBRANCH  32  34
ENDBRANCH  31  32
ENDBRANCH  27  31
ENDBRANCH  22  25
ENDBRANCH  20  23
ENDBRANCH  19  20
ENDBRANCH   3  19
TORSDOF 8
ENDMDL
MODEL 5
REMARK VINA RESULT:     -11.8      4.512      7.615
REMARK  Name = 24883488
REMARK  8 active torsions:
REMARK  status: ('A' for Active; 'I' for Inactive)
REMARK    1  A    between atoms: N_2  and  C_11
REMARK    2  A    between atoms: C_3  and  C_19
REMARK    3  A    between atoms: C_19  and  C_20
REMARK    4  A    between atoms: C_20  and  C_23
REMARK    5  A    between atoms: N_22  and  C_25
REMARK    6  A    between atoms: C_27  and  O_31
REMARK    7  A    between atoms: O_31  and  C_32
REMARK    8  A    between atoms: C_32  and  C_34
REMARK                            x       y       z     vdW  Elec       q    Type
REMARK                         _______ _______ _______ _____ _____    ______ ____
ROOT
ATOM      1  O   UNL     1      33.504 -23.979 -17.283  0.00  0.00    -0.275 OA
ATOM      2  N   UNL     1      34.993 -22.225 -16.784  0.00  0.00    -0.284 N 
ATOM      3  C   UNL     1      33.958 -22.856 -17.484  0.00  0.00    +0.227 C 
ATOM      4  H   UNL     1      35.243 -21.328 -17.103  0.00  0.00    +0.155 HD
ENDROOT
BRANCH   2  11
ATOM      5  O   UNL     1      33.852 -24.125 -12.181  0.00  0.00    -0.282 OA
ATOM      6  O   UNL     1      39.183 -24.202 -12.404  0.00  0.00    -0.270 OA
ATOM      7  O   UNL     1      35.252 -25.035 -10.120  0.00  0.00    -0.266 OA
ATOM      8  N   UNL     1      37.231 -24.618 -11.261  0.00  0.00    -0.246 N 
ATOM      9  C   UNL     1      35.778 -23.644 -13.466  0.00  0.00    +0.049 C 
ATOM     10  C   UNL     1      37.172 -23.672 -13.508  0.00  0.00    +0.057 C 
ATOM     11  C   UNL     1      35.718 -22.705 -15.693  0.00  0.00    +0.050 C 
ATOM     12  C   UNL     1      35.047 -23.161 -14.557  0.00  0.00    +0.018 C 
ATOM     13  C   UNL     1      37.839 -23.213 -14.650  0.00  0.00    +0.006 C 
ATOM     14  C   UNL     1      37.111 -22.731 -15.739  0.00  0.00    +0.015 C 
ATOM     15  C   UNL     1      35.069 -24.124 -12.273  0.00  0.00    +0.249 C 
ATOM     16  C   UNL     1      37.956 -24.179 -12.363  0.00  0.00    +0.252 C 
ATOM     17  C   UNL     1      35.857 -24.639 -11.106  0.00  0.00    +0.291 C 
ATOM     18  H   UNL     1      37.758 -24.954 -10.501  0.00  0.00    +0.158 HD
ENDBRANCH   2  11
BRANCH   3  19
ATOM     19  C   UNL     1      33.422 -22.000 -18.619  0.00  0.00    +0.095 C 
BRANCH  19  20
ATOM     20  C   UNL     1      34.531 -21.165 -19.254  0.00  0.00    +0.095 C 
BRANCH  20  23
ATOM     21  O   UNL     1      32.776 -19.882 -20.249  0.00  0.00    -0.275 OA
ATOM     22  N   UNL     1      34.960 -19.660 -21.086  0.00  0.00    -0.284 N 
ATOM     23  C   UNL     1      33.969 -20.170 -20.256  0.00  0.00    +0.227 C 
ATOM     24  H   UNL     1      35.873 -19.995 -20.928  0.00  0.00    +0.155 HD
BRANCH  22  25
ATOM     25  C   UNL     1      34.815 -18.719 -22.130  0.00  0.00    +0.053 C 
ATOM     26  C   UNL     1      35.235 -17.401 -21.945  0.00  0.00    +0.052 C 
ATOM     27  C   UNL     1      35.091 -16.472 -22.975  0.00  0.00    +0.140 C 
ATOM     28  C   UNL     1      34.252 -19.107 -23.345  0.00  0.00    +0.015 C 
ATOM     29  C   UNL     1      34.527 -16.861 -24.191  0.00  0.00    +0.037 C 
ATOM     30  C   UNL     1      34.108 -18.178 -24.376  0.00  0.00    +0.004 C 
BRANCH  27  31
ATOM     31  O   UNL     1      35.500 -15.186 -22.795  0.00  0.00    -0.472 OA
BRANCH  31  32
ATOM     32  C   UNL     1      34.584 -14.297 -22.159  0.00  0.00    +0.243 C 
BRANCH  32  34
ATOM     33  F   UNL     1      32.987 -13.789 -23.787  0.00  0.00    -0.230 F 
ATOM     34  C   UNL     1      34.097 -13.289 -23.176  0.00  0.00    +0.240 C 
ENDBRANCH  32  34
ENDBRANCH  31  32
ENDBRANCH  27  31
ENDBRANCH  22  25
ENDBRANCH  20  23
ENDBRANCH  19  20
ENDBRANCH   3  19
TORSDOF 8
ENDMDL
MODEL 6
REMARK VINA RESULT:     -11.7      4.902     11.152
REMARK  Name = 24883488
REMARK  8 active torsions:
REMARK  status: ('A' for Active; 'I' for Inactive)
REMARK    1  A    between atoms: N_2  and  C_11
REMARK    2  A    between atoms: C_3  and  C_19
REMARK    3  A    between atoms: C_19  and  C_20
REMARK    4  A    between atoms: C_20  and  C_23
REMARK    5  A    between atoms: N_22  and  C_25
REMARK    6  A    between atoms: C_27  and  O_31
REMARK    7  A    between atoms: O_31  and  C_32
REMARK    8  A    between atoms: C_32  and  C_34
REMARK                            x       y       z     vdW  Elec       q    Type
REMARK                         _______ _______ _______ _____ _____    ______ ____
ROOT
ATOM      1  O   UNL     1      37.605 -18.897 -20.593  0.00  0.00    -0.275 OA
ATOM      2  N   UNL     1      35.314 -19.255 -21.000  0.00  0.00    -0.284 N 
ATOM      3  C   UNL     1      36.551 -19.491 -20.389  0.00  0.00    +0.227 C 
ATOM      4  H   UNL     1      34.580 -19.852 -20.728  0.00  0.00    +0.155 HD
ENDROOT
BRANCH   2  11
ATOM      5  O   UNL     1      34.913 -14.162 -21.029  0.00  0.00    -0.282 OA
ATOM      6  O   UNL     1      33.722 -15.652 -26.013  0.00  0.00    -0.270 OA
ATOM      7  O   UNL     1      34.293 -12.333 -22.847  0.00  0.00    -0.266 OA
ATOM      8  N   UNL     1      34.003 -13.995 -24.442  0.00  0.00    -0.246 N 
ATOM      9  C   UNL     1      34.655 -15.963 -22.539  0.00  0.00    +0.049 C 
ATOM     10  C   UNL     1      34.341 -16.335 -23.846  0.00  0.00    +0.057 C 
ATOM     11  C   UNL     1      34.989 -18.283 -21.946  0.00  0.00    +0.050 C 
ATOM     12  C   UNL     1      34.978 -16.935 -21.586  0.00  0.00    +0.018 C 
ATOM     13  C   UNL     1      34.353 -17.689 -24.202  0.00  0.00    +0.006 C 
ATOM     14  C   UNL     1      34.677 -18.660 -23.252  0.00  0.00    +0.015 C 
ATOM     15  C   UNL     1      34.645 -14.545 -22.157  0.00  0.00    +0.249 C 
ATOM     16  C   UNL     1      33.996 -15.320 -24.863  0.00  0.00    +0.252 C 
ATOM     17  C   UNL     1      34.296 -13.509 -23.182  0.00  0.00    +0.291 C 
ATOM     18  H   UNL     1      33.772 -13.323 -25.124  0.00  0.00    +0.158 HD
ENDBRANCH   2  11
BRANCH   3  19
ATOM     19  C   UNL     1      36.499 -20.650 -19.406  0.00  0.00    +0.095 C 
BRANCH  19  20
ATOM     20  C   UNL     1      35.080 -21.196 -19.269  0.00  0.00    +0.095 C 
BRANCH  20  23
ATOM     21  O   UNL     1      34.289 -23.243 -18.321  0.00  0.00    -0.275 OA
ATOM     22  N   UNL     1      35.812 -21.937 -17.097  0.00  0.00    -0.284 N 
ATOM     23  C   UNL     1      34.995 -22.249 -18.177  0.00  0.00    +0.227 C 
ATOM     24  H   UNL     1      36.327 -21.100 -17.170  0.00  0.00    +0.155 HD
BRANCH  22  25
ATOM     25  C   UNL     1      35.991 -22.676 -15.906  0.00  0.00    +0.053 C 
ATOM     26  C   UNL     1      37.278 -22.957 -15.446  0.00  0.00    +0.052 C 
ATOM     27  C   UNL     1      37.455 -23.688 -14.271  0.00  0.00    +0.140 C 
ATOM     28  C   UNL     1      34.882 -23.126 -15.191  0.00  0.00    +0.015 C 
ATOM     29  C   UNL     1      36.345 -24.137 -13.555  0.00  0.00    +0.037 C 
ATOM     30  C   UNL     1      35.058 -23.856 -14.015  0.00  0.00    +0.004 C 
BRANCH  27  31
ATOM     31  O   UNL     1      38.710 -23.962 -13.822  0.00  0.00    -0.472 OA
BRANCH  31  32
ATOM     32  C   UNL     1      38.937 -25.264 -13.285  0.00  0.00    +0.243 C 
BRANCH  32  34
ATOM     33  F   UNL     1      40.234 -25.458 -15.217  0.00  0.00    -0.230 F 
ATOM     34  C   UNL     1      40.188 -25.839 -13.910  0.00  0.00    +0.240 C 
ENDBRANCH  32  34
ENDBRANCH  31  32
ENDBRANCH  27  31
ENDBRANCH  22  25
ENDBRANCH  20  23
ENDBRANCH  19  20
ENDBRANCH   3  19
TORSDOF 8
ENDMDL
MODEL 7
REMARK VINA RESULT:     -11.7      6.089      9.771
REMARK  Name = 24883488
REMARK  8 active torsions:
REMARK  status: ('A' for Active; 'I' for Inactive)
REMARK    1  A    between atoms: N_2  and  C_11
REMARK    2  A    between atoms: C_3  and  C_19
REMARK    3  A    between atoms: C_19  and  C_20
REMARK    4  A    between atoms: C_20  and  C_23
REMARK    5  A    between atoms: N_22  and  C_25
REMARK    6  A    between atoms: C_27  and  O_31
REMARK    7  A    between atoms: O_31  and  C_32
REMARK    8  A    between atoms: C_32  and  C_34
REMARK                            x       y       z     vdW  Elec       q    Type
REMARK                         _______ _______ _______ _____ _____    ______ ____
ROOT
ATOM      1  O   UNL     1      35.652 -24.785 -15.353  0.00  0.00    -0.275 OA
ATOM      2  N   UNL     1      34.495 -23.182 -14.073  0.00  0.00    -0.284 N 
ATOM      3  C   UNL     1      35.621 -23.770 -14.663  0.00  0.00    +0.227 C 
ATOM      4  H   UNL     1      34.666 -22.379 -13.529  0.00  0.00    +0.155 HD
ENDROOT
BRANCH   2  11
ATOM      5  O   UNL     1      30.462 -21.942 -16.953  0.00  0.00    -0.282 OA
ATOM      6  O   UNL     1      28.664 -25.724 -13.645  0.00  0.00    -0.270 OA
ATOM      7  O   UNL     1      27.934 -22.734 -17.094  0.00  0.00    -0.266 OA
ATOM      8  N   UNL     1      28.294 -24.237 -15.361  0.00  0.00    -0.246 N 
ATOM      9  C   UNL     1      30.981 -23.421 -15.183  0.00  0.00    +0.049 C 
ATOM     10  C   UNL     1      30.495 -24.408 -14.326  0.00  0.00    +0.057 C 
ATOM     11  C   UNL     1      33.163 -23.588 -14.157  0.00  0.00    +0.050 C 
ATOM     12  C   UNL     1      32.316 -23.008 -15.100  0.00  0.00    +0.018 C 
ATOM     13  C   UNL     1      31.350 -24.987 -13.381  0.00  0.00    +0.006 C 
ATOM     14  C   UNL     1      32.682 -24.576 -13.299  0.00  0.00    +0.015 C 
ATOM     15  C   UNL     1      30.091 -22.808 -16.177  0.00  0.00    +0.249 C 
ATOM     16  C   UNL     1      29.088 -24.854 -14.401  0.00  0.00    +0.252 C 
ATOM     17  C   UNL     1      28.662 -23.253 -16.260  0.00  0.00    +0.291 C 
ATOM     18  H   UNL     1      27.357 -24.537 -15.406  0.00  0.00    +0.158 HD
ENDBRANCH   2  11
BRANCH   3  19
ATOM     19  C   UNL     1      36.903 -23.025 -14.331  0.00  0.00    +0.095 C 
BRANCH  19  20
ATOM     20  C   UNL     1      37.735 -22.768 -15.585  0.00  0.00    +0.095 C 
BRANCH  20  23
ATOM     21  O   UNL     1      37.401 -20.557 -16.430  0.00  0.00    -0.275 OA
ATOM     22  N   UNL     1      36.142 -22.322 -17.336  0.00  0.00    -0.284 N 
ATOM     23  C   UNL     1      37.074 -21.738 -16.486  0.00  0.00    +0.227 C 
ATOM     24  H   UNL     1      36.029 -23.297 -17.252  0.00  0.00    +0.155 HD
BRANCH  22  25
ATOM     25  C   UNL     1      35.337 -21.683 -18.306  0.00  0.00    +0.053 C 
ATOM     26  C   UNL     1      35.928 -20.898 -19.297  0.00  0.00    +0.052 C 
ATOM     27  C   UNL     1      35.133 -20.267 -20.254  0.00  0.00    +0.140 C 
ATOM     28  C   UNL     1      33.951 -21.837 -18.274  0.00  0.00    +0.015 C 
ATOM     29  C   UNL     1      33.747 -20.422 -20.221  0.00  0.00    +0.037 C 
ATOM     30  C   UNL     1      33.156 -21.207 -19.231  0.00  0.00    +0.004 C 
BRANCH  27  31
ATOM     31  O   UNL     1      35.709 -19.501 -21.220  0.00  0.00    -0.472 OA
BRANCH  31  32
ATOM     32  C   UNL     1      34.971 -18.369 -21.677  0.00  0.00    +0.243 C 
BRANCH  32  34
ATOM     33  F   UNL     1      35.069 -19.799 -23.522  0.00  0.00    -0.230 F 
ATOM     34  C   UNL     1      34.600 -18.582 -23.128  0.00  0.00    +0.240 C 
ENDBRANCH  32  34
ENDBRANCH  31  32
ENDBRANCH  27  31
ENDBRANCH  22  25
ENDBRANCH  20  23
ENDBRANCH  19  20
ENDBRANCH   3  19
TORSDOF 8
ENDMDL
MODEL 8
REMARK VINA RESULT:     -11.7      4.536     10.262
REMARK  Name = 24883488
REMARK  8 active torsions:
REMARK  status: ('A' for Active; 'I' for Inactive)
REMARK    1  A    between atoms: N_2  and  C_11
REMARK    2  A    between atoms: C_3  and  C_19
REMARK    3  A    between atoms: C_19  and  C_20
REMARK    4  A    between atoms: C_20  and  C_23
REMARK    5  A    between atoms: N_22  and  C_25
REMARK    6  A    between atoms: C_27  and  O_31
REMARK    7  A    between atoms: O_31  and  C_32
REMARK    8  A    between atoms: C_32  and  C_34
REMARK                            x       y       z     vdW  Elec       q    Type
REMARK                         _______ _______ _______ _____ _____    ______ ____
ROOT
ATOM      1  O   UNL     1      37.201 -19.542 -19.352  0.00  0.00    -0.275 OA
ATOM      2  N   UNL     1      35.191 -20.101 -20.444  0.00  0.00    -0.284 N 
ATOM      3  C   UNL     1      36.215 -20.258 -19.502  0.00  0.00    +0.227 C 
ATOM      4  H   UNL     1      34.489 -20.791 -20.434  0.00  0.00    +0.155 HD
ENDROOT
BRANCH   2  11
ATOM      5  O   UNL     1      34.904 -15.001 -20.363  0.00  0.00    -0.282 OA
ATOM      6  O   UNL     1      34.482 -16.309 -25.520  0.00  0.00    -0.270 OA
ATOM      7  O   UNL     1      34.616 -13.103 -22.193  0.00  0.00    -0.266 OA
ATOM      8  N   UNL     1      34.547 -14.708 -23.869  0.00  0.00    -0.246 N 
ATOM      9  C   UNL     1      34.850 -16.749 -21.955  0.00  0.00    +0.049 C 
ATOM     10  C   UNL     1      34.739 -17.073 -23.307  0.00  0.00    +0.057 C 
ATOM     11  C   UNL     1      35.039 -19.093 -21.396  0.00  0.00    +0.050 C 
ATOM     12  C   UNL     1      35.000 -17.757 -20.996  0.00  0.00    +0.018 C 
ATOM     13  C   UNL     1      34.778 -18.415 -23.702  0.00  0.00    +0.006 C 
ATOM     14  C   UNL     1      34.929 -19.422 -22.746  0.00  0.00    +0.015 C 
ATOM     15  C   UNL     1      34.810 -15.343 -21.531  0.00  0.00    +0.249 C 
ATOM     16  C   UNL     1      34.579 -16.019 -24.331  0.00  0.00    +0.252 C 
ATOM     17  C   UNL     1      34.647 -14.267 -22.562  0.00  0.00    +0.291 C 
ATOM     18  H   UNL     1      34.440 -14.010 -24.555  0.00  0.00    +0.158 HD
ENDBRANCH   2  11
BRANCH   3  19
ATOM     19  C   UNL     1      36.021 -21.493 -18.638  0.00  0.00    +0.095 C 
BRANCH  19  20
ATOM     20  C   UNL     1      34.855 -22.341 -19.138  0.00  0.00    +0.095 C 
BRANCH  20  23
ATOM     21  O   UNL     1      32.636 -21.809 -18.426  0.00  0.00    -0.275 OA
ATOM     22  N   UNL     1      34.034 -23.022 -16.978  0.00  0.00    -0.284 N 
ATOM     23  C   UNL     1      33.705 -22.342 -18.144  0.00  0.00    +0.227 C 
ATOM     24  H   UNL     1      34.940 -23.407 -16.941  0.00  0.00    +0.155 HD
BRANCH  22  25
ATOM     25  C   UNL     1      33.223 -23.228 -15.839  0.00  0.00    +0.053 C 
ATOM     26  C   UNL     1      31.834 -23.153 -15.948  0.00  0.00    +0.052 C 
ATOM     27  C   UNL     1      31.034 -23.355 -14.823  0.00  0.00    +0.140 C 
ATOM     28  C   UNL     1      33.811 -23.507 -14.605  0.00  0.00    +0.015 C 
ATOM     29  C   UNL     1      31.623 -23.634 -13.589  0.00  0.00    +0.037 C 
ATOM     30  C   UNL     1      33.012 -23.710 -13.480  0.00  0.00    +0.004 C 
BRANCH  27  31
ATOM     31  O   UNL     1      29.679 -23.282 -14.929  0.00  0.00    -0.472 OA
BRANCH  31  32
ATOM     32  C   UNL     1      29.153 -22.609 -16.072  0.00  0.00    +0.243 C 
BRANCH  32  34
ATOM     33  F   UNL     1      28.193 -24.710 -16.420  0.00  0.00    -0.230 F 
ATOM     34  C   UNL     1      27.955 -23.379 -16.582  0.00  0.00    +0.240 C 
ENDBRANCH  32  34
ENDBRANCH  31  32
ENDBRANCH  27  31
ENDBRANCH  22  25
ENDBRANCH  20  23
ENDBRANCH  19  20
ENDBRANCH   3  19
TORSDOF 8
ENDMDL
MODEL 9
REMARK VINA RESULT:     -11.6      4.737     10.624
REMARK  Name = 24883488
REMARK  8 active torsions:
REMARK  status: ('A' for Active; 'I' for Inactive)
REMARK    1  A    between atoms: N_2  and  C_11
REMARK    2  A    between atoms: C_3  and  C_19
REMARK    3  A    between atoms: C_19  and  C_20
REMARK    4  A    between atoms: C_20  and  C_23
REMARK    5  A    between atoms: N_22  and  C_25
REMARK    6  A    between atoms: C_27  and  O_31
REMARK    7  A    between atoms: O_31  and  C_32
REMARK    8  A    between atoms: C_32  and  C_34
REMARK                            x       y       z     vdW  Elec       q    Type
REMARK                         _______ _______ _______ _____ _____    ______ ____
ROOT
ATOM      1  O   UNL     1      37.175 -19.421 -19.379  0.00  0.00    -0.275 OA
ATOM      2  N   UNL     1      35.214 -20.069 -20.510  0.00  0.00    -0.284 N 
ATOM      3  C   UNL     1      36.226 -20.180 -19.549  0.00  0.00    +0.227 C 
ATOM      4  H   UNL     1      34.544 -20.790 -20.515  0.00  0.00    +0.155 HD
ENDROOT
BRANCH   2  11
ATOM      5  O   UNL     1      34.955 -14.967 -20.456  0.00  0.00    -0.282 OA
ATOM      6  O   UNL     1      34.353 -16.308 -25.586  0.00  0.00    -0.270 OA
ATOM      7  O   UNL     1      34.615 -13.079 -22.289  0.00  0.00    -0.266 OA
ATOM      8  N   UNL     1      34.480 -14.696 -23.950  0.00  0.00    -0.246 N 
ATOM      9  C   UNL     1      34.839 -16.725 -22.033  0.00  0.00    +0.049 C 
ATOM     10  C   UNL     1      34.680 -17.058 -23.378  0.00  0.00    +0.057 C 
ATOM     11  C   UNL     1      35.035 -19.066 -21.464  0.00  0.00    +0.050 C 
ATOM     12  C   UNL     1      35.016 -17.727 -21.073  0.00  0.00    +0.018 C 
ATOM     13  C   UNL     1      34.700 -18.403 -23.765  0.00  0.00    +0.006 C 
ATOM     14  C   UNL     1      34.878 -19.404 -22.807  0.00  0.00    +0.015 C 
ATOM     15  C   UNL     1      34.820 -15.316 -21.618  0.00  0.00    +0.249 C 
ATOM     16  C   UNL     1      34.491 -16.010 -24.403  0.00  0.00    +0.252 C 
ATOM     17  C   UNL     1      34.628 -14.247 -22.651  0.00  0.00    +0.291 C 
ATOM     18  H   UNL     1      34.354 -14.002 -24.637  0.00  0.00    +0.158 HD
ENDBRANCH   2  11
BRANCH   3  19
ATOM     19  C   UNL     1      36.072 -21.425 -18.690  0.00  0.00    +0.095 C 
BRANCH  19  20
ATOM     20  C   UNL     1      34.942 -22.315 -19.203  0.00  0.00    +0.095 C 
BRANCH  20  23
ATOM     21  O   UNL     1      32.677 -21.977 -18.517  0.00  0.00    -0.275 OA
ATOM     22  N   UNL     1      34.188 -22.958 -17.007  0.00  0.00    -0.284 N 
ATOM     23  C   UNL     1      33.795 -22.380 -18.208  0.00  0.00    +0.227 C 
ATOM     24  H   UNL     1      35.129 -23.243 -16.950  0.00  0.00    +0.155 HD
BRANCH  22  25
ATOM     25  C   UNL     1      33.398 -23.184 -15.857  0.00  0.00    +0.053 C 
ATOM     26  C   UNL     1      34.003 -23.565 -14.659  0.00  0.00    +0.052 C 
ATOM     27  C   UNL     1      33.223 -23.789 -13.524  0.00  0.00    +0.140 C 
ATOM     28  C   UNL     1      32.014 -23.026 -15.920  0.00  0.00    +0.015 C 
ATOM     29  C   UNL     1      31.838 -23.630 -13.587  0.00  0.00    +0.037 C 
ATOM     30  C   UNL     1      31.233 -23.249 -14.785  0.00  0.00    +0.004 C 
BRANCH  27  31
ATOM     31  O   UNL     1      33.812 -24.161 -12.355  0.00  0.00    -0.472 OA
BRANCH  31  32
ATOM     32  C   UNL     1      35.238 -24.210 -12.334  0.00  0.00    +0.243 C 
BRANCH  32  34
ATOM     33  F   UNL     1      36.551 -22.769 -11.047  0.00  0.00    -0.230 F 
ATOM     34  C   UNL     1      35.718 -23.843 -10.948  0.00  0.00    +0.240 C 
ENDBRANCH  32  34
ENDBRANCH  31  32
ENDBRANCH  27  31
ENDBRANCH  22  25
ENDBRANCH  20  23
ENDBRANCH  19  20
ENDBRANCH   3  19
TORSDOF 8
ENDMDL
