MODEL 1
REMARK VINA RESULT:     -12.4      0.000      0.000
REMARK  Name = 9889200
REMARK  5 active torsions:
REMARK  status: ('A' for Active; 'I' for Inactive)
REMARK    1  A    between atoms: C_1  and  C_21
REMARK    2  A    between atoms: C_4  and  O_7
REMARK    3  A    between atoms: O_7  and  C_8
REMARK    4  A    between atoms: C_8  and  C_12
REMARK    5  A    between atoms: C_21  and  C_26
REMARK                            x       y       z     vdW  Elec       q    Type
REMARK                         _______ _______ _______ _____ _____    ______ ____
ROOT
ATOM      1  C   UNL     1      35.494 -19.752 -20.324  0.00  0.00    -0.021 C 
ATOM      2  C   UNL     1      34.133 -20.043 -20.242  0.00  0.00    -0.001 C 
ATOM      3  C   UNL     1      36.423 -20.572 -19.685  0.00  0.00    -0.001 C 
ATOM      4  C   UNL     1      34.634 -21.966 -18.887  0.00  0.00    +0.139 C 
ATOM      5  C   UNL     1      33.700 -21.156 -19.519  0.00  0.00    +0.037 C 
ATOM      6  C   UNL     1      35.992 -21.684 -18.964  0.00  0.00    +0.037 C 
ENDROOT
BRANCH   4   7
ATOM      7  O   UNL     1      34.208 -23.063 -18.176  0.00  0.00    -0.466 OA
BRANCH   7   8
ATOM      8  C   UNL     1      33.310 -22.834 -17.112  0.00  0.00    +0.279 C 
BRANCH   8  12
ATOM      9  O   UNL     1      32.938 -24.281 -12.517  0.00  0.00    -0.274 OA
ATOM     10  N   UNL     1      33.095 -23.577 -14.744  0.00  0.00    -0.232 N 
ATOM     11  N   UNL     1      35.227 -23.415 -15.784  0.00  0.00    -0.391 NA
ATOM     12  C   UNL     1      33.936 -23.300 -15.820  0.00  0.00    +0.210 C 
ATOM     13  C   UNL     1      35.076 -24.152 -13.453  0.00  0.00    +0.151 C 
ATOM     14  C   UNL     1      35.824 -23.846 -14.592  0.00  0.00    +0.123 C 
ATOM     15  C   UNL     1      33.605 -24.015 -13.512  0.00  0.00    +0.241 C 
ATOM     16  C   UNL     1      31.645 -23.421 -14.866  0.00  0.00    +0.122 C 
ATOM     17  C   UNL     1      35.703 -24.580 -12.278  0.00  0.00    -0.010 C 
ATOM     18  C   UNL     1      37.217 -23.974 -14.540  0.00  0.00    +0.028 C 
ATOM     19  C   UNL     1      37.091 -24.704 -12.241  0.00  0.00    -0.004 C 
ATOM     20  C   UNL     1      37.848 -24.402 -13.371  0.00  0.00    +0.002 C 
ENDBRANCH   8  12
ENDBRANCH   7   8
ENDBRANCH   4   7
BRANCH   1  21
ATOM     21  C   UNL     1      35.956 -18.562 -21.095  0.00  0.00    +0.047 C 
BRANCH  21  26
ATOM     22  S   UNL     1      34.673 -18.282 -23.524  0.00  0.00    -0.048 S 
ATOM     23  O   UNL     1      35.181 -15.681 -20.718  0.00  0.00    -0.274 OA
ATOM     24  O   UNL     1      34.767 -16.321 -25.274  0.00  0.00    -0.263 OA
ATOM     25  N   UNL     1      34.982 -15.797 -23.020  0.00  0.00    -0.246 N 
ATOM     26  C   UNL     1      34.800 -17.825 -21.768  0.00  0.00    +0.137 C 
ATOM     27  C   UNL     1      35.011 -16.327 -21.747  0.00  0.00    +0.239 C 
ATOM     28  C   UNL     1      34.813 -16.632 -24.093  0.00  0.00    +0.279 C 
ATOM     29  H   UNL     1      35.081 -14.826 -23.155  0.00  0.00    +0.158 HD
ENDBRANCH  21  26
ENDBRANCH   1  21
TORSDOF 5
ENDMDL
MODEL 2
REMARK VINA RESULT:     -12.3      1.053      2.959
REMARK  Name = 9889200
REMARK  5 active torsions:
REMARK  status: ('A' for Active; 'I' for Inactive)
REMARK    1  A    between atoms: C_1  and  C_21
REMARK    2  A    between atoms: C_4  and  O_7
REMARK    3  A    between atoms: O_7  and  C_8
REMARK    4  A    between atoms: C_8  and  C_12
REMARK    5  A    between atoms: C_21  and  C_26
REMARK                            x       y       z     vdW  Elec       q    Type
REMARK                         _______ _______ _______ _____ _____    ______ ____
ROOT
ATOM      1  C   UNL     1      35.697 -19.622 -20.487  0.00  0.00    -0.021 C 
ATOM      2  C   UNL     1      34.357 -19.981 -20.346  0.00  0.00    -0.001 C 
ATOM      3  C   UNL     1      36.679 -20.284 -19.751  0.00  0.00    -0.001 C 
ATOM      4  C   UNL     1      34.983 -21.655 -18.737  0.00  0.00    +0.139 C 
ATOM      5  C   UNL     1      33.998 -21.003 -19.466  0.00  0.00    +0.037 C 
ATOM      6  C   UNL     1      36.320 -21.306 -18.872  0.00  0.00    +0.037 C 
ENDROOT
BRANCH   4   7
ATOM      7  O   UNL     1      34.630 -22.663 -17.872  0.00  0.00    -0.466 OA
BRANCH   7   8
ATOM      8  C   UNL     1      35.141 -22.595 -16.559  0.00  0.00    +0.279 C 
BRANCH   8  12
ATOM      9  O   UNL     1      33.935 -24.380 -12.233  0.00  0.00    -0.274 OA
ATOM     10  N   UNL     1      34.542 -23.514 -14.322  0.00  0.00    -0.232 N 
ATOM     11  N   UNL     1      32.886 -23.221 -16.004  0.00  0.00    -0.391 NA
ATOM     12  C   UNL     1      34.114 -23.137 -15.593  0.00  0.00    +0.210 C 
ATOM     13  C   UNL     1      32.240 -24.128 -13.823  0.00  0.00    +0.151 C 
ATOM     14  C   UNL     1      31.921 -23.721 -15.121  0.00  0.00    +0.123 C 
ATOM     15  C   UNL     1      33.644 -24.025 -13.372  0.00  0.00    +0.241 C 
ATOM     16  C   UNL     1      35.946 -23.389 -13.935  0.00  0.00    +0.122 C 
ATOM     17  C   UNL     1      31.252 -24.624 -12.966  0.00  0.00    -0.010 C 
ATOM     18  C   UNL     1      30.594 -23.817 -15.553  0.00  0.00    +0.028 C 
ATOM     19  C   UNL     1      29.933 -24.713 -13.409  0.00  0.00    -0.004 C 
ATOM     20  C   UNL     1      29.604 -24.310 -14.702  0.00  0.00    +0.002 C 
ENDBRANCH   8  12
ENDBRANCH   7   8
ENDBRANCH   4   7
BRANCH   1  21
ATOM     21  C   UNL     1      36.080 -18.529 -21.427  0.00  0.00    +0.047 C 
BRANCH  21  26
ATOM     22  S   UNL     1      34.646 -18.201 -23.764  0.00  0.00    -0.048 S 
ATOM     23  O   UNL     1      35.237 -15.693 -20.890  0.00  0.00    -0.274 OA
ATOM     24  O   UNL     1      34.573 -16.173 -25.436  0.00  0.00    -0.263 OA
ATOM     25  N   UNL     1      34.905 -15.728 -23.179  0.00  0.00    -0.246 N 
ATOM     26  C   UNL     1      34.863 -17.807 -22.001  0.00  0.00    +0.137 C 
ATOM     27  C   UNL     1      35.027 -16.305 -21.932  0.00  0.00    +0.239 C 
ATOM     28  C   UNL     1      34.700 -16.527 -24.273  0.00  0.00    +0.279 C 
ATOM     29  H   UNL     1      34.965 -14.750 -23.281  0.00  0.00    +0.158 HD
ENDBRANCH  21  26
ENDBRANCH   1  21
TORSDOF 5
ENDMDL
MODEL 3
REMARK VINA RESULT:     -11.9      4.404     11.467
REMARK  Name = 9889200
REMARK  5 active torsions:
REMARK  status: ('A' for Active; 'I' for Inactive)
REMARK    1  A    between atoms: C_1  and  C_21
REMARK    2  A    between atoms: C_4  and  O_7
REMARK    3  A    between atoms: O_7  and  C_8
REMARK    4  A    between atoms: C_8  and  C_12
REMARK    5  A    between atoms: C_21  and  C_26
REMARK                            x       y       z     vdW  Elec       q    Type
REMARK                         _______ _______ _______ _____ _____    ______ ____
ROOT
ATOM      1  C   UNL     1      34.982 -18.518 -21.756  0.00  0.00    -0.021 C 
ATOM      2  C   UNL     1      34.710 -18.157 -23.075  0.00  0.00    -0.001 C 
ATOM      3  C   UNL     1      35.268 -17.536 -20.808  0.00  0.00    -0.001 C 
ATOM      4  C   UNL     1      35.011 -15.842 -22.496  0.00  0.00    +0.139 C 
ATOM      5  C   UNL     1      34.725 -16.812 -23.447  0.00  0.00    +0.037 C 
ATOM      6  C   UNL     1      35.282 -16.192 -21.179  0.00  0.00    +0.037 C 
ENDROOT
BRANCH   4   7
ATOM      7  O   UNL     1      35.024 -14.518 -22.862  0.00  0.00    -0.466 OA
BRANCH   7   8
ATOM      8  C   UNL     1      33.902 -14.032 -23.567  0.00  0.00    +0.279 C 
BRANCH   8  12
ATOM      9  O   UNL     1      33.109  -9.267 -23.683  0.00  0.00    -0.274 OA
ATOM     10  N   UNL     1      33.503 -11.574 -23.648  0.00  0.00    -0.232 N 
ATOM     11  N   UNL     1      32.944 -12.839 -21.713  0.00  0.00    -0.391 NA
ATOM     12  C   UNL     1      33.416 -12.758 -22.919  0.00  0.00    +0.210 C 
ATOM     13  C   UNL     1      32.528 -10.425 -21.737  0.00  0.00    +0.151 C 
ATOM     14  C   UNL     1      32.489 -11.666 -21.097  0.00  0.00    +0.123 C 
ATOM     15  C   UNL     1      33.069 -10.352 -23.111  0.00  0.00    +0.241 C 
ATOM     16  C   UNL     1      34.049 -11.568 -25.005  0.00  0.00    +0.122 C 
ATOM     17  C   UNL     1      32.065  -9.273 -21.094  0.00  0.00    -0.010 C 
ATOM     18  C   UNL     1      31.977 -11.740 -19.796  0.00  0.00    +0.028 C 
ATOM     19  C   UNL     1      31.557  -9.361 -19.798  0.00  0.00    -0.004 C 
ATOM     20  C   UNL     1      31.513 -10.594 -19.150  0.00  0.00    +0.002 C 
ENDBRANCH   8  12
ENDBRANCH   7   8
ENDBRANCH   4   7
BRANCH   1  21
ATOM     21  C   UNL     1      34.968 -19.955 -21.359  0.00  0.00    +0.047 C 
BRANCH  21  26
ATOM     22  S   UNL     1      35.464 -21.417 -19.070  0.00  0.00    -0.048 S 
ATOM     23  O   UNL     1      32.111 -20.072 -20.428  0.00  0.00    -0.274 OA
ATOM     24  O   UNL     1      34.160 -23.459 -18.048  0.00  0.00    -0.263 OA
ATOM     25  N   UNL     1      32.949 -21.846 -19.203  0.00  0.00    -0.246 N 
ATOM     26  C   UNL     1      34.475 -20.155 -19.927  0.00  0.00    +0.137 C 
ATOM     27  C   UNL     1      33.049 -20.659 -19.898  0.00  0.00    +0.239 C 
ATOM     28  C   UNL     1      34.080 -22.418 -18.682  0.00  0.00    +0.279 C 
ATOM     29  H   UNL     1      32.072 -22.278 -19.082  0.00  0.00    +0.158 HD
ENDBRANCH  21  26
ENDBRANCH   1  21
TORSDOF 5
ENDMDL
MODEL 4
REMARK VINA RESULT:     -11.9      3.189     10.360
REMARK  Name = 9889200
REMARK  5 active torsions:
REMARK  status: ('A' for Active; 'I' for Inactive)
REMARK    1  A    between atoms: C_1  and  C_21
REMARK    2  A    between atoms: C_4  and  O_7
REMARK    3  A    between atoms: O_7  and  C_8
REMARK    4  A    between atoms: C_8  and  C_12
REMARK    5  A    between atoms: C_21  and  C_26
REMARK                            x       y       z     vdW  Elec       q    Type
REMARK                         _______ _______ _______ _____ _____    ______ ____
ROOT
ATOM      1  C   UNL     1      33.969 -22.281 -18.283  0.00  0.00    -0.021 C 
ATOM      2  C   UNL     1      35.345 -22.061 -18.337  0.00  0.00    -0.001 C 
ATOM      3  C   UNL     1      33.108 -21.506 -19.059  0.00  0.00    -0.001 C 
ATOM      4  C   UNL     1      34.994 -20.299 -19.935  0.00  0.00    +0.139 C 
ATOM      5  C   UNL     1      35.860 -21.064 -19.167  0.00  0.00    +0.037 C 
ATOM      6  C   UNL     1      33.622 -20.511 -19.890  0.00  0.00    +0.037 C 
ENDROOT
BRANCH   4   7
ATOM      7  O   UNL     1      35.501 -19.318 -20.754  0.00  0.00    -0.466 OA
BRANCH   7   8
ATOM      8  C   UNL     1      35.174 -19.390 -22.125  0.00  0.00    +0.279 C 
BRANCH   8  12
ATOM      9  O   UNL     1      33.425 -16.463 -25.549  0.00  0.00    -0.274 OA
ATOM     10  N   UNL     1      34.270 -17.899 -23.905  0.00  0.00    -0.232 N 
ATOM     11  N   UNL     1      35.015 -17.009 -21.829  0.00  0.00    -0.391 NA
ATOM     12  C   UNL     1      34.807 -18.013 -22.624  0.00  0.00    +0.210 C 
ATOM     13  C   UNL     1      34.134 -15.497 -23.542  0.00  0.00    +0.151 C 
ATOM     14  C   UNL     1      34.681 -15.725 -22.277  0.00  0.00    +0.123 C 
ATOM     15  C   UNL     1      33.904 -16.652 -24.435  0.00  0.00    +0.241 C 
ATOM     16  C   UNL     1      34.067 -19.082 -24.740  0.00  0.00    +0.122 C 
ATOM     17  C   UNL     1      33.811 -14.201 -23.959  0.00  0.00    -0.010 C 
ATOM     18  C   UNL     1      34.900 -14.634 -21.429  0.00  0.00    +0.028 C 
ATOM     19  C   UNL     1      34.034 -13.123 -23.103  0.00  0.00    -0.004 C 
ATOM     20  C   UNL     1      34.579 -13.339 -21.839  0.00  0.00    +0.002 C 
ENDBRANCH   8  12
ENDBRANCH   7   8
ENDBRANCH   4   7
BRANCH   1  21
ATOM     21  C   UNL     1      33.419 -23.345 -17.395  0.00  0.00    +0.047 C 
BRANCH  21  26
ATOM     22  S   UNL     1      33.856 -23.660 -14.687  0.00  0.00    -0.048 S 
ATOM     23  O   UNL     1      30.633 -22.612 -16.533  0.00  0.00    -0.274 OA
ATOM     24  O   UNL     1      32.360 -24.803 -12.851  0.00  0.00    -0.263 OA
ATOM     25  N   UNL     1      31.304 -23.736 -14.626  0.00  0.00    -0.246 N 
ATOM     26  C   UNL     1      32.992 -22.798 -16.034  0.00  0.00    +0.137 C 
ATOM     27  C   UNL     1      31.516 -23.023 -15.787  0.00  0.00    +0.239 C 
ATOM     28  C   UNL     1      32.380 -24.164 -13.893  0.00  0.00    +0.279 C 
ATOM     29  H   UNL     1      30.387 -23.934 -14.326  0.00  0.00    +0.158 HD
ENDBRANCH  21  26
ENDBRANCH   1  21
TORSDOF 5
ENDMDL
MODEL 5
REMARK VINA RESULT:     -11.4      1.676      3.070
REMARK  Name = 9889200
REMARK  5 active torsions:
REMARK  status: ('A' for Active; 'I' for Inactive)
REMARK    1  A    between atoms: C_1  and  C_21
REMARK    2  A    between atoms: C_4  and  O_7
REMARK    3  A    between atoms: O_7  and  C_8
REMARK    4  A    between atoms: C_8  and  C_12
REMARK    5  A    between atoms: C_21  and  C_26
REMARK                            x       y       z     vdW  Elec       q    Type
REMARK                         _______ _______ _______ _____ _____    ______ ____
ROOT
ATOM      1  C   UNL     1      35.791 -18.844 -20.861  0.00  0.00    -0.021 C 
ATOM      2  C   UNL     1      34.508 -19.370 -20.717  0.00  0.00    -0.001 C 
ATOM      3  C   UNL     1      36.872 -19.455 -20.226  0.00  0.00    -0.001 C 
ATOM      4  C   UNL     1      35.387 -21.109 -19.308  0.00  0.00    +0.139 C 
ATOM      5  C   UNL     1      34.305 -20.509 -19.936  0.00  0.00    +0.037 C 
ATOM      6  C   UNL     1      36.670 -20.593 -19.446  0.00  0.00    +0.037 C 
ENDROOT
BRANCH   4   7
ATOM      7  O   UNL     1      35.188 -22.232 -18.540  0.00  0.00    -0.466 OA
BRANCH   7   8
ATOM      8  C   UNL     1      35.864 -22.296 -17.304  0.00  0.00    +0.279 C 
BRANCH   8  12
ATOM      9  O   UNL     1      34.972 -23.890 -12.830  0.00  0.00    -0.274 OA
ATOM     10  N   UNL     1      35.427 -23.119 -14.993  0.00  0.00    -0.232 N 
ATOM     11  N   UNL     1      33.641 -22.776 -16.525  0.00  0.00    -0.391 NA
ATOM     12  C   UNL     1      34.904 -22.751 -16.231  0.00  0.00    +0.210 C 
ATOM     13  C   UNL     1      33.152 -23.585 -14.265  0.00  0.00    +0.151 C 
ATOM     14  C   UNL     1      32.736 -23.196 -15.541  0.00  0.00    +0.123 C 
ATOM     15  C   UNL     1      34.596 -23.551 -13.948  0.00  0.00    +0.241 C 
ATOM     16  C   UNL     1      36.867 -23.064 -14.741  0.00  0.00    +0.122 C 
ATOM     17  C   UNL     1      32.223 -23.999 -13.305  0.00  0.00    -0.010 C 
ATOM     18  C   UNL     1      31.371 -23.226 -15.845  0.00  0.00    +0.028 C 
ATOM     19  C   UNL     1      30.866 -24.024 -13.622  0.00  0.00    -0.004 C 
ATOM     20  C   UNL     1      30.440 -23.638 -14.891  0.00  0.00    +0.002 C 
ENDBRANCH   8  12
ENDBRANCH   7   8
ENDBRANCH   4   7
BRANCH   1  21
ATOM     21  C   UNL     1      36.008 -17.627 -21.695  0.00  0.00    +0.047 C 
BRANCH  21  26
ATOM     22  S   UNL     1      34.656 -15.841 -23.310  0.00  0.00    -0.048 S 
ATOM     23  O   UNL     1      35.002 -15.877 -19.466  0.00  0.00    -0.274 OA
ATOM     24  O   UNL     1      34.550 -13.215 -23.214  0.00  0.00    -0.263 OA
ATOM     25  N   UNL     1      34.766 -14.382 -21.215  0.00  0.00    -0.246 N 
ATOM     26  C   UNL     1      34.781 -16.718 -21.722  0.00  0.00    +0.137 C 
ATOM     27  C   UNL     1      34.866 -15.642 -20.662  0.00  0.00    +0.239 C 
ATOM     28  C   UNL     1      34.646 -14.252 -22.574  0.00  0.00    +0.279 C 
ATOM     29  H   UNL     1      34.780 -13.584 -20.638  0.00  0.00    +0.158 HD
ENDBRANCH  21  26
ENDBRANCH   1  21
TORSDOF 5
ENDMDL
MODEL 6
REMARK VINA RESULT:     -11.1      4.659     11.637
REMARK  Name = 9889200
REMARK  5 active torsions:
REMARK  status: ('A' for Active; 'I' for Inactive)
REMARK    1  A    between atoms: C_1  and  C_21
REMARK    2  A    between atoms: C_4  and  O_7
REMARK    3  A    between atoms: O_7  and  C_8
REMARK    4  A    between atoms: C_8  and  C_12
REMARK    5  A    between atoms: C_21  and  C_26
REMARK                            x       y       z     vdW  Elec       q    Type
REMARK                         _______ _______ _______ _____ _____    ______ ____
ROOT
ATOM      1  C   UNL     1      35.135 -18.372 -21.500  0.00  0.00    -0.021 C 
ATOM      2  C   UNL     1      34.955 -17.975 -22.824  0.00  0.00    -0.001 C 
ATOM      3  C   UNL     1      35.232 -17.415 -20.491  0.00  0.00    -0.001 C 
ATOM      4  C   UNL     1      34.971 -15.673 -22.128  0.00  0.00    +0.139 C 
ATOM      5  C   UNL     1      34.873 -16.618 -23.140  0.00  0.00    +0.037 C 
ATOM      6  C   UNL     1      35.149 -16.059 -20.806  0.00  0.00    +0.037 C 
ENDROOT
BRANCH   4   7
ATOM      7  O   UNL     1      34.888 -14.337 -22.439  0.00  0.00    -0.466 OA
BRANCH   7   8
ATOM      8  C   UNL     1      33.734 -13.904 -23.125  0.00  0.00    +0.279 C 
BRANCH   8  12
ATOM      9  O   UNL     1      31.489 -10.964 -20.016  0.00  0.00    -0.274 OA
ATOM     10  N   UNL     1      32.568 -12.407 -21.510  0.00  0.00    -0.232 N 
ATOM     11  N   UNL     1      33.798 -11.510 -23.337  0.00  0.00    -0.391 NA
ATOM     12  C   UNL     1      33.360 -12.520 -22.651  0.00  0.00    +0.210 C 
ATOM     13  C   UNL     1      32.673  -9.991 -21.781  0.00  0.00    +0.151 C 
ATOM     14  C   UNL     1      33.460 -10.219 -22.912  0.00  0.00    +0.123 C 
ATOM     15  C   UNL     1      32.182 -11.153 -21.011  0.00  0.00    +0.241 C 
ATOM     16  C   UNL     1      32.113 -13.597 -20.792  0.00  0.00    +0.122 C 
ATOM     17  C   UNL     1      32.353  -8.688 -21.382  0.00  0.00    -0.010 C 
ATOM     18  C   UNL     1      33.927  -9.121 -23.643  0.00  0.00    +0.028 C 
ATOM     19  C   UNL     1      32.826  -7.604 -22.120  0.00  0.00    -0.004 C 
ATOM     20  C   UNL     1      33.612  -7.820 -23.250  0.00  0.00    +0.002 C 
ENDBRANCH   8  12
ENDBRANCH   7   8
ENDBRANCH   4   7
BRANCH   1  21
ATOM     21  C   UNL     1      35.224 -19.822 -21.163  0.00  0.00    +0.047 C 
BRANCH  21  26
ATOM     22  S   UNL     1      35.438 -21.543 -19.014  0.00  0.00    -0.048 S 
ATOM     23  O   UNL     1      32.293 -19.862 -20.490  0.00  0.00    -0.274 OA
ATOM     24  O   UNL     1      33.945 -23.598 -18.334  0.00  0.00    -0.263 OA
ATOM     25  N   UNL     1      32.926 -21.802 -19.402  0.00  0.00    -0.246 N 
ATOM     26  C   UNL     1      34.596 -20.140 -19.807  0.00  0.00    +0.137 C 
ATOM     27  C   UNL     1      33.149 -20.557 -19.952  0.00  0.00    +0.239 C 
ATOM     28  C   UNL     1      33.976 -22.493 -18.855  0.00  0.00    +0.279 C 
ATOM     29  H   UNL     1      32.021 -22.190 -19.402  0.00  0.00    +0.158 HD
ENDBRANCH  21  26
ENDBRANCH   1  21
TORSDOF 5
ENDMDL
MODEL 7
REMARK VINA RESULT:     -11.0      2.981     10.156
REMARK  Name = 9889200
REMARK  5 active torsions:
REMARK  status: ('A' for Active; 'I' for Inactive)
REMARK    1  A    between atoms: C_1  and  C_21
REMARK    2  A    between atoms: C_4  and  O_7
REMARK    3  A    between atoms: O_7  and  C_8
REMARK    4  A    between atoms: C_8  and  C_12
REMARK    5  A    between atoms: C_21  and  C_26
REMARK                            x       y       z     vdW  Elec       q    Type
REMARK                         _______ _______ _______ _____ _____    ______ ____
ROOT
ATOM      1  C   UNL     1      34.993 -22.836 -16.564  0.00  0.00    -0.021 C 
ATOM      2  C   UNL     1      36.221 -22.175 -16.546  0.00  0.00    -0.001 C 
ATOM      3  C   UNL     1      34.108 -22.635 -17.623  0.00  0.00    -0.001 C 
ATOM      4  C   UNL     1      35.675 -21.119 -18.636  0.00  0.00    +0.139 C 
ATOM      5  C   UNL     1      36.564 -21.311 -17.588  0.00  0.00    +0.037 C 
ATOM      6  C   UNL     1      34.450 -21.773 -18.664  0.00  0.00    +0.037 C 
ENDROOT
BRANCH   4   7
ATOM      7  O   UNL     1      36.013 -20.270 -19.663  0.00  0.00    -0.466 OA
BRANCH   7   8
ATOM      8  C   UNL     1      35.160 -20.244 -20.787  0.00  0.00    +0.279 C 
BRANCH   8  12
ATOM      9  O   UNL     1      34.759 -17.074 -24.412  0.00  0.00    -0.274 OA
ATOM     10  N   UNL     1      34.955 -18.627 -22.671  0.00  0.00    -0.232 N 
ATOM     11  N   UNL     1      35.037 -17.871 -20.418  0.00  0.00    -0.391 NA
ATOM     12  C   UNL     1      35.045 -18.827 -21.295  0.00  0.00    +0.210 C 
ATOM     13  C   UNL     1      34.834 -16.237 -22.231  0.00  0.00    +0.151 C 
ATOM     14  C   UNL     1      34.931 -16.551 -20.873  0.00  0.00    +0.123 C 
ATOM     15  C   UNL     1      34.844 -17.339 -23.216  0.00  0.00    +0.241 C 
ATOM     16  C   UNL     1      34.971 -19.761 -23.596  0.00  0.00    +0.122 C 
ATOM     17  C   UNL     1      34.728 -14.907 -22.652  0.00  0.00    -0.010 C 
ATOM     18  C   UNL     1      34.921 -15.511 -19.937  0.00  0.00    +0.028 C 
ATOM     19  C   UNL     1      34.720 -13.882 -21.708  0.00  0.00    -0.004 C 
ATOM     20  C   UNL     1      34.816 -14.183 -20.351  0.00  0.00    +0.002 C 
ENDBRANCH   8  12
ENDBRANCH   7   8
ENDBRANCH   4   7
BRANCH   1  21
ATOM     21  C   UNL     1      34.627 -23.757 -15.451  0.00  0.00    +0.047 C 
BRANCH  21  26
ATOM     22  S   UNL     1      37.047 -24.671 -14.487  0.00  0.00    -0.048 S 
ATOM     23  O   UNL     1      33.873 -23.655 -12.542  0.00  0.00    -0.274 OA
ATOM     24  O   UNL     1      37.566 -26.430 -12.602  0.00  0.00    -0.263 OA
ATOM     25  N   UNL     1      35.662 -25.113 -12.387  0.00  0.00    -0.246 N 
ATOM     26  C   UNL     1      35.574 -23.630 -14.259  0.00  0.00    +0.137 C 
ATOM     27  C   UNL     1      34.923 -24.111 -12.981  0.00  0.00    +0.239 C 
ATOM     28  C   UNL     1      36.807 -25.556 -12.996  0.00  0.00    +0.279 C 
ATOM     29  H   UNL     1      35.370 -25.504 -11.532  0.00  0.00    +0.158 HD
ENDBRANCH  21  26
ENDBRANCH   1  21
TORSDOF 5
ENDMDL
MODEL 8
REMARK VINA RESULT:     -11.0      7.770     12.069
REMARK  Name = 9889200
REMARK  5 active torsions:
REMARK  status: ('A' for Active; 'I' for Inactive)
REMARK    1  A    between atoms: C_1  and  C_21
REMARK    2  A    between atoms: C_4  and  O_7
REMARK    3  A    between atoms: O_7  and  C_8
REMARK    4  A    between atoms: C_8  and  C_12
REMARK    5  A    between atoms: C_21  and  C_26
REMARK                            x       y       z     vdW  Elec       q    Type
REMARK                         _______ _______ _______ _____ _____    ______ ____
ROOT
ATOM      1  C   UNL     1      31.713  -8.887 -22.391  0.00  0.00    -0.021 C 
ATOM      2  C   UNL     1      32.730  -9.317 -23.242  0.00  0.00    -0.001 C 
ATOM      3  C   UNL     1      31.233  -9.735 -21.393  0.00  0.00    -0.001 C 
ATOM      4  C   UNL     1      32.782 -11.432 -22.100  0.00  0.00    +0.139 C 
ATOM      5  C   UNL     1      33.267 -10.596 -23.096  0.00  0.00    +0.037 C 
ATOM      6  C   UNL     1      31.770 -11.013 -21.247  0.00  0.00    +0.037 C 
ENDROOT
BRANCH   4   7
ATOM      7  O   UNL     1      33.313 -12.692 -21.956  0.00  0.00    -0.466 OA
BRANCH   7   8
ATOM      8  C   UNL     1      34.431 -13.017 -22.752  0.00  0.00    +0.279 C 
BRANCH   8  12
ATOM      9  O   UNL     1      33.275 -16.769 -25.568  0.00  0.00    -0.274 OA
ATOM     10  N   UNL     1      33.824 -14.937 -24.219  0.00  0.00    -0.232 N 
ATOM     11  N   UNL     1      34.986 -15.283 -22.173  0.00  0.00    -0.391 NA
ATOM     12  C   UNL     1      34.427 -14.499 -23.042  0.00  0.00    +0.210 C 
ATOM     13  C   UNL     1      34.415 -17.208 -23.576  0.00  0.00    +0.151 C 
ATOM     14  C   UNL     1      34.990 -16.661 -22.426  0.00  0.00    +0.123 C 
ATOM     15  C   UNL     1      33.783 -16.299 -24.555  0.00  0.00    +0.241 C 
ATOM     16  C   UNL     1      33.214 -13.986 -25.148  0.00  0.00    +0.122 C 
ATOM     17  C   UNL     1      34.437 -18.589 -23.799  0.00  0.00    -0.010 C 
ATOM     18  C   UNL     1      35.590 -17.518 -21.497  0.00  0.00    +0.028 C 
ATOM     19  C   UNL     1      35.038 -19.431 -22.865  0.00  0.00    -0.004 C 
ATOM     20  C   UNL     1      35.615 -18.896 -21.714  0.00  0.00    +0.002 C 
ENDBRANCH   8  12
ENDBRANCH   7   8
ENDBRANCH   4   7
BRANCH   1  21
ATOM     21  C   UNL     1      31.138  -7.520 -22.548  0.00  0.00    +0.047 C 
BRANCH  21  26
ATOM     22  S   UNL     1      32.358  -5.682 -20.887  0.00  0.00    -0.048 S 
ATOM     23  O   UNL     1      31.652  -5.458 -24.674  0.00  0.00    -0.274 OA
ATOM     24  O   UNL     1      32.062  -3.074 -20.739  0.00  0.00    -0.263 OA
ATOM     25  N   UNL     1      31.830  -4.093 -22.815  0.00  0.00    -0.246 N 
ATOM     26  C   UNL     1      32.213  -6.436 -22.536  0.00  0.00    +0.137 C 
ATOM     27  C   UNL     1      31.866  -5.303 -23.476  0.00  0.00    +0.239 C 
ATOM     28  C   UNL     1      32.060  -4.057 -21.465  0.00  0.00    +0.279 C 
ATOM     29  H   UNL     1      31.642  -3.263 -23.310  0.00  0.00    +0.158 HD
ENDBRANCH  21  26
ENDBRANCH   1  21
TORSDOF 5
ENDMDL
MODEL 9
REMARK VINA RESULT:     -10.9      1.412      2.056
REMARK  Name = 9889200
REMARK  5 active torsions:
REMARK  status: ('A' for Active; 'I' for Inactive)
REMARK    1  A    between atoms: C_1  and  C_21
REMARK    2  A    between atoms: C_4  and  O_7
REMARK    3  A    between atoms: O_7  and  C_8
REMARK    4  A    between atoms: C_8  and  C_12
REMARK    5  A    between atoms: C_21  and  C_26
REMARK                            x       y       z     vdW  Elec       q    Type
REMARK                         _______ _______ _______ _____ _____    ______ ____
ROOT
ATOM      1  C   UNL     1      35.822 -18.566 -21.868  0.00  0.00    -0.021 C 
ATOM      2  C   UNL     1      37.010 -18.681 -21.146  0.00  0.00    -0.001 C 
ATOM      3  C   UNL     1      34.700 -19.300 -21.486  0.00  0.00    -0.001 C 
ATOM      4  C   UNL     1      35.953 -20.258 -19.671  0.00  0.00    +0.139 C 
ATOM      5  C   UNL     1      37.076 -19.532 -20.042  0.00  0.00    +0.037 C 
ATOM      6  C   UNL     1      34.765 -20.150 -20.382  0.00  0.00    +0.037 C 
ENDROOT
BRANCH   4   7
ATOM      7  O   UNL     1      36.017 -21.095 -18.582  0.00  0.00    -0.466 OA
BRANCH   7   8
ATOM      8  C   UNL     1      34.980 -22.040 -18.432  0.00  0.00    +0.279 C 
BRANCH   8  12
ATOM      9  O   UNL     1      32.587 -23.643 -14.553  0.00  0.00    -0.274 OA
ATOM     10  N   UNL     1      33.726 -22.863 -16.444  0.00  0.00    -0.232 N 
ATOM     11  N   UNL     1      36.092 -22.631 -16.384  0.00  0.00    -0.391 NA
ATOM     12  C   UNL     1      34.957 -22.537 -17.007  0.00  0.00    +0.210 C 
ATOM     13  C   UNL     1      34.911 -23.446 -14.400  0.00  0.00    +0.151 C 
ATOM     14  C   UNL     1      36.089 -23.090 -15.061  0.00  0.00    +0.123 C 
ATOM     15  C   UNL     1      33.628 -23.332 -15.125  0.00  0.00    +0.241 C 
ATOM     16  C   UNL     1      32.490 -22.728 -17.213  0.00  0.00    +0.122 C 
ATOM     17  C   UNL     1      34.943 -23.902 -13.077  0.00  0.00    -0.010 C 
ATOM     18  C   UNL     1      37.306 -23.197 -14.379  0.00  0.00    +0.028 C 
ATOM     19  C   UNL     1      36.163 -24.004 -12.410  0.00  0.00    -0.004 C 
ATOM     20  C   UNL     1      37.344 -23.651 -13.060  0.00  0.00    +0.002 C 
ENDBRANCH   8  12
ENDBRANCH   7   8
ENDBRANCH   4   7
BRANCH   1  21
ATOM     21  C   UNL     1      35.753 -17.658 -23.049  0.00  0.00    +0.047 C 
BRANCH  21  26
ATOM     22  S   UNL     1      33.911 -16.578 -24.800  0.00  0.00    -0.048 S 
ATOM     23  O   UNL     1      35.036 -15.290 -21.340  0.00  0.00    -0.274 OA
ATOM     24  O   UNL     1      33.537 -14.082 -25.539  0.00  0.00    -0.263 OA
ATOM     25  N   UNL     1      34.284 -14.490 -23.376  0.00  0.00    -0.246 N 
ATOM     26  C   UNL     1      34.453 -16.857 -23.086  0.00  0.00    +0.137 C 
ATOM     27  C   UNL     1      34.633 -15.482 -22.482  0.00  0.00    +0.239 C 
ATOM     28  C   UNL     1      33.876 -14.835 -24.637  0.00  0.00    +0.279 C 
ATOM     29  H   UNL     1      34.328 -13.544 -23.108  0.00  0.00    +0.158 HD
ENDBRANCH  21  26
ENDBRANCH   1  21
TORSDOF 5
ENDMDL
