MODEL 1
REMARK VINA RESULT:     -11.6      0.000      0.000
REMARK  Name = 9823820
REMARK  6 active torsions:
REMARK  status: ('A' for Active; 'I' for Inactive)
REMARK    1  A    between atoms: O_1  and  C_4
REMARK    2  A    between atoms: O_1  and  C_23
REMARK    3  A    between atoms: C_7  and  C_14
REMARK    4  A    between atoms: C_8  and  O_17
REMARK    5  A    between atoms: C_20  and  N_28
REMARK    6  A    between atoms: N_27  and  C_32
REMARK                            x       y       z     vdW  Elec       q    Type
REMARK                         _______ _______ _______ _____ _____    ______ ____
ROOT
ATOM      1  O   UNL     1      33.848 -23.580 -17.654  0.00  0.00    -0.454 OA
ENDROOT
BRANCH   1   4
ATOM      2  N   UNL     1      32.262 -23.150 -13.847  0.00  0.00    -0.248 NA
ATOM      3  C   UNL     1      34.157 -23.618 -15.259  0.00  0.00    +0.031 C 
ATOM      4  C   UNL     1      33.348 -23.444 -16.391  0.00  0.00    +0.144 C 
ATOM      5  C   UNL     1      33.564 -23.460 -13.990  0.00  0.00    +0.066 C 
ATOM      6  C   UNL     1      35.520 -23.941 -15.371  0.00  0.00    +0.064 C 
ATOM      7  C   UNL     1      36.300 -24.109 -14.231  0.00  0.00    +0.065 C 
ATOM      8  C   UNL     1      35.723 -23.954 -12.977  0.00  0.00    +0.123 C 
ATOM      9  C   UNL     1      34.368 -23.633 -12.866  0.00  0.00    +0.109 C 
ATOM     10  C   UNL     1      32.007 -23.125 -16.248  0.00  0.00    +0.058 C 
ATOM     11  C   UNL     1      31.516 -22.991 -14.965  0.00  0.00    +0.102 C 
BRANCH   7  14
ATOM     12  O   UNL     1      38.521 -23.632 -14.851  0.00  0.00    -0.271 OA
ATOM     13  N   UNL     1      38.124 -25.696 -13.935  0.00  0.00    -0.325 N 
ATOM     14  C   UNL     1      37.710 -24.443 -14.372  0.00  0.00    +0.242 C 
ATOM     15  H   UNL     1      39.071 -25.957 -14.014  0.00  0.00    +0.145 HD
ATOM     16  H   UNL     1      37.472 -26.322 -13.546  0.00  0.00    +0.145 HD
ENDBRANCH   7  14
BRANCH   8  17
ATOM     17  O   UNL     1      36.461 -24.110 -11.841  0.00  0.00    -0.475 OA
ATOM     18  C   UNL     1      36.912 -22.922 -11.194  0.00  0.00    +0.252 C 
ENDBRANCH   8  17
ENDBRANCH   1   4
BRANCH   1  23
ATOM     19 CL   UNL     1      37.082 -20.218 -19.647  0.00  0.00    -0.081 Cl
ATOM     20  C   UNL     1      34.366 -20.125 -19.896  0.00  0.00    +0.062 C 
ATOM     21  C   UNL     1      35.476 -20.793 -19.378  0.00  0.00    +0.074 C 
ATOM     22  C   UNL     1      33.083 -20.619 -19.661  0.00  0.00    +0.019 C 
ATOM     23  C   UNL     1      34.021 -22.430 -18.402  0.00  0.00    +0.146 C 
ATOM     24  C   UNL     1      35.301 -21.955 -18.625  0.00  0.00    +0.050 C 
ATOM     25  C   UNL     1      32.908 -21.781 -18.908  0.00  0.00    +0.039 C 
BRANCH  20  28
ATOM     26  O   UNL     1      34.894 -19.765 -22.831  0.00  0.00    -0.252 OA
ATOM     27  N   UNL     1      34.824 -17.494 -22.413  0.00  0.00    -0.290 N 
ATOM     28  N   UNL     1      34.504 -18.960 -20.655  0.00  0.00    -0.268 N 
ATOM     29  C   UNL     1      34.753 -18.839 -22.034  0.00  0.00    +0.304 C 
ATOM     30  H   UNL     1      34.701 -16.803 -21.722  0.00  0.00    +0.151 HD
ATOM     31  H   UNL     1      34.417 -18.113 -20.160  0.00  0.00    +0.156 HD
BRANCH  27  32
ATOM     32  C   UNL     1      35.069 -17.080 -23.764  0.00  0.00    +0.073 C 
ATOM     33  C   UNL     1      34.532 -15.783 -24.277  0.00  0.00    +0.021 C 
ATOM     34  C   UNL     1      33.968 -17.081 -24.775  0.00  0.00    +0.021 C 
ENDBRANCH  27  32
ENDBRANCH  20  28
ENDBRANCH   1  23
TORSDOF 6
ENDMDL
MODEL 2
REMARK VINA RESULT:     -11.4      2.204      3.899
REMARK  Name = 9823820
REMARK  6 active torsions:
REMARK  status: ('A' for Active; 'I' for Inactive)
REMARK    1  A    between atoms: O_1  and  C_4
REMARK    2  A    between atoms: O_1  and  C_23
REMARK    3  A    between atoms: C_7  and  C_14
REMARK    4  A    between atoms: C_8  and  O_17
REMARK    5  A    between atoms: C_20  and  N_28
REMARK    6  A    between atoms: N_27  and  C_32
REMARK                            x       y       z     vdW  Elec       q    Type
REMARK                         _______ _______ _______ _____ _____    ______ ____
ROOT
ATOM      1  O   UNL     1      34.341 -23.000 -18.245  0.00  0.00    -0.454 OA
ENDROOT
BRANCH   1   4
ATOM      2  N   UNL     1      35.039 -22.760 -14.164  0.00  0.00    -0.248 NA
ATOM      3  C   UNL     1      33.482 -23.000 -15.987  0.00  0.00    +0.031 C 
ATOM      4  C   UNL     1      34.546 -22.923 -16.897  0.00  0.00    +0.144 C 
ATOM      5  C   UNL     1      33.779 -22.913 -14.612  0.00  0.00    +0.066 C 
ATOM      6  C   UNL     1      32.155 -23.159 -16.419  0.00  0.00    +0.064 C 
ATOM      7  C   UNL     1      31.118 -23.232 -15.494  0.00  0.00    +0.065 C 
ATOM      8  C   UNL     1      31.402 -23.147 -14.137  0.00  0.00    +0.123 C 
ATOM      9  C   UNL     1      32.722 -22.989 -13.708  0.00  0.00    +0.109 C 
ATOM     10  C   UNL     1      35.846 -22.767 -16.440  0.00  0.00    +0.058 C 
ATOM     11  C   UNL     1      36.037 -22.691 -15.075  0.00  0.00    +0.102 C 
BRANCH   7  14
ATOM     12  O   UNL     1      29.198 -22.530 -16.663  0.00  0.00    -0.271 OA
ATOM     13  N   UNL     1      29.086 -24.571 -15.624  0.00  0.00    -0.325 N 
ATOM     14  C   UNL     1      29.750 -23.398 -15.965  0.00  0.00    +0.242 C 
ATOM     15  H   UNL     1      28.161 -24.719 -15.926  0.00  0.00    +0.145 HD
ATOM     16  H   UNL     1      29.542 -25.255 -15.082  0.00  0.00    +0.145 HD
ENDBRANCH   7  14
BRANCH   8  17
ATOM     17  O   UNL     1      30.408 -23.217 -13.207  0.00  0.00    -0.475 OA
ATOM     18  C   UNL     1      30.405 -24.355 -12.346  0.00  0.00    +0.252 C 
ENDBRANCH   8  17
ENDBRANCH   1   4
BRANCH   1  23
ATOM     19 CL   UNL     1      37.351 -19.458 -20.276  0.00  0.00    -0.081 Cl
ATOM     20  C   UNL     1      34.627 -19.485 -20.433  0.00  0.00    +0.062 C 
ATOM     21  C   UNL     1      35.782 -20.111 -19.966  0.00  0.00    +0.074 C 
ATOM     22  C   UNL     1      33.376 -20.040 -20.166  0.00  0.00    +0.019 C 
ATOM     23  C   UNL     1      34.437 -21.829 -18.975  0.00  0.00    +0.146 C 
ATOM     24  C   UNL     1      35.686 -21.293 -19.231  0.00  0.00    +0.050 C 
ATOM     25  C   UNL     1      33.280 -21.222 -19.430  0.00  0.00    +0.039 C 
BRANCH  20  28
ATOM     26  O   UNL     1      34.712 -19.047 -23.404  0.00  0.00    -0.252 OA
ATOM     27  N   UNL     1      34.784 -16.790 -22.919  0.00  0.00    -0.290 N 
ATOM     28  N   UNL     1      34.687 -18.300 -21.173  0.00  0.00    -0.268 N 
ATOM     29  C   UNL     1      34.726 -18.144 -22.570  0.00  0.00    +0.304 C 
ATOM     30  H   UNL     1      34.792 -16.117 -22.200  0.00  0.00    +0.151 HD
ATOM     31  H   UNL     1      34.706 -17.467 -20.648  0.00  0.00    +0.156 HD
BRANCH  27  32
ATOM     32  C   UNL     1      34.833 -16.341 -24.281  0.00  0.00    +0.073 C 
ATOM     33  C   UNL     1      34.268 -15.013 -24.670  0.00  0.00    +0.021 C 
ATOM     34  C   UNL     1      33.592 -16.278 -25.110  0.00  0.00    +0.021 C 
ENDBRANCH  27  32
ENDBRANCH  20  28
ENDBRANCH   1  23
TORSDOF 6
ENDMDL
MODEL 3
REMARK VINA RESULT:     -11.2      0.968      1.309
REMARK  Name = 9823820
REMARK  6 active torsions:
REMARK  status: ('A' for Active; 'I' for Inactive)
REMARK    1  A    between atoms: O_1  and  C_4
REMARK    2  A    between atoms: O_1  and  C_23
REMARK    3  A    between atoms: C_7  and  C_14
REMARK    4  A    between atoms: C_8  and  O_17
REMARK    5  A    between atoms: C_20  and  N_28
REMARK    6  A    between atoms: N_27  and  C_32
REMARK                            x       y       z     vdW  Elec       q    Type
REMARK                         _______ _______ _______ _____ _____    ______ ____
ROOT
ATOM      1  O   UNL     1      34.088 -23.587 -17.623  0.00  0.00    -0.454 OA
ENDROOT
BRANCH   1   4
ATOM      2  N   UNL     1      32.401 -23.188 -13.856  0.00  0.00    -0.248 NA
ATOM      3  C   UNL     1      34.330 -23.656 -15.222  0.00  0.00    +0.031 C 
ATOM      4  C   UNL     1      33.554 -23.461 -16.373  0.00  0.00    +0.144 C 
ATOM      5  C   UNL     1      33.703 -23.507 -13.967  0.00  0.00    +0.066 C 
ATOM      6  C   UNL     1      35.692 -23.990 -15.300  0.00  0.00    +0.064 C 
ATOM      7  C   UNL     1      36.439 -24.178 -14.141  0.00  0.00    +0.065 C 
ATOM      8  C   UNL     1      35.829 -24.033 -12.901  0.00  0.00    +0.123 C 
ATOM      9  C   UNL     1      34.474 -23.700 -12.824  0.00  0.00    +0.109 C 
ATOM     10  C   UNL     1      32.212 -23.132 -16.263  0.00  0.00    +0.058 C 
ATOM     11  C   UNL     1      31.687 -23.008 -14.992  0.00  0.00    +0.102 C 
BRANCH   7  14
ATOM     12  O   UNL     1      38.680 -23.716 -14.699  0.00  0.00    -0.271 OA
ATOM     13  N   UNL     1      38.242 -25.782 -13.808  0.00  0.00    -0.325 N 
ATOM     14  C   UNL     1      37.850 -24.523 -14.247  0.00  0.00    +0.242 C 
ATOM     15  H   UNL     1      39.188 -26.051 -13.863  0.00  0.00    +0.145 HD
ATOM     16  H   UNL     1      37.574 -26.406 -13.440  0.00  0.00    +0.145 HD
ENDBRANCH   7  14
BRANCH   8  17
ATOM     17  O   UNL     1      36.534 -24.209 -11.748  0.00  0.00    -0.475 OA
ATOM     18  C   UNL     1      36.943 -23.032 -11.052  0.00  0.00    +0.252 C 
ENDBRANCH   8  17
ENDBRANCH   1   4
BRANCH   1  23
ATOM     19 CL   UNL     1      32.027 -19.873 -20.397  0.00  0.00    -0.081 Cl
ATOM     20  C   UNL     1      34.683 -20.115 -19.819  0.00  0.00    +0.062 C 
ATOM     21  C   UNL     1      33.397 -20.638 -19.677  0.00  0.00    +0.074 C 
ATOM     22  C   UNL     1      35.767 -20.758 -19.223  0.00  0.00    +0.019 C 
ATOM     23  C   UNL     1      34.285 -22.430 -18.354  0.00  0.00    +0.146 C 
ATOM     24  C   UNL     1      33.198 -21.805 -18.938  0.00  0.00    +0.050 C 
ATOM     25  C   UNL     1      35.567 -21.925 -18.485  0.00  0.00    +0.039 C 
BRANCH  20  28
ATOM     26  O   UNL     1      34.758 -19.662 -22.788  0.00  0.00    -0.252 OA
ATOM     27  N   UNL     1      35.217 -17.453 -22.289  0.00  0.00    -0.290 N 
ATOM     28  N   UNL     1      34.919 -18.948 -20.552  0.00  0.00    -0.268 N 
ATOM     29  C   UNL     1      34.945 -18.783 -21.948  0.00  0.00    +0.304 C 
ATOM     30  H   UNL     1      35.356 -16.800 -21.565  0.00  0.00    +0.151 HD
ATOM     31  H   UNL     1      35.089 -18.136 -20.021  0.00  0.00    +0.156 HD
BRANCH  27  32
ATOM     32  C   UNL     1      35.303 -17.002 -23.648  0.00  0.00    +0.073 C 
ATOM     33  C   UNL     1      34.792 -15.654 -24.040  0.00  0.00    +0.021 C 
ATOM     34  C   UNL     1      34.077 -16.892 -24.495  0.00  0.00    +0.021 C 
ENDBRANCH  27  32
ENDBRANCH  20  28
ENDBRANCH   1  23
TORSDOF 6
ENDMDL
MODEL 4
REMARK VINA RESULT:     -10.7      2.041      3.274
REMARK  Name = 9823820
REMARK  6 active torsions:
REMARK  status: ('A' for Active; 'I' for Inactive)
REMARK    1  A    between atoms: O_1  and  C_4
REMARK    2  A    between atoms: O_1  and  C_23
REMARK    3  A    between atoms: C_7  and  C_14
REMARK    4  A    between atoms: C_8  and  O_17
REMARK    5  A    between atoms: C_20  and  N_28
REMARK    6  A    between atoms: N_27  and  C_32
REMARK                            x       y       z     vdW  Elec       q    Type
REMARK                         _______ _______ _______ _____ _____    ______ ____
ROOT
ATOM      1  O   UNL     1      34.646 -22.471 -18.060  0.00  0.00    -0.454 OA
ENDROOT
BRANCH   1   4
ATOM      2  N   UNL     1      37.401 -22.274 -14.966  0.00  0.00    -0.248 NA
ATOM      3  C   UNL     1      35.186 -22.831 -15.733  0.00  0.00    +0.031 C 
ATOM      4  C   UNL     1      35.536 -22.416 -17.025  0.00  0.00    +0.144 C 
ATOM      5  C   UNL     1      36.163 -22.741 -14.721  0.00  0.00    +0.066 C 
ATOM      6  C   UNL     1      33.903 -23.323 -15.440  0.00  0.00    +0.064 C 
ATOM      7  C   UNL     1      33.581 -23.728 -14.148  0.00  0.00    +0.065 C 
ATOM      8  C   UNL     1      34.539 -23.643 -13.145  0.00  0.00    +0.123 C 
ATOM      9  C   UNL     1      35.814 -23.154 -13.437  0.00  0.00    +0.109 C 
ATOM     10  C   UNL     1      36.811 -21.934 -17.283  0.00  0.00    +0.058 C 
ATOM     11  C   UNL     1      37.699 -21.884 -16.227  0.00  0.00    +0.102 C 
BRANCH   7  14
ATOM     12  O   UNL     1      31.233 -23.670 -14.317  0.00  0.00    -0.271 OA
ATOM     13  N   UNL     1      32.140 -25.389 -13.101  0.00  0.00    -0.325 N 
ATOM     14  C   UNL     1      32.246 -24.236 -13.870  0.00  0.00    +0.242 C 
ATOM     15  H   UNL     1      31.253 -25.763 -12.893  0.00  0.00    +0.145 HD
ATOM     16  H   UNL     1      32.952 -25.834 -12.766  0.00  0.00    +0.145 HD
ENDBRANCH   7  14
BRANCH   8  17
ATOM     17  O   UNL     1      34.255 -24.033 -11.871  0.00  0.00    -0.475 OA
ATOM     18  C   UNL     1      35.338 -24.542 -11.093  0.00  0.00    +0.252 C 
ENDBRANCH   8  17
ENDBRANCH   1   4
BRANCH   1  23
ATOM     19 CL   UNL     1      37.405 -19.162 -20.737  0.00  0.00    -0.081 Cl
ATOM     20  C   UNL     1      34.683 -19.350 -20.795  0.00  0.00    +0.062 C 
ATOM     21  C   UNL     1      35.883 -19.833 -20.273  0.00  0.00    +0.074 C 
ATOM     22  C   UNL     1      33.472 -19.917 -20.400  0.00  0.00    +0.019 C 
ATOM     23  C   UNL     1      34.659 -21.432 -18.972  0.00  0.00    +0.146 C 
ATOM     24  C   UNL     1      35.870 -20.882 -19.353  0.00  0.00    +0.050 C 
ATOM     25  C   UNL     1      33.459 -20.966 -19.481  0.00  0.00    +0.039 C 
BRANCH  20  28
ATOM     26  O   UNL     1      35.171 -16.411 -20.414  0.00  0.00    -0.252 OA
ATOM     27  N   UNL     1      34.776 -16.203 -22.680  0.00  0.00    -0.290 N 
ATOM     28  N   UNL     1      34.660 -18.301 -21.718  0.00  0.00    -0.268 N 
ATOM     29  C   UNL     1      34.895 -16.932 -21.492  0.00  0.00    +0.304 C 
ATOM     30  H   UNL     1      34.553 -16.685 -23.510  0.00  0.00    +0.151 HD
ATOM     31  H   UNL     1      34.451 -18.552 -22.647  0.00  0.00    +0.156 HD
BRANCH  27  32
ATOM     32  C   UNL     1      34.965 -14.782 -22.741  0.00  0.00    +0.073 C 
ATOM     33  C   UNL     1      34.058 -13.857 -21.996  0.00  0.00    +0.021 C 
ATOM     34  C   UNL     1      34.009 -13.915 -23.494  0.00  0.00    +0.021 C 
ENDBRANCH  27  32
ENDBRANCH  20  28
ENDBRANCH   1  23
TORSDOF 6
ENDMDL
MODEL 5
REMARK VINA RESULT:     -10.4      3.656     10.358
REMARK  Name = 9823820
REMARK  6 active torsions:
REMARK  status: ('A' for Active; 'I' for Inactive)
REMARK    1  A    between atoms: O_1  and  C_4
REMARK    2  A    between atoms: O_1  and  C_23
REMARK    3  A    between atoms: C_7  and  C_14
REMARK    4  A    between atoms: C_8  and  O_17
REMARK    5  A    between atoms: C_20  and  N_28
REMARK    6  A    between atoms: N_27  and  C_32
REMARK                            x       y       z     vdW  Elec       q    Type
REMARK                         _______ _______ _______ _____ _____    ______ ____
ROOT
ATOM      1  O   UNL     1      35.896 -18.698 -21.516  0.00  0.00    -0.454 OA
ENDROOT
BRANCH   1   4
ATOM      2  N   UNL     1      33.809 -18.328 -25.080  0.00  0.00    -0.248 NA
ATOM      3  C   UNL     1      34.707 -17.307 -23.091  0.00  0.00    +0.031 C 
ATOM      4  C   UNL     1      35.206 -18.552 -22.684  0.00  0.00    +0.144 C 
ATOM      5  C   UNL     1      34.005 -17.240 -24.312  0.00  0.00    +0.066 C 
ATOM      6  C   UNL     1      34.893 -16.150 -22.315  0.00  0.00    +0.064 C 
ATOM      7  C   UNL     1      34.386 -14.926 -22.742  0.00  0.00    +0.065 C 
ATOM      8  C   UNL     1      33.694 -14.853 -23.944  0.00  0.00    +0.123 C 
ATOM      9  C   UNL     1      33.510 -16.003 -24.716  0.00  0.00    +0.109 C 
ATOM     10  C   UNL     1      35.006 -19.675 -23.473  0.00  0.00    +0.058 C 
ATOM     11  C   UNL     1      34.307 -19.511 -24.652  0.00  0.00    +0.102 C 
BRANCH   7  14
ATOM     12  O   UNL     1      34.756 -13.828 -20.691  0.00  0.00    -0.271 OA
ATOM     13  N   UNL     1      34.619 -12.508 -22.561  0.00  0.00    -0.325 N 
ATOM     14  C   UNL     1      34.592 -13.742 -21.921  0.00  0.00    +0.242 C 
ATOM     15  H   UNL     1      34.757 -11.685 -22.039  0.00  0.00    +0.145 HD
ATOM     16  H   UNL     1      34.502 -12.457 -23.537  0.00  0.00    +0.145 HD
ENDBRANCH   7  14
BRANCH   8  17
ATOM     17  O   UNL     1      33.187 -13.669 -24.390  0.00  0.00    -0.475 OA
ATOM     18  C   UNL     1      33.409 -13.345 -25.762  0.00  0.00    +0.252 C 
ENDBRANCH   8  17
ENDBRANCH   1   4
BRANCH   1  23
ATOM     19 CL   UNL     1      36.907 -21.899 -17.712  0.00  0.00    -0.081 Cl
ATOM     20  C   UNL     1      34.428 -21.420 -18.747  0.00  0.00    +0.062 C 
ATOM     21  C   UNL     1      35.793 -21.138 -18.791  0.00  0.00    +0.074 C 
ATOM     22  C   UNL     1      33.556 -20.786 -19.632  0.00  0.00    +0.019 C 
ATOM     23  C   UNL     1      35.407 -19.604 -20.592  0.00  0.00    +0.146 C 
ATOM     24  C   UNL     1      36.286 -20.223 -19.721  0.00  0.00    +0.050 C 
ATOM     25  C   UNL     1      34.049 -19.871 -20.563  0.00  0.00    +0.039 C 
BRANCH  20  28
ATOM     26  O   UNL     1      31.653 -21.664 -17.623  0.00  0.00    -0.252 OA
ATOM     27  N   UNL     1      32.459 -23.464 -16.421  0.00  0.00    -0.290 N 
ATOM     28  N   UNL     1      33.900 -22.331 -17.827  0.00  0.00    -0.268 N 
ATOM     29  C   UNL     1      32.587 -22.406 -17.327  0.00  0.00    +0.304 C 
ATOM     30  H   UNL     1      33.249 -24.020 -16.229  0.00  0.00    +0.151 HD
ATOM     31  H   UNL     1      34.528 -23.006 -17.484  0.00  0.00    +0.156 HD
BRANCH  27  32
ATOM     32  C   UNL     1      31.225 -23.772 -15.757  0.00  0.00    +0.073 C 
ATOM     33  C   UNL     1      30.753 -22.954 -14.599  0.00  0.00    +0.021 C 
ATOM     34  C   UNL     1      31.222 -24.363 -14.385  0.00  0.00    +0.021 C 
ENDBRANCH  27  32
ENDBRANCH  20  28
ENDBRANCH   1  23
TORSDOF 6
ENDMDL
MODEL 6
REMARK VINA RESULT:     -10.4      2.900     10.713
REMARK  Name = 9823820
REMARK  6 active torsions:
REMARK  status: ('A' for Active; 'I' for Inactive)
REMARK    1  A    between atoms: O_1  and  C_4
REMARK    2  A    between atoms: O_1  and  C_23
REMARK    3  A    between atoms: C_7  and  C_14
REMARK    4  A    between atoms: C_8  and  O_17
REMARK    5  A    between atoms: C_20  and  N_28
REMARK    6  A    between atoms: N_27  and  C_32
REMARK                            x       y       z     vdW  Elec       q    Type
REMARK                         _______ _______ _______ _____ _____    ______ ____
ROOT
ATOM      1  O   UNL     1      36.080 -18.224 -21.644  0.00  0.00    -0.454 OA
ENDROOT
BRANCH   1   4
ATOM      2  N   UNL     1      33.728 -18.198 -25.060  0.00  0.00    -0.248 NA
ATOM      3  C   UNL     1      34.716 -17.000 -23.217  0.00  0.00    +0.031 C 
ATOM      4  C   UNL     1      35.302 -18.191 -22.766  0.00  0.00    +0.144 C 
ATOM      5  C   UNL     1      33.926 -17.051 -24.384  0.00  0.00    +0.066 C 
ATOM      6  C   UNL     1      34.901 -15.785 -22.538  0.00  0.00    +0.064 C 
ATOM      7  C   UNL     1      34.307 -14.617 -23.007  0.00  0.00    +0.065 C 
ATOM      8  C   UNL     1      33.528 -14.659 -24.157  0.00  0.00    +0.123 C 
ATOM      9  C   UNL     1      33.344 -15.868 -24.833  0.00  0.00    +0.109 C 
ATOM     10  C   UNL     1      35.100 -19.375 -23.459  0.00  0.00    +0.058 C 
ATOM     11  C   UNL     1      34.312 -19.325 -24.591  0.00  0.00    +0.102 C 
BRANCH   7  14
ATOM     12  O   UNL     1      34.598 -13.346 -21.046  0.00  0.00    -0.271 OA
ATOM     13  N   UNL     1      34.635 -12.203 -23.033  0.00  0.00    -0.325 N 
ATOM     14  C   UNL     1      34.514 -13.370 -22.286  0.00  0.00    +0.242 C 
ATOM     15  H   UNL     1      34.777 -11.340 -22.580  0.00  0.00    +0.145 HD
ATOM     16  H   UNL     1      34.580 -12.240 -24.015  0.00  0.00    +0.145 HD
ENDBRANCH   7  14
BRANCH   8  17
ATOM     17  O   UNL     1      32.935 -13.532 -24.643  0.00  0.00    -0.475 OA
ATOM     18  C   UNL     1      33.239 -13.169 -25.989  0.00  0.00    +0.252 C 
ENDBRANCH   8  17
ENDBRANCH   1   4
BRANCH   1  23
ATOM     19 CL   UNL     1      32.620 -21.009 -19.194  0.00  0.00    -0.081 Cl
ATOM     20  C   UNL     1      35.321 -21.211 -18.864  0.00  0.00    +0.062 C 
ATOM     21  C   UNL     1      34.262 -20.579 -19.515  0.00  0.00    +0.074 C 
ATOM     22  C   UNL     1      36.635 -20.840 -19.149  0.00  0.00    +0.019 C 
ATOM     23  C   UNL     1      35.827 -19.220 -20.719  0.00  0.00    +0.146 C 
ATOM     24  C   UNL     1      34.517 -19.575 -20.449  0.00  0.00    +0.050 C 
ATOM     25  C   UNL     1      36.890 -19.837 -20.084  0.00  0.00    +0.039 C 
BRANCH  20  28
ATOM     26  O   UNL     1      36.514 -21.624 -16.138  0.00  0.00    -0.252 OA
ATOM     27  N   UNL     1      35.201 -23.521 -16.015  0.00  0.00    -0.290 N 
ATOM     28  N   UNL     1      35.101 -22.221 -17.923  0.00  0.00    -0.268 N 
ATOM     29  C   UNL     1      35.687 -22.374 -16.653  0.00  0.00    +0.304 C 
ATOM     30  H   UNL     1      34.538 -24.077 -16.485  0.00  0.00    +0.151 HD
ATOM     31  H   UNL     1      34.454 -22.915 -18.183  0.00  0.00    +0.156 HD
BRANCH  27  32
ATOM     32  C   UNL     1      35.629 -23.921 -14.705  0.00  0.00    +0.073 C 
ATOM     33  C   UNL     1      36.983 -24.515 -14.490  0.00  0.00    +0.021 C 
ATOM     34  C   UNL     1      35.756 -25.366 -14.351  0.00  0.00    +0.021 C 
ENDBRANCH  27  32
ENDBRANCH  20  28
ENDBRANCH   1  23
TORSDOF 6
ENDMDL
MODEL 7
REMARK VINA RESULT:     -10.3      2.632      4.233
REMARK  Name = 9823820
REMARK  6 active torsions:
REMARK  status: ('A' for Active; 'I' for Inactive)
REMARK    1  A    between atoms: O_1  and  C_4
REMARK    2  A    between atoms: O_1  and  C_23
REMARK    3  A    between atoms: C_7  and  C_14
REMARK    4  A    between atoms: C_8  and  O_17
REMARK    5  A    between atoms: C_20  and  N_28
REMARK    6  A    between atoms: N_27  and  C_32
REMARK                            x       y       z     vdW  Elec       q    Type
REMARK                         _______ _______ _______ _____ _____    ______ ____
ROOT
ATOM      1  O   UNL     1      34.635 -23.160 -18.065  0.00  0.00    -0.454 OA
ENDROOT
BRANCH   1   4
ATOM      2  N   UNL     1      35.188 -22.614 -13.991  0.00  0.00    -0.248 NA
ATOM      3  C   UNL     1      33.699 -23.010 -15.843  0.00  0.00    +0.031 C 
ATOM      4  C   UNL     1      34.792 -22.983 -16.720  0.00  0.00    +0.144 C 
ATOM      5  C   UNL     1      33.946 -22.819 -14.469  0.00  0.00    +0.066 C 
ATOM      6  C   UNL     1      32.389 -23.221 -16.306  0.00  0.00    +0.064 C 
ATOM      7  C   UNL     1      31.322 -23.244 -15.414  0.00  0.00    +0.065 C 
ATOM      8  C   UNL     1      31.557 -23.056 -14.058  0.00  0.00    +0.123 C 
ATOM      9  C   UNL     1      32.860 -22.847 -13.598  0.00  0.00    +0.109 C 
ATOM     10  C   UNL     1      36.073 -22.773 -16.232  0.00  0.00    +0.058 C 
ATOM     11  C   UNL     1      36.216 -22.595 -14.871  0.00  0.00    +0.102 C 
BRANCH   7  14
ATOM     12  O   UNL     1      29.410 -22.629 -16.645  0.00  0.00    -0.271 OA
ATOM     13  N   UNL     1      29.342 -24.655 -15.574  0.00  0.00    -0.325 N 
ATOM     14  C   UNL     1      29.974 -23.465 -15.918  0.00  0.00    +0.242 C 
ATOM     15  H   UNL     1      28.430 -24.840 -15.897  0.00  0.00    +0.145 HD
ATOM     16  H   UNL     1      29.807 -25.313 -15.008  0.00  0.00    +0.145 HD
ENDBRANCH   7  14
BRANCH   8  17
ATOM     17  O   UNL     1      30.533 -23.074 -13.159  0.00  0.00    -0.475 OA
ATOM     18  C   UNL     1      30.447 -24.208 -12.297  0.00  0.00    +0.252 C 
ENDBRANCH   8  17
ENDBRANCH   1   4
BRANCH   1  23
ATOM     19 CL   UNL     1      31.928 -19.661 -20.546  0.00  0.00    -0.081 Cl
ATOM     20  C   UNL     1      34.653 -19.775 -20.467  0.00  0.00    +0.062 C 
ATOM     21  C   UNL     1      33.442 -20.339 -20.066  0.00  0.00    +0.074 C 
ATOM     22  C   UNL     1      35.858 -20.348 -20.060  0.00  0.00    +0.019 C 
ATOM     23  C   UNL     1      34.641 -22.032 -18.864  0.00  0.00    +0.146 C 
ATOM     24  C   UNL     1      33.436 -21.477 -19.258  0.00  0.00    +0.050 C 
ATOM     25  C   UNL     1      35.852 -21.486 -19.252  0.00  0.00    +0.039 C 
BRANCH  20  28
ATOM     26  O   UNL     1      35.322 -16.928 -19.784  0.00  0.00    -0.252 OA
ATOM     27  N   UNL     1      34.943 -16.460 -22.014  0.00  0.00    -0.290 N 
ATOM     28  N   UNL     1      34.695 -18.636 -21.276  0.00  0.00    -0.268 N 
ATOM     29  C   UNL     1      35.015 -17.316 -20.910  0.00  0.00    +0.304 C 
ATOM     30  H   UNL     1      34.691 -16.838 -22.888  0.00  0.00    +0.151 HD
ATOM     31  H   UNL     1      34.472 -18.775 -22.224  0.00  0.00    +0.156 HD
BRANCH  27  32
ATOM     32  C   UNL     1      35.219 -15.055 -21.927  0.00  0.00    +0.073 C 
ATOM     33  C   UNL     1      34.216 -14.112 -21.347  0.00  0.00    +0.021 C 
ATOM     34  C   UNL     1      34.517 -14.082 -22.817  0.00  0.00    +0.021 C 
ENDBRANCH  27  32
ENDBRANCH  20  28
ENDBRANCH   1  23
TORSDOF 6
ENDMDL
MODEL 8
REMARK VINA RESULT:     -10.1      7.467     11.984
REMARK  Name = 9823820
REMARK  6 active torsions:
REMARK  status: ('A' for Active; 'I' for Inactive)
REMARK    1  A    between atoms: O_1  and  C_4
REMARK    2  A    between atoms: O_1  and  C_23
REMARK    3  A    between atoms: C_7  and  C_14
REMARK    4  A    between atoms: C_8  and  O_17
REMARK    5  A    between atoms: C_20  and  N_28
REMARK    6  A    between atoms: N_27  and  C_32
REMARK                            x       y       z     vdW  Elec       q    Type
REMARK                         _______ _______ _______ _____ _____    ______ ____
ROOT
ATOM      1  O   UNL     1      34.563 -13.043 -22.826  0.00  0.00    -0.454 OA
ENDROOT
BRANCH   1   4
ATOM      2  N   UNL     1      33.438 -15.766 -25.744  0.00  0.00    -0.248 NA
ATOM      3  C   UNL     1      34.420 -15.330 -23.587  0.00  0.00    +0.031 C 
ATOM      4  C   UNL     1      34.201 -13.958 -23.772  0.00  0.00    +0.144 C 
ATOM      5  C   UNL     1      34.017 -16.210 -24.613  0.00  0.00    +0.066 C 
ATOM      6  C   UNL     1      35.021 -15.829 -22.420  0.00  0.00    +0.064 C 
ATOM      7  C   UNL     1      35.227 -17.196 -22.262  0.00  0.00    +0.065 C 
ATOM      8  C   UNL     1      34.832 -18.069 -23.267  0.00  0.00    +0.123 C 
ATOM      9  C   UNL     1      34.234 -17.573 -24.428  0.00  0.00    +0.109 C 
ATOM     10  C   UNL     1      33.605 -13.497 -24.936  0.00  0.00    +0.058 C 
ATOM     11  C   UNL     1      33.245 -14.434 -25.883  0.00  0.00    +0.102 C 
BRANCH   7  14
ATOM     12  O   UNL     1      35.481 -17.297 -19.922  0.00  0.00    -0.271 OA
ATOM     13  N   UNL     1      36.867 -18.630 -21.171  0.00  0.00    -0.325 N 
ATOM     14  C   UNL     1      35.852 -17.689 -21.042  0.00  0.00    +0.242 C 
ATOM     15  H   UNL     1      37.313 -18.987 -20.369  0.00  0.00    +0.145 HD
ATOM     16  H   UNL     1      37.140 -18.940 -22.065  0.00  0.00    +0.145 HD
ENDBRANCH   7  14
BRANCH   8  17
ATOM     17  O   UNL     1      35.019 -19.413 -23.142  0.00  0.00    -0.475 OA
ATOM     18  C   UNL     1      34.967 -20.189 -24.338  0.00  0.00    +0.252 C 
ENDBRANCH   8  17
ENDBRANCH   1   4
BRANCH   1  23
ATOM     19 CL   UNL     1      30.577 -10.667 -20.776  0.00  0.00    -0.081 Cl
ATOM     20  C   UNL     1      32.316  -9.562 -22.565  0.00  0.00    +0.062 C 
ATOM     21  C   UNL     1      31.953 -10.684 -21.820  0.00  0.00    +0.074 C 
ATOM     22  C   UNL     1      33.435  -9.610 -23.397  0.00  0.00    +0.019 C 
ATOM     23  C   UNL     1      33.815 -11.883 -22.738  0.00  0.00    +0.146 C 
ATOM     24  C   UNL     1      32.708 -11.853 -21.907  0.00  0.00    +0.050 C 
ATOM     25  C   UNL     1      34.190 -10.780 -23.484  0.00  0.00    +0.039 C 
BRANCH  20  28
ATOM     26  O   UNL     1      32.722  -7.112 -20.876  0.00  0.00    -0.252 OA
ATOM     27  N   UNL     1      30.847  -6.261 -21.923  0.00  0.00    -0.290 N 
ATOM     28  N   UNL     1      31.582  -8.374 -22.501  0.00  0.00    -0.268 N 
ATOM     29  C   UNL     1      31.811  -7.248 -21.690  0.00  0.00    +0.304 C 
ATOM     30  H   UNL     1      30.144  -6.436 -22.590  0.00  0.00    +0.151 HD
ATOM     31  H   UNL     1      30.803  -8.319 -23.101  0.00  0.00    +0.156 HD
BRANCH  27  32
ATOM     32  C   UNL     1      30.840  -5.005 -21.230  0.00  0.00    +0.073 C 
ATOM     33  C   UNL     1      30.467  -3.742 -21.938  0.00  0.00    +0.021 C 
ATOM     34  C   UNL     1      31.885  -3.974 -21.506  0.00  0.00    +0.021 C 
ENDBRANCH  27  32
ENDBRANCH  20  28
ENDBRANCH   1  23
TORSDOF 6
ENDMDL
MODEL 9
REMARK VINA RESULT:     -10.0      4.298      7.786
REMARK  Name = 9823820
REMARK  6 active torsions:
REMARK  status: ('A' for Active; 'I' for Inactive)
REMARK    1  A    between atoms: O_1  and  C_4
REMARK    2  A    between atoms: O_1  and  C_23
REMARK    3  A    between atoms: C_7  and  C_14
REMARK    4  A    between atoms: C_8  and  O_17
REMARK    5  A    between atoms: C_20  and  N_28
REMARK    6  A    between atoms: N_27  and  C_32
REMARK                            x       y       z     vdW  Elec       q    Type
REMARK                         _______ _______ _______ _____ _____    ______ ____
ROOT
ATOM      1  O   UNL     1      34.545 -17.886 -22.445  0.00  0.00    -0.454 OA
ENDROOT
BRANCH   1   4
ATOM      2  N   UNL     1      37.960 -19.323 -20.583  0.00  0.00    -0.248 NA
ATOM      3  C   UNL     1      35.561 -19.333 -20.799  0.00  0.00    +0.031 C 
ATOM      4  C   UNL     1      35.655 -18.374 -21.817  0.00  0.00    +0.144 C 
ATOM      5  C   UNL     1      36.755 -19.785 -20.202  0.00  0.00    +0.066 C 
ATOM      6  C   UNL     1      34.320 -19.837 -20.376  0.00  0.00    +0.064 C 
ATOM      7  C   UNL     1      34.254 -20.789 -19.363  0.00  0.00    +0.065 C 
ATOM      8  C   UNL     1      35.426 -21.240 -18.770  0.00  0.00    +0.123 C 
ATOM      9  C   UNL     1      36.660 -20.738 -19.190  0.00  0.00    +0.109 C 
ATOM     10  C   UNL     1      36.895 -17.895 -22.213  0.00  0.00    +0.058 C 
ATOM     11  C   UNL     1      38.008 -18.398 -21.569  0.00  0.00    +0.102 C 
BRANCH   7  14
ATOM     12  O   UNL     1      31.945 -20.574 -18.951  0.00  0.00    -0.271 OA
ATOM     13  N   UNL     1      32.880 -22.628 -18.548  0.00  0.00    -0.325 N 
ATOM     14  C   UNL     1      32.956 -21.297 -18.943  0.00  0.00    +0.242 C 
ATOM     15  H   UNL     1      32.019 -23.008 -18.258  0.00  0.00    +0.145 HD
ATOM     16  H   UNL     1      33.687 -23.192 -18.560  0.00  0.00    +0.145 HD
ENDBRANCH   7  14
BRANCH   8  17
ATOM     17  O   UNL     1      35.395 -22.172 -17.776  0.00  0.00    -0.475 OA
ATOM     18  C   UNL     1      36.411 -22.089 -16.778  0.00  0.00    +0.252 C 
ENDBRANCH   8  17
ENDBRANCH   1   4
BRANCH   1  23
ATOM     19 CL   UNL     1      33.634 -14.121 -25.720  0.00  0.00    -0.081 Cl
ATOM     20  C   UNL     1      34.359 -13.793 -23.110  0.00  0.00    +0.062 C 
ATOM     21  C   UNL     1      34.072 -14.681 -24.146  0.00  0.00    +0.074 C 
ATOM     22  C   UNL     1      34.708 -14.280 -21.850  0.00  0.00    +0.019 C 
ATOM     23  C   UNL     1      34.482 -16.522 -22.667  0.00  0.00    +0.146 C 
ATOM     24  C   UNL     1      34.134 -16.057 -23.923  0.00  0.00    +0.050 C 
ATOM     25  C   UNL     1      34.770 -15.656 -21.627  0.00  0.00    +0.039 C 
BRANCH  20  28
ATOM     26  O   UNL     1      32.344 -11.775 -22.165  0.00  0.00    -0.252 OA
ATOM     27  N   UNL     1      33.643 -10.196 -23.239  0.00  0.00    -0.290 N 
ATOM     28  N   UNL     1      34.306 -12.409 -23.299  0.00  0.00    -0.268 N 
ATOM     29  C   UNL     1      33.337 -11.500 -22.836  0.00  0.00    +0.304 C 
ATOM     30  H   UNL     1      34.455 -10.046 -23.775  0.00  0.00    +0.151 HD
ATOM     31  H   UNL     1      35.041 -12.020 -23.826  0.00  0.00    +0.156 HD
BRANCH  27  32
ATOM     32  C   UNL     1      32.823  -9.068 -22.905  0.00  0.00    +0.073 C 
ATOM     33  C   UNL     1      33.403  -7.692 -22.837  0.00  0.00    +0.021 C 
ATOM     34  C   UNL     1      32.962  -8.386 -21.583  0.00  0.00    +0.021 C 
ENDBRANCH  27  32
ENDBRANCH  20  28
ENDBRANCH   1  23
TORSDOF 6
ENDMDL
