MODEL 1
REMARK VINA RESULT:     -13.3      0.000      0.000
REMARK  Name = 76958312
REMARK  3 active torsions:
REMARK  status: ('A' for Active; 'I' for Inactive)
REMARK    1  A    between atoms: C_16  and  C_21
REMARK    2  A    between atoms: C_26  and  N_28
REMARK    3  A    between atoms: N_29  and  C_34
REMARK                            x       y       z     vdW  Elec       q    Type
REMARK                         _______ _______ _______ _____ _____    ______ ____
ROOT
ATOM      1  O   UNL     1      30.809 -22.903 -12.687  0.00  0.00    -0.350 OA
ATOM      2  O   UNL     1      38.722 -25.201 -12.442  0.00  0.00    -0.350 OA
ATOM      3  N   UNL     1      31.945 -24.419 -14.791  0.00  0.00    -0.231 N 
ATOM      4  N   UNL     1      34.213 -24.519 -14.397  0.00  0.00    -0.246 NA
ATOM      5  N   UNL     1      33.319 -23.285 -16.251  0.00  0.00    -0.260 NA
ATOM      6  N   UNL     1      36.524 -24.563 -14.074  0.00  0.00    -0.228 N 
ATOM      7  N   UNL     1      35.690 -23.354 -15.887  0.00  0.00    -0.260 NA
ATOM      8  C   UNL     1      31.659 -25.059 -13.505  0.00  0.00    +0.114 C 
ATOM      9  C   UNL     1      30.784 -23.566 -15.053  0.00  0.00    +0.114 C 
ATOM     10  C   UNL     1      30.198 -25.502 -13.697  0.00  0.00    +0.025 C 
ATOM     11  C   UNL     1      29.620 -24.516 -14.719  0.00  0.00    +0.025 C 
ATOM     12  C   UNL     1      30.859 -22.411 -14.036  0.00  0.00    +0.163 C 
ATOM     13  C   UNL     1      31.762 -23.951 -12.440  0.00  0.00    +0.163 C 
ATOM     14  C   UNL     1      33.208 -24.061 -15.161  0.00  0.00    +0.224 C 
ATOM     15  C   UNL     1      35.425 -24.125 -14.819  0.00  0.00    +0.224 C 
ATOM     16  C   UNL     1      34.589 -22.972 -16.554  0.00  0.00    +0.163 C 
ATOM     17  C   UNL     1      37.881 -24.175 -14.473  0.00  0.00    +0.135 C 
ATOM     18  C   UNL     1      36.338 -24.797 -12.635  0.00  0.00    +0.135 C 
ATOM     19  C   UNL     1      37.433 -25.723 -12.119  0.00  0.00    +0.164 C 
ATOM     20  C   UNL     1      38.894 -25.134 -13.857  0.00  0.00    +0.164 C 
ENDROOT
BRANCH  16  21
ATOM     21  C   UNL     1      34.792 -22.141 -17.711  0.00  0.00    +0.087 C 
ATOM     22  C   UNL     1      36.078 -21.719 -18.050  0.00  0.00    +0.013 C 
ATOM     23  C   UNL     1      33.703 -21.758 -18.494  0.00  0.00    +0.013 C 
ATOM     24  C   UNL     1      36.274 -20.914 -19.173  0.00  0.00    +0.015 C 
ATOM     25  C   UNL     1      33.900 -20.952 -19.616  0.00  0.00    +0.015 C 
ATOM     26  C   UNL     1      35.186 -20.530 -19.955  0.00  0.00    +0.052 C 
BRANCH  26  28
ATOM     27  O   UNL     1      33.957 -17.908 -20.685  0.00  0.00    -0.252 OA
ATOM     28  N   UNL     1      35.382 -19.725 -21.077  0.00  0.00    -0.268 N 
ATOM     29  N   UNL     1      35.262 -18.012 -22.623  0.00  0.00    -0.268 N 
ATOM     30  C   UNL     1      34.780 -18.482 -21.391  0.00  0.00    +0.308 C 
ATOM     31  H   UNL     1      36.026 -20.067 -21.740  0.00  0.00    +0.156 HD
ATOM     32  H   UNL     1      35.922 -18.586 -23.075  0.00  0.00    +0.156 HD
BRANCH  29  34
ATOM     33  N   UNL     1      34.234 -14.450 -24.616  0.00  0.00    -0.242 NA
ATOM     34  C   UNL     1      34.917 -16.815 -23.293  0.00  0.00    +0.055 C 
ATOM     35  C   UNL     1      35.078 -15.588 -22.658  0.00  0.00    +0.035 C 
ATOM     36  C   UNL     1      34.415 -16.861 -24.589  0.00  0.00    +0.035 C 
ATOM     37  C   UNL     1      34.724 -14.446 -23.356  0.00  0.00    +0.100 C 
ATOM     38  C   UNL     1      34.092 -15.660 -25.201  0.00  0.00    +0.100 C 
ENDBRANCH  29  34
ENDBRANCH  26  28
ENDBRANCH  16  21
TORSDOF 3
ENDMDL
MODEL 2
REMARK VINA RESULT:     -12.7      1.001      4.597
REMARK  Name = 76958312
REMARK  3 active torsions:
REMARK  status: ('A' for Active; 'I' for Inactive)
REMARK    1  A    between atoms: C_16  and  C_21
REMARK    2  A    between atoms: C_26  and  N_28
REMARK    3  A    between atoms: N_29  and  C_34
REMARK                            x       y       z     vdW  Elec       q    Type
REMARK                         _______ _______ _______ _____ _____    ______ ____
ROOT
ATOM      1  O   UNL     1      37.809 -27.119 -14.043  0.00  0.00    -0.350 OA
ATOM      2  O   UNL     1      29.929 -24.866 -13.158  0.00  0.00    -0.350 OA
ATOM      3  N   UNL     1      37.113 -24.404 -13.648  0.00  0.00    -0.231 N 
ATOM      4  N   UNL     1      34.816 -24.275 -13.780  0.00  0.00    -0.246 NA
ATOM      5  N   UNL     1      36.222 -23.295 -15.460  0.00  0.00    -0.260 NA
ATOM      6  N   UNL     1      32.499 -24.096 -13.997  0.00  0.00    -0.228 N 
ATOM      7  N   UNL     1      33.835 -23.132 -15.648  0.00  0.00    -0.260 NA
ATOM      8  C   UNL     1      37.029 -25.346 -12.531  0.00  0.00    +0.114 C 
ATOM      9  C   UNL     1      38.361 -24.743 -14.332  0.00  0.00    +0.114 C 
ATOM     10  C   UNL     1      38.456 -25.279 -11.960  0.00  0.00    +0.025 C 
ATOM     11  C   UNL     1      39.336 -24.880 -13.150  0.00  0.00    +0.025 C 
ATOM     12  C   UNL     1      38.126 -26.106 -15.011  0.00  0.00    +0.163 C 
ATOM     13  C   UNL     1      36.751 -26.728 -13.151  0.00  0.00    +0.163 C 
ATOM     14  C   UNL     1      36.007 -23.974 -14.322  0.00  0.00    +0.224 C 
ATOM     15  C   UNL     1      33.775 -23.823 -14.498  0.00  0.00    +0.224 C 
ATOM     16  C   UNL     1      35.091 -22.906 -16.069  0.00  0.00    +0.163 C 
ATOM     17  C   UNL     1      31.312 -23.634 -14.725  0.00  0.00    +0.135 C 
ATOM     18  C   UNL     1      32.311 -25.322 -13.207  0.00  0.00    +0.135 C 
ATOM     19  C   UNL     1      31.058 -25.193 -12.348  0.00  0.00    +0.164 C 
ATOM     20  C   UNL     1      30.112 -23.597 -13.785  0.00  0.00    +0.164 C 
ENDROOT
BRANCH  16  21
ATOM     21  C   UNL     1      35.236 -22.172 -17.298  0.00  0.00    +0.087 C 
ATOM     22  C   UNL     1      36.473 -21.626 -17.642  0.00  0.00    +0.013 C 
ATOM     23  C   UNL     1      34.140 -22.005 -18.145  0.00  0.00    +0.013 C 
ATOM     24  C   UNL     1      36.614 -20.915 -18.834  0.00  0.00    +0.015 C 
ATOM     25  C   UNL     1      34.282 -21.293 -19.336  0.00  0.00    +0.015 C 
ATOM     26  C   UNL     1      35.518 -20.748 -19.680  0.00  0.00    +0.052 C 
BRANCH  26  28
ATOM     27  O   UNL     1      34.156 -18.258 -20.610  0.00  0.00    -0.252 OA
ATOM     28  N   UNL     1      35.659 -20.036 -20.872  0.00  0.00    -0.268 N 
ATOM     29  N   UNL     1      35.434 -18.472 -22.557  0.00  0.00    -0.268 N 
ATOM     30  C   UNL     1      34.994 -18.854 -21.280  0.00  0.00    +0.308 C 
ATOM     31  H   UNL     1      36.307 -20.405 -21.515  0.00  0.00    +0.156 HD
ATOM     32  H   UNL     1      36.113 -19.053 -22.971  0.00  0.00    +0.156 HD
BRANCH  29  34
ATOM     33  N   UNL     1      34.209 -15.149 -24.832  0.00  0.00    -0.242 NA
ATOM     34  C   UNL     1      35.022 -17.356 -23.323  0.00  0.00    +0.055 C 
ATOM     35  C   UNL     1      35.380 -16.071 -22.930  0.00  0.00    +0.035 C 
ATOM     36  C   UNL     1      34.258 -17.539 -24.469  0.00  0.00    +0.035 C 
ATOM     37  C   UNL     1      34.952 -15.011 -23.711  0.00  0.00    +0.100 C 
ATOM     38  C   UNL     1      33.881 -16.412 -25.183  0.00  0.00    +0.100 C 
ENDBRANCH  29  34
ENDBRANCH  26  28
ENDBRANCH  16  21
TORSDOF 3
ENDMDL
