MODEL 1
REMARK VINA RESULT:     -11.5      0.000      0.000
REMARK  Name = 2765355
REMARK  2 active torsions:
REMARK  status: ('A' for Active; 'I' for Inactive)
REMARK    1  A    between atoms: C_4  and  C_20
REMARK    2  A    between atoms: C_6  and  C_13
REMARK                            x       y       z     vdW  Elec       q    Type
REMARK                         _______ _______ _______ _____ _____    ______ ____
ROOT
ATOM      1  O   UNL     1      31.562 -22.561 -17.260  0.00  0.00    -0.353 OA
ATOM      2  N   UNL     1      31.107 -23.249 -16.143  0.00  0.00    -0.077 NA
ATOM      3  C   UNL     1      33.355 -22.997 -16.054  0.00  0.00    +0.058 A 
ATOM      4  C   UNL     1      32.912 -22.413 -17.202  0.00  0.00    +0.177 A 
ATOM      5  C   UNL     1      32.189 -23.523 -15.393  0.00  0.00    +0.123 A 
ATOM      6  C   UNL     1      34.761 -23.739 -14.391  0.00  0.00    +0.031 C 
ATOM      7  C   UNL     1      34.672 -23.062 -15.623  0.00  0.00    +0.007 C 
ATOM      8  C   UNL     1      32.304 -24.197 -14.164  0.00  0.00    +0.023 C 
ATOM      9  C   UNL     1      33.634 -24.281 -13.693  0.00  0.00    +0.004 C 
ENDROOT
BRANCH   6  13
ATOM     10  N   UNL     1      37.007 -24.422 -14.606  0.00  0.00    -0.338 NA
ATOM     11  N   UNL     1      38.579 -24.248 -12.788  0.00  0.00    -0.170 NA
ATOM     12  N   UNL     1      39.234 -25.116 -14.868  0.00  0.00    -0.293 N 
ATOM     13  C   UNL     1      36.072 -23.898 -13.792  0.00  0.00    +0.146 C 
ATOM     14  C   UNL     1      36.302 -23.528 -12.486  0.00  0.00    +0.055 C 
ATOM     15  C   UNL     1      37.590 -23.729 -12.031  0.00  0.00    +0.114 C 
ATOM     16  C   UNL     1      38.223 -24.568 -14.047  0.00  0.00    +0.141 C 
ATOM     17  H   UNL     1      39.029 -25.368 -15.798  0.00  0.00    +0.155 HD
ATOM     18  H   UNL     1      40.141 -25.245 -14.511  0.00  0.00    +0.155 HD
ENDBRANCH   6  13
BRANCH   4  20
ATOM     19 CL   UNL     1      35.365 -19.513 -21.785  0.00  0.00    -0.082 Cl
ATOM     20  C   UNL     1      33.503 -21.715 -18.307  0.00  0.00    +0.037 C 
ATOM     21  C   UNL     1      34.871 -21.842 -18.570  0.00  0.00    +0.004 C 
ATOM     22  C   UNL     1      32.717 -20.901 -19.128  0.00  0.00    +0.004 C 
ATOM     23  C   UNL     1      35.446 -21.162 -19.645  0.00  0.00    +0.011 C 
ATOM     24  C   UNL     1      33.292 -20.222 -20.203  0.00  0.00    +0.011 C 
ATOM     25  C   UNL     1      34.656 -20.352 -20.460  0.00  0.00    +0.058 C 
ENDBRANCH   4  20
TORSDOF 2
ENDMDL
MODEL 2
REMARK VINA RESULT:     -11.4      9.034     12.392
REMARK  Name = 2765355
REMARK  2 active torsions:
REMARK  status: ('A' for Active; 'I' for Inactive)
REMARK    1  A    between atoms: C_4  and  C_20
REMARK    2  A    between atoms: C_6  and  C_13
REMARK                            x       y       z     vdW  Elec       q    Type
REMARK                         _______ _______ _______ _____ _____    ______ ____
ROOT
ATOM      1  O   UNL     1      34.657 -16.438 -25.208  0.00  0.00    -0.353 OA
ATOM      2  N   UNL     1      34.262 -15.388 -26.026  0.00  0.00    -0.077 NA
ATOM      3  C   UNL     1      33.923 -14.864 -23.850  0.00  0.00    +0.058 A 
ATOM      4  C   UNL     1      34.451 -16.118 -23.903  0.00  0.00    +0.177 A 
ATOM      5  C   UNL     1      33.811 -14.415 -25.213  0.00  0.00    +0.123 A 
ATOM      6  C   UNL     1      33.058 -12.899 -23.023  0.00  0.00    +0.031 C 
ATOM      7  C   UNL     1      33.571 -14.171 -22.701  0.00  0.00    +0.007 C 
ATOM      8  C   UNL     1      33.294 -13.142 -25.509  0.00  0.00    +0.023 C 
ATOM      9  C   UNL     1      32.924 -12.406 -24.360  0.00  0.00    +0.004 C 
ENDROOT
BRANCH   6  13
ATOM     10  N   UNL     1      32.556 -10.730 -22.248  0.00  0.00    -0.338 NA
ATOM     11  N   UNL     1      31.862 -10.309 -19.979  0.00  0.00    -0.170 NA
ATOM     12  N   UNL     1      32.068  -8.552 -21.522  0.00  0.00    -0.293 N 
ATOM     13  C   UNL     1      32.638 -12.036 -21.935  0.00  0.00    +0.146 C 
ATOM     14  C   UNL     1      32.355 -12.555 -20.691  0.00  0.00    +0.055 C 
ATOM     15  C   UNL     1      31.967 -11.633 -19.740  0.00  0.00    +0.114 C 
ATOM     16  C   UNL     1      32.167  -9.932 -21.236  0.00  0.00    +0.141 C 
ATOM     17  H   UNL     1      32.279  -8.220 -22.425  0.00  0.00    +0.155 HD
ATOM     18  H   UNL     1      31.787  -7.924 -20.819  0.00  0.00    +0.155 HD
ENDBRANCH   6  13
BRANCH   4  20
ATOM     19 CL   UNL     1      35.993 -20.316 -19.974  0.00  0.00    -0.082 Cl
ATOM     20  C   UNL     1      34.822 -17.130 -22.955  0.00  0.00    +0.037 C 
ATOM     21  C   UNL     1      35.413 -16.774 -21.740  0.00  0.00    +0.004 C 
ATOM     22  C   UNL     1      34.597 -18.480 -23.242  0.00  0.00    +0.004 C 
ATOM     23  C   UNL     1      35.774 -17.757 -20.818  0.00  0.00    +0.011 C 
ATOM     24  C   UNL     1      34.958 -19.463 -22.321  0.00  0.00    +0.011 C 
ATOM     25  C   UNL     1      35.547 -19.103 -21.110  0.00  0.00    +0.058 C 
ENDBRANCH   4  20
TORSDOF 2
ENDMDL
MODEL 3
REMARK VINA RESULT:     -11.4      0.784      1.410
REMARK  Name = 2765355
REMARK  2 active torsions:
REMARK  status: ('A' for Active; 'I' for Inactive)
REMARK    1  A    between atoms: C_4  and  C_20
REMARK    2  A    between atoms: C_6  and  C_13
REMARK                            x       y       z     vdW  Elec       q    Type
REMARK                         _______ _______ _______ _____ _____    ______ ____
ROOT
ATOM      1  O   UNL     1      31.507 -22.517 -17.303  0.00  0.00    -0.353 OA
ATOM      2  N   UNL     1      31.045 -23.206 -16.190  0.00  0.00    -0.077 NA
ATOM      3  C   UNL     1      33.297 -22.989 -16.106  0.00  0.00    +0.058 A 
ATOM      4  C   UNL     1      32.859 -22.390 -17.248  0.00  0.00    +0.177 A 
ATOM      5  C   UNL     1      32.126 -23.502 -15.445  0.00  0.00    +0.123 A 
ATOM      6  C   UNL     1      34.697 -23.763 -14.452  0.00  0.00    +0.031 C 
ATOM      7  C   UNL     1      34.614 -23.076 -15.679  0.00  0.00    +0.007 C 
ATOM      8  C   UNL     1      32.235 -24.186 -14.221  0.00  0.00    +0.023 C 
ATOM      9  C   UNL     1      33.565 -24.293 -13.755  0.00  0.00    +0.004 C 
ENDROOT
BRANCH   6  13
ATOM     10  N   UNL     1      36.143 -23.437 -12.619  0.00  0.00    -0.338 NA
ATOM     11  N   UNL     1      38.422 -24.221 -12.631  0.00  0.00    -0.170 NA
ATOM     12  N   UNL     1      37.547 -23.088 -10.771  0.00  0.00    -0.293 N 
ATOM     13  C   UNL     1      36.008 -23.945 -13.858  0.00  0.00    +0.146 C 
ATOM     14  C   UNL     1      37.009 -24.595 -14.544  0.00  0.00    +0.055 C 
ATOM     15  C   UNL     1      38.210 -24.705 -13.873  0.00  0.00    +0.114 C 
ATOM     16  C   UNL     1      37.361 -23.608 -12.072  0.00  0.00    +0.141 C 
ATOM     17  H   UNL     1      36.805 -22.630 -10.314  0.00  0.00    +0.155 HD
ATOM     18  H   UNL     1      38.417 -23.185 -10.323  0.00  0.00    +0.155 HD
ENDBRANCH   6  13
BRANCH   4  20
ATOM     19 CL   UNL     1      35.341 -19.494 -21.818  0.00  0.00    -0.082 Cl
ATOM     20  C   UNL     1      33.458 -21.693 -18.350  0.00  0.00    +0.037 C 
ATOM     21  C   UNL     1      34.825 -21.826 -18.609  0.00  0.00    +0.004 C 
ATOM     22  C   UNL     1      32.678 -20.873 -19.172  0.00  0.00    +0.004 C 
ATOM     23  C   UNL     1      35.407 -21.148 -19.681  0.00  0.00    +0.011 C 
ATOM     24  C   UNL     1      33.259 -20.195 -20.243  0.00  0.00    +0.011 C 
ATOM     25  C   UNL     1      34.624 -20.331 -20.497  0.00  0.00    +0.058 C 
ENDBRANCH   4  20
TORSDOF 2
ENDMDL
MODEL 4
REMARK VINA RESULT:     -11.4      1.983      5.208
REMARK  Name = 2765355
REMARK  2 active torsions:
REMARK  status: ('A' for Active; 'I' for Inactive)
REMARK    1  A    between atoms: C_4  and  C_20
REMARK    2  A    between atoms: C_6  and  C_13
REMARK                            x       y       z     vdW  Elec       q    Type
REMARK                         _______ _______ _______ _____ _____    ______ ____
ROOT
ATOM      1  O   UNL     1      36.436 -22.650 -16.461  0.00  0.00    -0.353 OA
ATOM      2  N   UNL     1      36.434 -23.385 -15.283  0.00  0.00    -0.077 NA
ATOM      3  C   UNL     1      34.319 -23.094 -16.037  0.00  0.00    +0.058 A 
ATOM      4  C   UNL     1      35.165 -22.479 -16.909  0.00  0.00    +0.177 A 
ATOM      5  C   UNL     1      35.148 -23.667 -15.008  0.00  0.00    +0.123 A 
ATOM      6  C   UNL     1      32.387 -23.871 -15.058  0.00  0.00    +0.031 C 
ATOM      7  C   UNL     1      32.937 -23.150 -16.136  0.00  0.00    +0.007 C 
ATOM      8  C   UNL     1      34.575 -24.380 -13.941  0.00  0.00    +0.023 C 
ATOM      9  C   UNL     1      33.166 -24.458 -14.010  0.00  0.00    +0.004 C 
ENDROOT
BRANCH   6  13
ATOM     10  N   UNL     1      30.258 -23.219 -15.832  0.00  0.00    -0.338 NA
ATOM     11  N   UNL     1      28.231 -24.222 -15.001  0.00  0.00    -0.170 NA
ATOM     12  N   UNL     1      28.160 -22.537 -16.632  0.00  0.00    -0.293 N 
ATOM     13  C   UNL     1      30.946 -24.028 -15.004  0.00  0.00    +0.146 C 
ATOM     14  C   UNL     1      30.366 -24.945 -14.158  0.00  0.00    +0.055 C 
ATOM     15  C   UNL     1      28.988 -25.000 -14.199  0.00  0.00    +0.114 C 
ATOM     16  C   UNL     1      28.921 -23.367 -15.779  0.00  0.00    +0.141 C 
ATOM     17  H   UNL     1      28.613 -21.893 -17.224  0.00  0.00    +0.155 HD
ATOM     18  H   UNL     1      27.178 -22.603 -16.635  0.00  0.00    +0.155 HD
ENDBRANCH   6  13
BRANCH   4  20
ATOM     19 CL   UNL     1      34.628 -19.368 -21.956  0.00  0.00    -0.082 Cl
ATOM     20  C   UNL     1      35.036 -21.730 -18.126  0.00  0.00    +0.037 C 
ATOM     21  C   UNL     1      36.170 -21.212 -18.758  0.00  0.00    +0.004 C 
ATOM     22  C   UNL     1      33.774 -21.510 -18.688  0.00  0.00    +0.004 C 
ATOM     23  C   UNL     1      36.045 -20.484 -19.942  0.00  0.00    +0.011 C 
ATOM     24  C   UNL     1      33.649 -20.782 -19.870  0.00  0.00    +0.011 C 
ATOM     25  C   UNL     1      34.783 -20.267 -20.497  0.00  0.00    +0.058 C 
ENDBRANCH   4  20
TORSDOF 2
ENDMDL
MODEL 5
REMARK VINA RESULT:     -10.4     11.566     14.159
REMARK  Name = 2765355
REMARK  2 active torsions:
REMARK  status: ('A' for Active; 'I' for Inactive)
REMARK    1  A    between atoms: C_4  and  C_20
REMARK    2  A    between atoms: C_6  and  C_13
REMARK                            x       y       z     vdW  Elec       q    Type
REMARK                         _______ _______ _______ _____ _____    ______ ____
ROOT
ATOM      1  O   UNL     1      31.606  -9.215 -20.044  0.00  0.00    -0.353 OA
ATOM      2  N   UNL     1      31.528 -10.392 -19.312  0.00  0.00    -0.077 NA
ATOM      3  C   UNL     1      32.292 -10.811 -21.402  0.00  0.00    +0.058 A 
ATOM      4  C   UNL     1      32.065  -9.472 -21.297  0.00  0.00    +0.177 A 
ATOM      5  C   UNL     1      31.944 -11.380 -20.125  0.00  0.00    +0.123 A 
ATOM      6  C   UNL     1      32.880 -12.858 -22.271  0.00  0.00    +0.031 C 
ATOM      7  C   UNL     1      32.766 -11.476 -22.522  0.00  0.00    +0.007 C 
ATOM      8  C   UNL     1      32.066 -12.762 -19.900  0.00  0.00    +0.023 C 
ATOM      9  C   UNL     1      32.547 -13.473 -21.022  0.00  0.00    +0.004 C 
ENDROOT
BRANCH   6  13
ATOM     10  N   UNL     1      34.163 -14.718 -22.945  0.00  0.00    -0.338 NA
ATOM     11  N   UNL     1      34.341 -15.381 -25.254  0.00  0.00    -0.170 NA
ATOM     12  N   UNL     1      35.452 -16.577 -23.568  0.00  0.00    -0.293 N 
ATOM     13  C   UNL     1      33.364 -13.709 -23.341  0.00  0.00    +0.146 C 
ATOM     14  C   UNL     1      33.010 -13.469 -24.649  0.00  0.00    +0.055 C 
ATOM     15  C   UNL     1      33.534 -14.349 -25.575  0.00  0.00    +0.114 C 
ATOM     16  C   UNL     1      34.610 -15.505 -23.941  0.00  0.00    +0.141 C 
ATOM     17  H   UNL     1      35.682 -16.715 -22.620  0.00  0.00    +0.155 HD
ATOM     18  H   UNL     1      35.808 -17.184 -24.255  0.00  0.00    +0.155 HD
ENDBRANCH   6  13
BRANCH   4  20
ATOM     19 CL   UNL     1      32.576  -4.722 -24.849  0.00  0.00    -0.082 Cl
ATOM     20  C   UNL     1      32.189  -8.327 -22.154  0.00  0.00    +0.037 C 
ATOM     21  C   UNL     1      33.424  -7.692 -22.306  0.00  0.00    +0.004 C 
ATOM     22  C   UNL     1      31.074  -7.839 -22.842  0.00  0.00    +0.004 C 
ATOM     23  C   UNL     1      33.545  -6.579 -23.139  0.00  0.00    +0.011 C 
ATOM     24  C   UNL     1      31.194  -6.726 -23.674  0.00  0.00    +0.011 C 
ATOM     25  C   UNL     1      32.429  -6.095 -23.822  0.00  0.00    +0.058 C 
ENDBRANCH   4  20
TORSDOF 2
ENDMDL
MODEL 6
REMARK VINA RESULT:     -10.2      3.950      6.702
REMARK  Name = 2765355
REMARK  2 active torsions:
REMARK  status: ('A' for Active; 'I' for Inactive)
REMARK    1  A    between atoms: C_4  and  C_20
REMARK    2  A    between atoms: C_6  and  C_13
REMARK                            x       y       z     vdW  Elec       q    Type
REMARK                         _______ _______ _______ _____ _____    ______ ____
ROOT
ATOM      1  O   UNL     1      35.159 -24.143 -13.613  0.00  0.00    -0.353 OA
ATOM      2  N   UNL     1      36.480 -23.775 -13.832  0.00  0.00    -0.077 NA
ATOM      3  C   UNL     1      35.162 -23.025 -15.514  0.00  0.00    +0.058 A 
ATOM      4  C   UNL     1      34.373 -23.691 -14.625  0.00  0.00    +0.177 A 
ATOM      5  C   UNL     1      36.502 -23.089 -14.989  0.00  0.00    +0.123 A 
ATOM      6  C   UNL     1      35.830 -21.819 -17.355  0.00  0.00    +0.031 C 
ATOM      7  C   UNL     1      34.742 -22.412 -16.685  0.00  0.00    +0.007 C 
ATOM      8  C   UNL     1      37.571 -22.490 -15.678  0.00  0.00    +0.023 C 
ATOM      9  C   UNL     1      37.179 -21.855 -16.878  0.00  0.00    +0.004 C 
ENDROOT
BRANCH   6  13
ATOM     10  N   UNL     1      36.597 -20.398 -19.073  0.00  0.00    -0.338 NA
ATOM     11  N   UNL     1      35.207 -19.786 -20.945  0.00  0.00    -0.170 NA
ATOM     12  N   UNL     1      37.403 -18.979 -20.760  0.00  0.00    -0.293 N 
ATOM     13  C   UNL     1      35.569 -21.130 -18.605  0.00  0.00    +0.146 C 
ATOM     14  C   UNL     1      34.348 -21.243 -19.232  0.00  0.00    +0.055 C 
ATOM     15  C   UNL     1      34.223 -20.540 -20.413  0.00  0.00    +0.114 C 
ATOM     16  C   UNL     1      36.350 -19.760 -20.233  0.00  0.00    +0.141 C 
ATOM     17  H   UNL     1      38.262 -18.924 -20.281  0.00  0.00    +0.155 HD
ATOM     18  H   UNL     1      37.278 -18.492 -21.605  0.00  0.00    +0.155 HD
ENDBRANCH   6  13
BRANCH   4  20
ATOM     19 CL   UNL     1      28.589 -25.021 -14.162  0.00  0.00    -0.082 Cl
ATOM     20  C   UNL     1      32.979 -24.011 -14.513  0.00  0.00    +0.037 C 
ATOM     21  C   UNL     1      32.516 -24.777 -13.439  0.00  0.00    +0.004 C 
ATOM     22  C   UNL     1      32.072 -23.560 -15.477  0.00  0.00    +0.004 C 
ATOM     23  C   UNL     1      31.160 -25.089 -13.329  0.00  0.00    +0.011 C 
ATOM     24  C   UNL     1      30.717 -23.871 -15.369  0.00  0.00    +0.011 C 
ATOM     25  C   UNL     1      30.261 -24.636 -14.296  0.00  0.00    +0.058 C 
ENDBRANCH   4  20
TORSDOF 2
ENDMDL
MODEL 7
REMARK VINA RESULT:     -10.0      9.252     12.845
REMARK  Name = 2765355
REMARK  2 active torsions:
REMARK  status: ('A' for Active; 'I' for Inactive)
REMARK    1  A    between atoms: C_4  and  C_20
REMARK    2  A    between atoms: C_6  and  C_13
REMARK                            x       y       z     vdW  Elec       q    Type
REMARK                         _______ _______ _______ _____ _____    ______ ____
ROOT
ATOM      1  O   UNL     1      34.493 -16.019 -25.554  0.00  0.00    -0.353 OA
ATOM      2  N   UNL     1      34.171 -15.001 -26.441  0.00  0.00    -0.077 NA
ATOM      3  C   UNL     1      33.910 -14.299 -24.304  0.00  0.00    +0.058 A 
ATOM      4  C   UNL     1      34.334 -15.593 -24.274  0.00  0.00    +0.177 A 
ATOM      5  C   UNL     1      33.813 -13.940 -25.696  0.00  0.00    +0.123 A 
ATOM      6  C   UNL     1      33.219 -12.217 -23.611  0.00  0.00    +0.031 C 
ATOM      7  C   UNL     1      33.633 -13.501 -23.205  0.00  0.00    +0.007 C 
ATOM      8  C   UNL     1      33.396 -12.652 -26.076  0.00  0.00    +0.023 C 
ATOM      9  C   UNL     1      33.105 -11.810 -24.979  0.00  0.00    +0.004 C 
ENDROOT
BRANCH   6  13
ATOM     10  N   UNL     1      32.528 -11.780 -21.400  0.00  0.00    -0.338 NA
ATOM     11  N   UNL     1      32.240  -9.537 -20.568  0.00  0.00    -0.170 NA
ATOM     12  N   UNL     1      31.836 -11.394 -19.191  0.00  0.00    -0.293 N 
ATOM     13  C   UNL     1      32.888 -11.249 -22.584  0.00  0.00    +0.146 C 
ATOM     14  C   UNL     1      32.950  -9.897 -22.839  0.00  0.00    +0.055 C 
ATOM     15  C   UNL     1      32.610  -9.079 -21.781  0.00  0.00    +0.114 C 
ATOM     16  C   UNL     1      32.220 -10.878 -20.449  0.00  0.00    +0.141 C 
ATOM     17  H   UNL     1      31.805 -12.368 -19.047  0.00  0.00    +0.155 HD
ATOM     18  H   UNL     1      31.601 -10.781 -18.459  0.00  0.00    +0.155 HD
ENDBRANCH   6  13
BRANCH   4  20
ATOM     19 CL   UNL     1      35.594 -19.617 -20.071  0.00  0.00    -0.082 Cl
ATOM     20  C   UNL     1      34.637 -16.562 -23.260  0.00  0.00    +0.037 C 
ATOM     21  C   UNL     1      35.133 -16.153 -22.019  0.00  0.00    +0.004 C 
ATOM     22  C   UNL     1      34.440 -17.925 -23.507  0.00  0.00    +0.004 C 
ATOM     23  C   UNL     1      35.428 -17.095 -21.033  0.00  0.00    +0.011 C 
ATOM     24  C   UNL     1      34.734 -18.867 -22.522  0.00  0.00    +0.011 C 
ATOM     25  C   UNL     1      35.229 -18.453 -21.286  0.00  0.00    +0.058 C 
ENDBRANCH   4  20
TORSDOF 2
ENDMDL
MODEL 8
REMARK VINA RESULT:     -10.0      3.562      6.812
REMARK  Name = 2765355
REMARK  2 active torsions:
REMARK  status: ('A' for Active; 'I' for Inactive)
REMARK    1  A    between atoms: C_4  and  C_20
REMARK    2  A    between atoms: C_6  and  C_13
REMARK                            x       y       z     vdW  Elec       q    Type
REMARK                         _______ _______ _______ _____ _____    ______ ____
ROOT
ATOM      1  O   UNL     1      33.644 -24.975 -13.390  0.00  0.00    -0.353 OA
ATOM      2  N   UNL     1      32.347 -24.590 -13.704  0.00  0.00    -0.077 NA
ATOM      3  C   UNL     1      33.804 -23.783 -15.238  0.00  0.00    +0.058 A 
ATOM      4  C   UNL     1      34.513 -24.488 -14.313  0.00  0.00    +0.177 A 
ATOM      5  C   UNL     1      32.424 -23.861 -14.832  0.00  0.00    +0.123 A 
ATOM      6  C   UNL     1      33.296 -22.504 -17.081  0.00  0.00    +0.031 C 
ATOM      7  C   UNL     1      34.322 -23.128 -16.344  0.00  0.00    +0.007 C 
ATOM      8  C   UNL     1      31.419 -23.228 -15.583  0.00  0.00    +0.023 C 
ATOM      9  C   UNL     1      31.912 -22.550 -16.721  0.00  0.00    +0.004 C 
ENDROOT
BRANCH   6  13
ATOM     10  N   UNL     1      32.633 -21.205 -18.934  0.00  0.00    -0.338 NA
ATOM     11  N   UNL     1      34.219 -20.362 -20.541  0.00  0.00    -0.170 NA
ATOM     12  N   UNL     1      31.926 -19.916 -20.763  0.00  0.00    -0.293 N 
ATOM     13  C   UNL     1      33.664 -21.770 -18.277  0.00  0.00    +0.146 C 
ATOM     14  C   UNL     1      34.979 -21.681 -18.676  0.00  0.00    +0.055 C 
ATOM     15  C   UNL     1      35.200 -20.956 -19.829  0.00  0.00    +0.114 C 
ATOM     16  C   UNL     1      32.978 -20.525 -20.043  0.00  0.00    +0.141 C 
ATOM     17  H   UNL     1      30.998 -20.002 -20.445  0.00  0.00    +0.155 HD
ATOM     18  H   UNL     1      32.121 -19.407 -21.582  0.00  0.00    +0.155 HD
ENDBRANCH   6  13
BRANCH   4  20
ATOM     19 CL   UNL     1      40.235 -25.866 -13.417  0.00  0.00    -0.082 Cl
ATOM     20  C   UNL     1      35.892 -24.820 -14.096  0.00  0.00    +0.037 C 
ATOM     21  C   UNL     1      36.745 -23.911 -13.463  0.00  0.00    +0.004 C 
ATOM     22  C   UNL     1      36.394 -26.056 -14.517  0.00  0.00    +0.004 C 
ATOM     23  C   UNL     1      38.086 -24.233 -13.252  0.00  0.00    +0.011 C 
ATOM     24  C   UNL     1      37.735 -26.378 -14.307  0.00  0.00    +0.011 C 
ATOM     25  C   UNL     1      38.581 -25.468 -13.675  0.00  0.00    +0.058 C 
ENDBRANCH   4  20
TORSDOF 2
ENDMDL
MODEL 9
REMARK VINA RESULT:     -10.0      9.682     12.649
REMARK  Name = 2765355
REMARK  2 active torsions:
REMARK  status: ('A' for Active; 'I' for Inactive)
REMARK    1  A    between atoms: C_4  and  C_20
REMARK    2  A    between atoms: C_6  and  C_13
REMARK                            x       y       z     vdW  Elec       q    Type
REMARK                         _______ _______ _______ _____ _____    ______ ____
ROOT
ATOM      1  O   UNL     1      32.963 -11.039 -25.409  0.00  0.00    -0.353 OA
ATOM      2  N   UNL     1      33.074 -12.188 -26.180  0.00  0.00    -0.077 NA
ATOM      3  C   UNL     1      33.624 -12.626 -24.028  0.00  0.00    +0.058 A 
ATOM      4  C   UNL     1      33.294 -11.307 -24.119  0.00  0.00    +0.177 A 
ATOM      5  C   UNL     1      33.477 -13.170 -25.354  0.00  0.00    +0.123 A 
ATOM      6  C   UNL     1      34.281 -14.651 -23.158  0.00  0.00    +0.031 C 
ATOM      7  C   UNL     1      34.020 -13.295 -22.880  0.00  0.00    +0.007 C 
ATOM      8  C   UNL     1      33.745 -14.526 -25.605  0.00  0.00    +0.023 C 
ATOM      9  C   UNL     1      34.152 -15.241 -24.456  0.00  0.00    +0.004 C 
ENDROOT
BRANCH   6  13
ATOM     10  N   UNL     1      35.198 -16.700 -22.436  0.00  0.00    -0.338 NA
ATOM     11  N   UNL     1      35.546 -17.197 -20.104  0.00  0.00    -0.170 NA
ATOM     12  N   UNL     1      36.113 -18.755 -21.765  0.00  0.00    -0.293 N 
ATOM     13  C   UNL     1      34.709 -15.502 -22.064  0.00  0.00    +0.146 C 
ATOM     14  C   UNL     1      34.605 -15.080 -20.758  0.00  0.00    +0.055 C 
ATOM     15  C   UNL     1      35.044 -15.980 -19.808  0.00  0.00    +0.114 C 
ATOM     16  C   UNL     1      35.593 -17.487 -21.418  0.00  0.00    +0.141 C 
ATOM     17  H   UNL     1      36.171 -19.020 -22.712  0.00  0.00    +0.155 HD
ATOM     18  H   UNL     1      36.417 -19.371 -21.061  0.00  0.00    +0.155 HD
ENDBRANCH   6  13
BRANCH   4  20
ATOM     19 CL   UNL     1      32.978  -6.679 -20.389  0.00  0.00    -0.082 Cl
ATOM     20  C   UNL     1      33.218 -10.192 -23.219  0.00  0.00    +0.037 C 
ATOM     21  C   UNL     1      32.319 -10.210 -22.149  0.00  0.00    +0.004 C 
ATOM     22  C   UNL     1      34.043  -9.078 -23.407  0.00  0.00    +0.004 C 
ATOM     23  C   UNL     1      32.245  -9.126 -21.273  0.00  0.00    +0.011 C 
ATOM     24  C   UNL     1      33.969  -7.994 -22.532  0.00  0.00    +0.011 C 
ATOM     25  C   UNL     1      33.070  -8.017 -21.467  0.00  0.00    +0.058 C 
ENDBRANCH   4  20
TORSDOF 2
ENDMDL
