MODEL 1
REMARK VINA RESULT:     -12.2      0.000      0.000
REMARK  Name = 57336276
REMARK  5 active torsions:
REMARK  status: ('A' for Active; 'I' for Inactive)
REMARK    1  A    between atoms: C_2  and  C_16
REMARK    2  A    between atoms: C_6  and  O_17
REMARK    3  A    between atoms: O_17  and  C_18
REMARK    4  A    between atoms: C_18  and  C_21
REMARK    5  A    between atoms: C_22  and  C_26
REMARK                            x       y       z     vdW  Elec       q    Type
REMARK                         _______ _______ _______ _____ _____    ______ ____
ROOT
ATOM      1  N   UNL     1      34.098 -12.163 -23.389  0.00  0.00    -0.210 NA
ATOM      2  C   UNL     1      32.503 -11.254 -21.815  0.00  0.00    +0.073 C 
ATOM      3  C   UNL     1      32.637 -12.385 -21.017  0.00  0.00    +0.011 C 
ATOM      4  C   UNL     1      33.250 -11.192 -22.981  0.00  0.00    +0.107 C 
ATOM      5  C   UNL     1      33.500 -13.405 -21.404  0.00  0.00    +0.058 C 
ATOM      6  C   UNL     1      34.201 -13.246 -22.588  0.00  0.00    +0.225 C 
ENDROOT
BRANCH   2  16
ATOM      7  S   UNL     1      32.446  -6.277 -23.123  0.00  0.00    -0.007 S 
ATOM      8  O   UNL     1      32.171  -5.863 -24.485  0.00  0.00    -0.173 OA
ATOM      9  O   UNL     1      33.032  -5.354 -22.170  0.00  0.00    -0.173 OA
ATOM     10  O   UNL     1      30.459 -10.488 -21.114  0.00  0.00    -0.270 OA
ATOM     11  N   UNL     1      32.097  -8.856 -21.472  0.00  0.00    -0.272 N 
ATOM     12  C   UNL     1      30.929  -6.911 -22.426  0.00  0.00    +0.172 C 
ATOM     13  C   UNL     1      33.470  -7.738 -23.189  0.00  0.00    +0.172 C 
ATOM     14  C   UNL     1      31.198  -7.737 -21.177  0.00  0.00    +0.119 C 
ATOM     15  C   UNL     1      33.464  -8.475 -21.858  0.00  0.00    +0.119 C 
ATOM     16  C   UNL     1      31.601 -10.161 -21.434  0.00  0.00    +0.251 C 
ENDBRANCH   2  16
BRANCH   6  17
ATOM     17  O   UNL     1      35.058 -14.237 -22.990  0.00  0.00    -0.455 OA
BRANCH  17  18
ATOM     18  C   UNL     1      34.966 -15.480 -22.306  0.00  0.00    +0.238 C 
BRANCH  18  21
ATOM     19  O   UNL     1      33.934 -17.624 -25.124  0.00  0.00    -0.358 OA
ATOM     20  N   UNL     1      34.339 -18.611 -24.235  0.00  0.00    -0.078 NA
ATOM     21  C   UNL     1      34.621 -16.558 -23.291  0.00  0.00    +0.075 A 
ATOM     22  C   UNL     1      34.745 -17.951 -23.147  0.00  0.00    +0.122 A 
ATOM     23  C   UNL     1      34.106 -16.406 -24.551  0.00  0.00    +0.154 A 
ATOM     24  C   UNL     1      33.723 -15.242 -25.362  0.00  0.00    +0.075 C 
BRANCH  22  26
ATOM     25  F   UNL     1      36.661 -20.734 -18.721  0.00  0.00    -0.204 F 
ATOM     26  C   UNL     1      35.240 -18.670 -22.004  0.00  0.00    +0.021 C 
ATOM     27  C   UNL     1      34.399 -19.538 -21.307  0.00  0.00    +0.004 C 
ATOM     28  C   UNL     1      36.562 -18.499 -21.589  0.00  0.00    +0.004 C 
ATOM     29  C   UNL     1      34.880 -20.236 -20.199  0.00  0.00    +0.030 C 
ATOM     30  C   UNL     1      37.042 -19.197 -20.481  0.00  0.00    +0.030 C 
ATOM     31  C   UNL     1      36.201 -20.064 -19.786  0.00  0.00    +0.140 C 
ENDBRANCH  22  26
ENDBRANCH  18  21
ENDBRANCH  17  18
ENDBRANCH   6  17
TORSDOF 5
ENDMDL
MODEL 2
REMARK VINA RESULT:     -12.2      4.587     10.428
REMARK  Name = 57336276
REMARK  5 active torsions:
REMARK  status: ('A' for Active; 'I' for Inactive)
REMARK    1  A    between atoms: C_2  and  C_16
REMARK    2  A    between atoms: C_6  and  O_17
REMARK    3  A    between atoms: O_17  and  C_18
REMARK    4  A    between atoms: C_18  and  C_21
REMARK    5  A    between atoms: C_22  and  C_26
REMARK                            x       y       z     vdW  Elec       q    Type
REMARK                         _______ _______ _______ _____ _____    ______ ____
ROOT
ATOM      1  N   UNL     1      33.529 -11.587 -24.507  0.00  0.00    -0.210 NA
ATOM      2  C   UNL     1      33.418 -13.944 -23.979  0.00  0.00    +0.073 C 
ATOM      3  C   UNL     1      33.078 -13.640 -22.665  0.00  0.00    +0.011 C 
ATOM      4  C   UNL     1      33.631 -12.890 -24.853  0.00  0.00    +0.107 C 
ATOM      5  C   UNL     1      32.962 -12.312 -22.272  0.00  0.00    +0.058 C 
ATOM      6  C   UNL     1      33.197 -11.332 -23.222  0.00  0.00    +0.225 C 
ENDROOT
BRANCH   2  16
ATOM      7  S   UNL     1      35.380 -18.096 -21.655  0.00  0.00    -0.007 S 
ATOM      8  O   UNL     1      34.752 -18.663 -20.477  0.00  0.00    -0.173 OA
ATOM      9  O   UNL     1      36.736 -18.458 -22.021  0.00  0.00    -0.173 OA
ATOM     10  O   UNL     1      32.729 -15.714 -25.262  0.00  0.00    -0.270 OA
ATOM     11  N   UNL     1      34.566 -16.113 -23.869  0.00  0.00    -0.272 N 
ATOM     12  C   UNL     1      34.319 -18.421 -23.053  0.00  0.00    +0.172 C 
ATOM     13  C   UNL     1      35.292 -16.318 -21.521  0.00  0.00    +0.172 C 
ATOM     14  C   UNL     1      34.671 -17.529 -24.234  0.00  0.00    +0.119 C 
ATOM     15  C   UNL     1      35.539 -15.651 -22.867  0.00  0.00    +0.119 C 
ATOM     16  C   UNL     1      33.547 -15.336 -24.425  0.00  0.00    +0.251 C 
ENDBRANCH   2  16
BRANCH   6  17
ATOM     17  O   UNL     1      33.089 -10.015 -22.859  0.00  0.00    -0.455 OA
BRANCH  17  18
ATOM     18  C   UNL     1      31.887  -9.627 -22.205  0.00  0.00    +0.238 C 
BRANCH  18  21
ATOM     19  O   UNL     1      32.615  -8.474 -18.778  0.00  0.00    -0.358 OA
ATOM     20  N   UNL     1      32.830  -7.283 -19.461  0.00  0.00    -0.078 NA
ATOM     21  C   UNL     1      32.229  -8.917 -20.929  0.00  0.00    +0.075 A 
ATOM     22  C   UNL     1      32.593  -7.572 -20.743  0.00  0.00    +0.122 A 
ATOM     23  C   UNL     1      32.258  -9.440 -19.663  0.00  0.00    +0.154 A 
ATOM     24  C   UNL     1      31.992 -10.772 -19.104  0.00  0.00    +0.075 C 
BRANCH  22  26
ATOM     25  F   UNL     1      33.092  -3.633 -24.646  0.00  0.00    -0.204 F 
ATOM     26  C   UNL     1      32.721  -6.554 -21.752  0.00  0.00    +0.021 C 
ATOM     27  C   UNL     1      33.787  -6.594 -22.651  0.00  0.00    +0.004 C 
ATOM     28  C   UNL     1      31.781  -5.526 -21.831  0.00  0.00    +0.004 C 
ATOM     29  C   UNL     1      33.912  -5.608 -23.629  0.00  0.00    +0.030 C 
ATOM     30  C   UNL     1      31.907  -4.539 -22.809  0.00  0.00    +0.030 C 
ATOM     31  C   UNL     1      32.972  -4.580 -23.708  0.00  0.00    +0.140 C 
ENDBRANCH  22  26
ENDBRANCH  18  21
ENDBRANCH  17  18
ENDBRANCH   6  17
TORSDOF 5
ENDMDL
MODEL 3
REMARK VINA RESULT:     -11.9      1.164      1.366
REMARK  Name = 57336276
REMARK  5 active torsions:
REMARK  status: ('A' for Active; 'I' for Inactive)
REMARK    1  A    between atoms: C_2  and  C_16
REMARK    2  A    between atoms: C_6  and  O_17
REMARK    3  A    between atoms: O_17  and  C_18
REMARK    4  A    between atoms: C_18  and  C_21
REMARK    5  A    between atoms: C_22  and  C_26
REMARK                            x       y       z     vdW  Elec       q    Type
REMARK                         _______ _______ _______ _____ _____    ______ ____
ROOT
ATOM      1  N   UNL     1      32.777 -12.339 -22.292  0.00  0.00    -0.210 NA
ATOM      2  C   UNL     1      32.036 -10.824 -20.560  0.00  0.00    +0.073 C 
ATOM      3  C   UNL     1      32.232 -11.812 -19.602  0.00  0.00    +0.011 C 
ATOM      4  C   UNL     1      32.321 -11.135 -21.881  0.00  0.00    +0.107 C 
ATOM      5  C   UNL     1      32.700 -13.064 -19.987  0.00  0.00    +0.058 C 
ATOM      6  C   UNL     1      32.955 -13.274 -21.333  0.00  0.00    +0.225 C 
ENDROOT
BRANCH   2  16
ATOM      7  S   UNL     1      32.082  -6.341 -23.088  0.00  0.00    -0.007 S 
ATOM      8  O   UNL     1      31.302  -6.153 -24.296  0.00  0.00    -0.173 OA
ATOM      9  O   UNL     1      33.141  -5.414 -22.736  0.00  0.00    -0.173 OA
ATOM     10  O   UNL     1      30.620  -9.467 -19.372  0.00  0.00    -0.270 OA
ATOM     11  N   UNL     1      32.142  -8.379 -20.777  0.00  0.00    -0.272 N 
ATOM     12  C   UNL     1      30.948  -6.442 -21.713  0.00  0.00    +0.172 C 
ATOM     13  C   UNL     1      32.771  -7.987 -23.129  0.00  0.00    +0.172 C 
ATOM     14  C   UNL     1      31.619  -7.041 -20.486  0.00  0.00    +0.119 C 
ATOM     15  C   UNL     1      33.245  -8.421 -21.750  0.00  0.00    +0.119 C 
ATOM     16  C   UNL     1      31.543  -9.493 -20.186  0.00  0.00    +0.251 C 
ENDBRANCH   2  16
BRANCH   6  17
ATOM     17  O   UNL     1      33.418 -14.499 -21.737  0.00  0.00    -0.455 OA
BRANCH  17  18
ATOM     18  C   UNL     1      34.555 -14.504 -22.592  0.00  0.00    +0.238 C 
BRANCH  18  21
ATOM     19  O   UNL     1      33.701 -16.142 -25.784  0.00  0.00    -0.358 OA
ATOM     20  N   UNL     1      34.105 -17.260 -25.065  0.00  0.00    -0.078 NA
ATOM     21  C   UNL     1      34.283 -15.399 -23.764  0.00  0.00    +0.075 A 
ATOM     22  C   UNL     1      34.448 -16.792 -23.862  0.00  0.00    +0.122 A 
ATOM     23  C   UNL     1      33.810 -15.041 -24.999  0.00  0.00    +0.154 A 
ATOM     24  C   UNL     1      33.420 -13.762 -25.610  0.00  0.00    +0.075 C 
BRANCH  22  26
ATOM     25  F   UNL     1      36.288 -20.262 -19.915  0.00  0.00    -0.204 F 
ATOM     26  C   UNL     1      34.923 -17.689 -22.842  0.00  0.00    +0.021 C 
ATOM     27  C   UNL     1      34.221 -18.860 -22.560  0.00  0.00    +0.004 C 
ATOM     28  C   UNL     1      36.087 -17.387 -22.134  0.00  0.00    +0.004 C 
ATOM     29  C   UNL     1      34.682 -19.730 -21.573  0.00  0.00    +0.030 C 
ATOM     30  C   UNL     1      36.548 -18.256 -21.145  0.00  0.00    +0.030 C 
ATOM     31  C   UNL     1      35.845 -19.427 -20.864  0.00  0.00    +0.140 C 
ENDBRANCH  22  26
ENDBRANCH  18  21
ENDBRANCH  17  18
ENDBRANCH   6  17
TORSDOF 5
ENDMDL
MODEL 4
REMARK VINA RESULT:     -11.7      6.112      9.808
REMARK  Name = 57336276
REMARK  5 active torsions:
REMARK  status: ('A' for Active; 'I' for Inactive)
REMARK    1  A    between atoms: C_2  and  C_16
REMARK    2  A    between atoms: C_6  and  O_17
REMARK    3  A    between atoms: O_17  and  C_18
REMARK    4  A    between atoms: C_18  and  C_21
REMARK    5  A    between atoms: C_22  and  C_26
REMARK                            x       y       z     vdW  Elec       q    Type
REMARK                         _______ _______ _______ _____ _____    ______ ____
ROOT
ATOM      1  N   UNL     1      32.747 -20.762 -19.526  0.00  0.00    -0.210 NA
ATOM      2  C   UNL     1      34.823 -19.670 -20.111  0.00  0.00    +0.073 C 
ATOM      3  C   UNL     1      35.541 -20.717 -19.544  0.00  0.00    +0.011 C 
ATOM      4  C   UNL     1      33.439 -19.739 -20.077  0.00  0.00    +0.107 C 
ATOM      5  C   UNL     1      34.864 -21.786 -18.968  0.00  0.00    +0.058 C 
ATOM      6  C   UNL     1      33.479 -21.760 -18.985  0.00  0.00    +0.225 C 
ENDROOT
BRANCH   2  16
ATOM      7  S   UNL     1      34.014 -17.207 -24.558  0.00  0.00    -0.007 S 
ATOM      8  O   UNL     1      32.803 -16.441 -24.781  0.00  0.00    -0.173 OA
ATOM      9  O   UNL     1      34.872 -17.581 -25.666  0.00  0.00    -0.173 OA
ATOM     10  O   UNL     1      36.069 -17.752 -19.954  0.00  0.00    -0.270 OA
ATOM     11  N   UNL     1      35.466 -18.406 -22.118  0.00  0.00    -0.272 N 
ATOM     12  C   UNL     1      35.003 -16.331 -23.357  0.00  0.00    +0.172 C 
ATOM     13  C   UNL     1      33.570 -18.690 -23.669  0.00  0.00    +0.172 C 
ATOM     14  C   UNL     1      36.071 -17.233 -22.756  0.00  0.00    +0.119 C 
ATOM     15  C   UNL     1      34.791 -19.339 -23.034  0.00  0.00    +0.119 C 
ATOM     16  C   UNL     1      35.509 -18.527 -20.727  0.00  0.00    +0.251 C 
ENDBRANCH   2  16
BRANCH   6  17
ATOM     17  O   UNL     1      32.788 -22.803 -18.424  0.00  0.00    -0.455 OA
BRANCH  17  18
ATOM     18  C   UNL     1      33.515 -23.654 -17.547  0.00  0.00    +0.238 C 
BRANCH  18  21
ATOM     19  O   UNL     1      31.884 -22.867 -14.334  0.00  0.00    -0.358 OA
ATOM     20  N   UNL     1      33.179 -23.080 -13.876  0.00  0.00    -0.078 NA
ATOM     21  C   UNL     1      33.099 -23.372 -16.133  0.00  0.00    +0.075 A 
ATOM     22  C   UNL     1      33.887 -23.380 -14.969  0.00  0.00    +0.122 A 
ATOM     23  C   UNL     1      31.849 -23.043 -15.679  0.00  0.00    +0.154 A 
ATOM     24  C   UNL     1      30.545 -22.854 -16.329  0.00  0.00    +0.075 C 
BRANCH  22  26
ATOM     25  F   UNL     1      39.330 -24.485 -14.573  0.00  0.00    -0.204 F 
ATOM     26  C   UNL     1      35.293 -23.665 -14.867  0.00  0.00    +0.021 C 
ATOM     27  C   UNL     1      35.721 -24.916 -14.420  0.00  0.00    +0.004 C 
ATOM     28  C   UNL     1      36.231 -22.691 -15.214  0.00  0.00    +0.004 C 
ATOM     29  C   UNL     1      37.084 -25.193 -14.322  0.00  0.00    +0.030 C 
ATOM     30  C   UNL     1      37.594 -22.969 -15.114  0.00  0.00    +0.030 C 
ATOM     31  C   UNL     1      38.021 -24.219 -14.668  0.00  0.00    +0.140 C 
ENDBRANCH  22  26
ENDBRANCH  18  21
ENDBRANCH  17  18
ENDBRANCH   6  17
TORSDOF 5
ENDMDL
MODEL 5
REMARK VINA RESULT:     -11.6      1.597      2.118
REMARK  Name = 57336276
REMARK  5 active torsions:
REMARK  status: ('A' for Active; 'I' for Inactive)
REMARK    1  A    between atoms: C_2  and  C_16
REMARK    2  A    between atoms: C_6  and  O_17
REMARK    3  A    between atoms: O_17  and  C_18
REMARK    4  A    between atoms: C_18  and  C_21
REMARK    5  A    between atoms: C_22  and  C_26
REMARK                            x       y       z     vdW  Elec       q    Type
REMARK                         _______ _______ _______ _____ _____    ______ ____
ROOT
ATOM      1  N   UNL     1      34.742 -13.481 -22.801  0.00  0.00    -0.210 NA
ATOM      2  C   UNL     1      33.274 -11.560 -22.759  0.00  0.00    +0.073 C 
ATOM      3  C   UNL     1      32.441 -12.209 -21.855  0.00  0.00    +0.011 C 
ATOM      4  C   UNL     1      34.404 -12.234 -23.198  0.00  0.00    +0.107 C 
ATOM      5  C   UNL     1      32.757 -13.492 -21.423  0.00  0.00    +0.058 C 
ATOM      6  C   UNL     1      33.908 -14.079 -21.922  0.00  0.00    +0.225 C 
ENDROOT
BRANCH   2  16
ATOM      7  S   UNL     1      32.463  -7.162 -20.212  0.00  0.00    -0.007 S 
ATOM      8  O   UNL     1      33.526  -6.524 -19.461  0.00  0.00    -0.173 OA
ATOM      9  O   UNL     1      31.078  -6.781 -20.010  0.00  0.00    -0.173 OA
ATOM     10  O   UNL     1      33.360  -9.928 -24.367  0.00  0.00    -0.270 OA
ATOM     11  N   UNL     1      32.276  -9.348 -22.376  0.00  0.00    -0.272 N 
ATOM     12  C   UNL     1      32.841  -6.992 -21.949  0.00  0.00    +0.172 C 
ATOM     13  C   UNL     1      32.600  -8.925 -19.968  0.00  0.00    +0.172 C 
ATOM     14  C   UNL     1      32.027  -7.965 -22.790  0.00  0.00    +0.119 C 
ATOM     15  C   UNL     1      31.813  -9.690 -21.022  0.00  0.00    +0.119 C 
ATOM     16  C   UNL     1      32.969 -10.206 -23.234  0.00  0.00    +0.251 C 
ENDBRANCH   2  16
BRANCH   6  17
ATOM     17  O   UNL     1      34.241 -15.343 -21.511  0.00  0.00    -0.455 OA
BRANCH  17  18
ATOM     18  C   UNL     1      35.345 -15.959 -22.163  0.00  0.00    +0.238 C 
BRANCH  18  21
ATOM     19  O   UNL     1      33.965 -18.145 -24.795  0.00  0.00    -0.358 OA
ATOM     20  N   UNL     1      34.278 -19.112 -23.848  0.00  0.00    -0.078 NA
ATOM     21  C   UNL     1      34.838 -17.050 -23.060  0.00  0.00    +0.075 A 
ATOM     22  C   UNL     1      34.798 -18.435 -22.820  0.00  0.00    +0.122 A 
ATOM     23  C   UNL     1      34.302 -16.921 -24.314  0.00  0.00    +0.154 A 
ATOM     24  C   UNL     1      34.035 -15.776 -25.196  0.00  0.00    +0.075 C 
BRANCH  22  26
ATOM     25  F   UNL     1      36.515 -21.130 -18.260  0.00  0.00    -0.204 F 
ATOM     26  C   UNL     1      35.241 -19.131 -21.642  0.00  0.00    +0.021 C 
ATOM     27  C   UNL     1      36.547 -18.962 -21.182  0.00  0.00    +0.004 C 
ATOM     28  C   UNL     1      34.366 -19.976 -20.959  0.00  0.00    +0.004 C 
ATOM     29  C   UNL     1      36.977 -19.636 -20.039  0.00  0.00    +0.030 C 
ATOM     30  C   UNL     1      34.796 -20.651 -19.817  0.00  0.00    +0.030 C 
ATOM     31  C   UNL     1      36.102 -20.482 -19.357  0.00  0.00    +0.140 C 
ENDBRANCH  22  26
ENDBRANCH  18  21
ENDBRANCH  17  18
ENDBRANCH   6  17
TORSDOF 5
ENDMDL
MODEL 6
REMARK VINA RESULT:     -11.1      6.050      9.773
REMARK  Name = 57336276
REMARK  5 active torsions:
REMARK  status: ('A' for Active; 'I' for Inactive)
REMARK    1  A    between atoms: C_2  and  C_16
REMARK    2  A    between atoms: C_6  and  O_17
REMARK    3  A    between atoms: O_17  and  C_18
REMARK    4  A    between atoms: C_18  and  C_21
REMARK    5  A    between atoms: C_22  and  C_26
REMARK                            x       y       z     vdW  Elec       q    Type
REMARK                         _______ _______ _______ _____ _____    ______ ____
ROOT
ATOM      1  N   UNL     1      36.245 -20.950 -19.185  0.00  0.00    -0.210 NA
ATOM      2  C   UNL     1      35.228 -18.992 -20.173  0.00  0.00    +0.073 C 
ATOM      3  C   UNL     1      33.978 -19.594 -20.097  0.00  0.00    +0.011 C 
ATOM      4  C   UNL     1      36.322 -19.706 -19.707  0.00  0.00    +0.107 C 
ATOM      5  C   UNL     1      33.859 -20.874 -19.564  0.00  0.00    +0.058 C 
ATOM      6  C   UNL     1      35.013 -21.503 -19.127  0.00  0.00    +0.225 C 
ENDROOT
BRANCH   2  16
ATOM      7  S   UNL     1      33.951 -17.028 -24.756  0.00  0.00    -0.007 S 
ATOM      8  O   UNL     1      32.563 -16.893 -25.153  0.00  0.00    -0.173 OA
ATOM      9  O   UNL     1      35.017 -16.932 -25.734  0.00  0.00    -0.173 OA
ATOM     10  O   UNL     1      35.428 -16.723 -19.914  0.00  0.00    -0.270 OA
ATOM     11  N   UNL     1      35.469 -17.509 -22.117  0.00  0.00    -0.272 N 
ATOM     12  C   UNL     1      34.269 -15.836 -23.465  0.00  0.00    +0.172 C 
ATOM     13  C   UNL     1      34.126 -18.578 -23.888  0.00  0.00    +0.172 C 
ATOM     14  C   UNL     1      35.546 -16.170 -22.707  0.00  0.00    +0.119 C 
ATOM     15  C   UNL     1      35.417 -18.617 -23.084  0.00  0.00    +0.119 C 
ATOM     16  C   UNL     1      35.387 -17.643 -20.729  0.00  0.00    +0.251 C 
ENDBRANCH   2  16
BRANCH   6  17
ATOM     17  O   UNL     1      34.922 -22.764 -18.598  0.00  0.00    -0.455 OA
BRANCH  17  18
ATOM     18  C   UNL     1      33.751 -23.061 -17.847  0.00  0.00    +0.238 C 
BRANCH  18  21
ATOM     19  O   UNL     1      35.188 -22.818 -14.458  0.00  0.00    -0.358 OA
ATOM     20  N   UNL     1      33.866 -23.080 -14.119  0.00  0.00    -0.078 NA
ATOM     21  C   UNL     1      34.082 -23.013 -16.384  0.00  0.00    +0.075 A 
ATOM     22  C   UNL     1      33.225 -23.193 -15.285  0.00  0.00    +0.122 A 
ATOM     23  C   UNL     1      35.304 -22.780 -15.810  0.00  0.00    +0.154 A 
ATOM     24  C   UNL     1      36.647 -22.512 -16.343  0.00  0.00    +0.075 C 
BRANCH  22  26
ATOM     25  F   UNL     1      27.761 -24.260 -15.394  0.00  0.00    -0.204 F 
ATOM     26  C   UNL     1      31.813 -23.469 -15.313  0.00  0.00    +0.021 C 
ATOM     27  C   UNL     1      30.967 -22.698 -16.111  0.00  0.00    +0.004 C 
ATOM     28  C   UNL     1      31.289 -24.507 -14.543  0.00  0.00    +0.004 C 
ATOM     29  C   UNL     1      29.599 -22.966 -16.139  0.00  0.00    +0.030 C 
ATOM     30  C   UNL     1      29.920 -24.774 -14.570  0.00  0.00    +0.030 C 
ATOM     31  C   UNL     1      29.075 -24.003 -15.368  0.00  0.00    +0.140 C 
ENDBRANCH  22  26
ENDBRANCH  18  21
ENDBRANCH  17  18
ENDBRANCH   6  17
TORSDOF 5
ENDMDL
MODEL 7
REMARK VINA RESULT:     -10.5      7.654     12.350
REMARK  Name = 57336276
REMARK  5 active torsions:
REMARK  status: ('A' for Active; 'I' for Inactive)
REMARK    1  A    between atoms: C_2  and  C_16
REMARK    2  A    between atoms: C_6  and  O_17
REMARK    3  A    between atoms: O_17  and  C_18
REMARK    4  A    between atoms: C_18  and  C_21
REMARK    5  A    between atoms: C_22  and  C_26
REMARK                            x       y       z     vdW  Elec       q    Type
REMARK                         _______ _______ _______ _____ _____    ______ ____
ROOT
ATOM      1  N   UNL     1      34.861 -22.433 -18.270  0.00  0.00    -0.210 NA
ATOM      2  C   UNL     1      33.250 -22.893 -16.527  0.00  0.00    +0.073 C 
ATOM      3  C   UNL     1      32.264 -22.237 -17.256  0.00  0.00    +0.011 C 
ATOM      4  C   UNL     1      34.522 -22.963 -17.073  0.00  0.00    +0.107 C 
ATOM      5  C   UNL     1      32.576 -21.680 -18.492  0.00  0.00    +0.058 C 
ATOM      6  C   UNL     1      33.877 -21.804 -18.949  0.00  0.00    +0.225 C 
ENDROOT
BRANCH   2  16
ATOM      7  S   UNL     1      36.219 -23.703 -12.402  0.00  0.00    -0.007 S 
ATOM      8  O   UNL     1      36.753 -22.595 -11.633  0.00  0.00    -0.173 OA
ATOM      9  O   UNL     1      36.755 -25.041 -12.248  0.00  0.00    -0.173 OA
ATOM     10  O   UNL     1      31.784 -23.420 -14.845  0.00  0.00    -0.270 OA
ATOM     11  N   UNL     1      34.004 -24.078 -14.512  0.00  0.00    -0.272 N 
ATOM     12  C   UNL     1      34.458 -23.771 -12.113  0.00  0.00    +0.172 C 
ATOM     13  C   UNL     1      36.300 -23.262 -14.130  0.00  0.00    +0.172 C 
ATOM     14  C   UNL     1      33.757 -24.612 -13.170  0.00  0.00    +0.119 C 
ATOM     15  C   UNL     1      35.400 -24.158 -14.969  0.00  0.00    +0.119 C 
ATOM     16  C   UNL     1      32.953 -23.491 -15.220  0.00  0.00    +0.251 C 
ENDBRANCH   2  16
BRANCH   6  17
ATOM     17  O   UNL     1      34.209 -21.264 -20.164  0.00  0.00    -0.455 OA
BRANCH  17  18
ATOM     18  C   UNL     1      34.247 -19.844 -20.245  0.00  0.00    +0.238 C 
BRANCH  18  21
ATOM     19  O   UNL     1      37.866 -19.141 -20.352  0.00  0.00    -0.358 OA
ATOM     20  N   UNL     1      37.463 -18.387 -21.448  0.00  0.00    -0.078 NA
ATOM     21  C   UNL     1      35.658 -19.406 -20.506  0.00  0.00    +0.075 A 
ATOM     22  C   UNL     1      36.141 -18.561 -21.520  0.00  0.00    +0.122 A 
ATOM     23  C   UNL     1      36.783 -19.742 -19.799  0.00  0.00    +0.154 A 
ATOM     24  C   UNL     1      37.033 -20.583 -18.620  0.00  0.00    +0.075 C 
BRANCH  22  26
ATOM     25  F   UNL     1      33.192 -16.062 -25.528  0.00  0.00    -0.204 F 
ATOM     26  C   UNL     1      35.379 -17.915 -22.556  0.00  0.00    +0.021 C 
ATOM     27  C   UNL     1      35.360 -16.523 -22.644  0.00  0.00    +0.004 C 
ATOM     28  C   UNL     1      34.657 -18.681 -23.472  0.00  0.00    +0.004 C 
ATOM     29  C   UNL     1      34.622 -15.897 -23.648  0.00  0.00    +0.030 C 
ATOM     30  C   UNL     1      33.919 -18.054 -24.476  0.00  0.00    +0.030 C 
ATOM     31  C   UNL     1      33.901 -16.663 -24.564  0.00  0.00    +0.140 C 
ENDBRANCH  22  26
ENDBRANCH  18  21
ENDBRANCH  17  18
ENDBRANCH   6  17
TORSDOF 5
ENDMDL
MODEL 8
REMARK VINA RESULT:     -10.4      1.861      2.549
REMARK  Name = 57336276
REMARK  5 active torsions:
REMARK  status: ('A' for Active; 'I' for Inactive)
REMARK    1  A    between atoms: C_2  and  C_16
REMARK    2  A    between atoms: C_6  and  O_17
REMARK    3  A    between atoms: O_17  and  C_18
REMARK    4  A    between atoms: C_18  and  C_21
REMARK    5  A    between atoms: C_22  and  C_26
REMARK                            x       y       z     vdW  Elec       q    Type
REMARK                         _______ _______ _______ _____ _____    ______ ____
ROOT
ATOM      1  N   UNL     1      32.575 -11.345 -21.717  0.00  0.00    -0.210 NA
ATOM      2  C   UNL     1      32.240  -9.171 -22.719  0.00  0.00    +0.073 C 
ATOM      3  C   UNL     1      33.221  -9.448 -23.664  0.00  0.00    +0.011 C 
ATOM      4  C   UNL     1      31.956 -10.145 -21.774  0.00  0.00    +0.107 C 
ATOM      5  C   UNL     1      33.879 -10.673 -23.637  0.00  0.00    +0.058 C 
ATOM      6  C   UNL     1      33.522 -11.579 -22.652  0.00  0.00    +0.225 C 
ENDROOT
BRANCH   2  16
ATOM      7  S   UNL     1      33.191  -4.753 -25.183  0.00  0.00    -0.007 S 
ATOM      8  O   UNL     1      33.098  -4.665 -26.627  0.00  0.00    -0.173 OA
ATOM      9  O   UNL     1      33.865  -3.721 -24.417  0.00  0.00    -0.173 OA
ATOM     10  O   UNL     1      30.325  -7.936 -22.467  0.00  0.00    -0.270 OA
ATOM     11  N   UNL     1      32.256  -6.732 -23.013  0.00  0.00    -0.272 N 
ATOM     12  C   UNL     1      31.538  -4.937 -24.536  0.00  0.00    +0.172 C 
ATOM     13  C   UNL     1      33.932  -6.325 -24.775  0.00  0.00    +0.172 C 
ATOM     14  C   UNL     1      31.558  -5.446 -23.102  0.00  0.00    +0.119 C 
ATOM     15  C   UNL     1      33.695  -6.685 -23.316  0.00  0.00    +0.119 C 
ATOM     16  C   UNL     1      31.528  -7.888 -22.721  0.00  0.00    +0.251 C 
ENDBRANCH   2  16
BRANCH   6  17
ATOM     17  O   UNL     1      34.156 -12.793 -22.604  0.00  0.00    -0.455 OA
BRANCH  17  18
ATOM     18  C   UNL     1      33.343 -13.947 -22.782  0.00  0.00    +0.238 C 
BRANCH  18  21
ATOM     19  O   UNL     1      34.151 -15.142 -26.177  0.00  0.00    -0.358 OA
ATOM     20  N   UNL     1      34.601 -16.235 -25.446  0.00  0.00    -0.078 NA
ATOM     21  C   UNL     1      33.765 -14.655 -24.036  0.00  0.00    +0.075 A 
ATOM     22  C   UNL     1      34.360 -15.921 -24.171  0.00  0.00    +0.122 A 
ATOM     23  C   UNL     1      33.655 -14.208 -25.326  0.00  0.00    +0.154 A 
ATOM     24  C   UNL     1      33.132 -12.978 -25.939  0.00  0.00    +0.075 C 
BRANCH  22  26
ATOM     25  F   UNL     1      35.698 -19.478 -20.101  0.00  0.00    -0.204 F 
ATOM     26  C   UNL     1      34.706 -16.840 -23.119  0.00  0.00    +0.021 C 
ATOM     27  C   UNL     1      34.496 -18.209 -23.291  0.00  0.00    +0.004 C 
ATOM     28  C   UNL     1      35.251 -16.364 -21.926  0.00  0.00    +0.004 C 
ATOM     29  C   UNL     1      34.832 -19.100 -22.272  0.00  0.00    +0.030 C 
ATOM     30  C   UNL     1      35.586 -17.255 -20.907  0.00  0.00    +0.030 C 
ATOM     31  C   UNL     1      35.376 -18.623 -21.080  0.00  0.00    +0.140 C 
ENDBRANCH  22  26
ENDBRANCH  18  21
ENDBRANCH  17  18
ENDBRANCH   6  17
TORSDOF 5
ENDMDL
MODEL 9
REMARK VINA RESULT:      -9.7      7.396     12.088
REMARK  Name = 57336276
REMARK  5 active torsions:
REMARK  status: ('A' for Active; 'I' for Inactive)
REMARK    1  A    between atoms: C_2  and  C_16
REMARK    2  A    between atoms: C_6  and  O_17
REMARK    3  A    between atoms: O_17  and  C_18
REMARK    4  A    between atoms: C_18  and  C_21
REMARK    5  A    between atoms: C_22  and  C_26
REMARK                            x       y       z     vdW  Elec       q    Type
REMARK                         _______ _______ _______ _____ _____    ______ ____
ROOT
ATOM      1  N   UNL     1      35.228 -21.672 -18.715  0.00  0.00    -0.210 NA
ATOM      2  C   UNL     1      34.028 -22.821 -16.958  0.00  0.00    +0.073 C 
ATOM      3  C   UNL     1      32.818 -22.442 -17.528  0.00  0.00    +0.011 C 
ATOM      4  C   UNL     1      35.196 -22.414 -17.585  0.00  0.00    +0.107 C 
ATOM      5  C   UNL     1      32.812 -21.679 -18.691  0.00  0.00    +0.058 C 
ATOM      6  C   UNL     1      34.033 -21.323 -19.239  0.00  0.00    +0.225 C 
ENDROOT
BRANCH   2  16
ATOM      7  S   UNL     1      30.294 -24.346 -13.762  0.00  0.00    -0.007 S 
ATOM      8  O   UNL     1      29.274 -25.282 -14.193  0.00  0.00    -0.173 OA
ATOM      9  O   UNL     1      30.120 -23.561 -12.554  0.00  0.00    -0.173 OA
ATOM     10  O   UNL     1      35.006 -24.416 -15.634  0.00  0.00    -0.270 OA
ATOM     11  N   UNL     1      33.055 -23.441 -14.789  0.00  0.00    -0.272 N 
ATOM     12  C   UNL     1      31.835 -25.237 -13.631  0.00  0.00    +0.172 C 
ATOM     13  C   UNL     1      30.619 -23.227 -15.114  0.00  0.00    +0.172 C 
ATOM     14  C   UNL     1      33.022 -24.286 -13.593  0.00  0.00    +0.119 C 
ATOM     15  C   UNL     1      31.937 -22.492 -14.916  0.00  0.00    +0.119 C 
ATOM     16  C   UNL     1      34.069 -23.626 -15.731  0.00  0.00    +0.251 C 
ENDBRANCH   2  16
BRANCH   6  17
ATOM     17  O   UNL     1      34.052 -20.572 -20.385  0.00  0.00    -0.455 OA
BRANCH  17  18
ATOM     18  C   UNL     1      34.346 -19.188 -20.238  0.00  0.00    +0.238 C 
BRANCH  18  21
ATOM     19  O   UNL     1      37.949 -18.902 -20.973  0.00  0.00    -0.358 OA
ATOM     20  N   UNL     1      37.449 -18.157 -22.033  0.00  0.00    -0.078 NA
ATOM     21  C   UNL     1      35.731 -18.923 -20.750  0.00  0.00    +0.075 A 
ATOM     22  C   UNL     1      36.122 -18.183 -21.880  0.00  0.00    +0.122 A 
ATOM     23  C   UNL     1      36.917 -19.352 -20.215  0.00  0.00    +0.154 A 
ATOM     24  C   UNL     1      37.272 -20.164 -19.043  0.00  0.00    +0.075 C 
BRANCH  22  26
ATOM     25  F   UNL     1      32.822 -15.546 -25.506  0.00  0.00    -0.204 F 
ATOM     26  C   UNL     1      35.269 -17.502 -22.816  0.00  0.00    +0.021 C 
ATOM     27  C   UNL     1      34.543 -18.231 -23.757  0.00  0.00    +0.004 C 
ATOM     28  C   UNL     1      35.169 -16.110 -22.785  0.00  0.00    +0.004 C 
ATOM     29  C   UNL     1      33.716 -17.571 -24.665  0.00  0.00    +0.030 C 
ATOM     30  C   UNL     1      34.342 -15.450 -23.694  0.00  0.00    +0.030 C 
ATOM     31  C   UNL     1      33.616 -16.180 -24.634  0.00  0.00    +0.140 C 
ENDBRANCH  22  26
ENDBRANCH  18  21
ENDBRANCH  17  18
ENDBRANCH   6  17
TORSDOF 5
ENDMDL
