MODEL 1
REMARK VINA RESULT:     -12.7      0.000      0.000
REMARK  Name = 54576693
REMARK  3 active torsions:
REMARK  status: ('A' for Active; 'I' for Inactive)
REMARK    1  A    between atoms: N_2  and  C_19
REMARK    2  A    between atoms: N_4  and  C_14
REMARK    3  A    between atoms: C_19  and  C_24
REMARK                            x       y       z     vdW  Elec       q    Type
REMARK                         _______ _______ _______ _____ _____    ______ ____
ROOT
ATOM      1  O   UNL     1      31.953 -22.278 -17.627  0.00  0.00    -0.252 OA
ATOM      2  N   UNL     1      35.157 -20.035 -20.721  0.00  0.00    +0.392 N 
ATOM      3  N   UNL     1      33.845 -21.803 -18.872  0.00  0.00    -0.268 N 
ATOM      4  N   UNL     1      33.987 -23.170 -16.953  0.00  0.00    -0.266 N 
ATOM      5  C   UNL     1      33.811 -19.723 -20.224  0.00  0.00    -0.055 C 
ATOM      6  C   UNL     1      35.933 -20.721 -19.680  0.00  0.00    -0.055 C 
ATOM      7  C   UNL     1      35.251 -22.019 -19.237  0.00  0.00    +0.072 C 
ATOM      8  C   UNL     1      33.078 -21.003 -19.830  0.00  0.00    +0.072 C 
ATOM      9  C   UNL     1      33.169 -22.407 -17.788  0.00  0.00    +0.308 C 
ATOM     10  H   UNL     1      35.072 -20.656 -21.527  0.00  0.00    -0.079 HD
ATOM     11  H   UNL     1      34.767 -23.595 -17.377  0.00  0.00    +0.156 HD
ENDROOT
BRANCH   4  14
ATOM     12 CL   UNL     1      36.523 -23.267 -15.230  0.00  0.00    -0.081 Cl
ATOM     13  N   UNL     1      32.288 -23.794 -13.738  0.00  0.00    -0.241 NA
ATOM     14  C   UNL     1      33.821 -23.399 -15.565  0.00  0.00    +0.082 C 
ATOM     15  C   UNL     1      34.897 -23.465 -14.686  0.00  0.00    +0.074 C 
ATOM     16  C   UNL     1      32.548 -23.569 -15.044  0.00  0.00    +0.114 C 
ATOM     17  C   UNL     1      34.670 -23.695 -13.333  0.00  0.00    +0.033 C 
ATOM     18  C   UNL     1      33.359 -23.851 -12.913  0.00  0.00    +0.100 C 
ENDBRANCH   4  14
BRANCH   2  19
ATOM     19  C   UNL     1      35.840 -18.817 -21.153  0.00  0.00    -0.050 C 
BRANCH  19  24
ATOM     20  F   UNL     1      32.569 -14.336 -25.026  0.00  0.00    -0.125 F 
ATOM     21  F   UNL     1      34.451 -14.451 -26.137  0.00  0.00    -0.125 F 
ATOM     22  O   UNL     1      34.451 -14.960 -23.927  0.00  0.00    -0.395 OA
ATOM     23  O   UNL     1      33.393 -16.376 -25.573  0.00  0.00    -0.395 OA
ATOM     24  C   UNL     1      35.174 -18.195 -22.351  0.00  0.00    -0.040 C 
ATOM     25  C   UNL     1      35.174 -16.806 -22.501  0.00  0.00    +0.034 C 
ATOM     26  C   UNL     1      34.558 -19.019 -23.310  0.00  0.00    -0.003 C 
ATOM     27  C   UNL     1      34.551 -16.282 -23.615  0.00  0.00    +0.181 C 
ATOM     28  C   UNL     1      33.947 -17.090 -24.555  0.00  0.00    +0.182 C 
ATOM     29  C   UNL     1      33.934 -18.464 -24.430  0.00  0.00    +0.040 C 
ATOM     30  C   UNL     1      33.719 -15.041 -25.159  0.00  0.00    +0.589 C 
ENDBRANCH  19  24
ENDBRANCH   2  19
TORSDOF 3
ENDMDL
MODEL 2
REMARK VINA RESULT:     -11.9      5.058      9.483
REMARK  Name = 54576693
REMARK  3 active torsions:
REMARK  status: ('A' for Active; 'I' for Inactive)
REMARK    1  A    between atoms: N_2  and  C_19
REMARK    2  A    between atoms: N_4  and  C_14
REMARK    3  A    between atoms: C_19  and  C_24
REMARK                            x       y       z     vdW  Elec       q    Type
REMARK                         _______ _______ _______ _____ _____    ______ ____
ROOT
ATOM      1  O   UNL     1      37.201 -21.239 -17.245  0.00  0.00    -0.252 OA
ATOM      2  N   UNL     1      33.741 -23.675 -14.607  0.00  0.00    +0.392 N 
ATOM      3  N   UNL     1      35.385 -22.559 -16.684  0.00  0.00    -0.268 N 
ATOM      4  N   UNL     1      35.525 -21.560 -18.819  0.00  0.00    -0.266 N 
ATOM      5  C   UNL     1      34.853 -22.777 -14.271  0.00  0.00    -0.055 C 
ATOM      6  C   UNL     1      33.142 -23.279 -15.888  0.00  0.00    -0.055 C 
ATOM      7  C   UNL     1      34.172 -23.315 -17.022  0.00  0.00    +0.072 C 
ATOM      8  C   UNL     1      35.929 -22.835 -15.353  0.00  0.00    +0.072 C 
ATOM      9  C   UNL     1      36.118 -21.734 -17.567  0.00  0.00    +0.308 C 
ATOM     10  H   UNL     1      34.102 -24.626 -14.696  0.00  0.00    -0.079 HD
ATOM     11  H   UNL     1      34.975 -22.307 -19.148  0.00  0.00    +0.156 HD
ENDROOT
BRANCH   4  14
ATOM     12 CL   UNL     1      32.931 -20.503 -20.068  0.00  0.00    -0.081 Cl
ATOM     13  N   UNL     1      37.064 -18.780 -20.693  0.00  0.00    -0.241 NA
ATOM     14  C   UNL     1      35.627 -20.431 -19.668  0.00  0.00    +0.082 C 
ATOM     15  C   UNL     1      34.519 -19.864 -20.290  0.00  0.00    +0.074 C 
ATOM     16  C   UNL     1      36.865 -19.855 -19.900  0.00  0.00    +0.114 C 
ATOM     17  C   UNL     1      34.683 -18.756 -21.114  0.00  0.00    +0.033 C 
ATOM     18  C   UNL     1      35.965 -18.256 -21.281  0.00  0.00    +0.100 C 
ENDBRANCH   4  14
BRANCH   2  19
ATOM     19  C   UNL     1      32.735 -23.666 -13.546  0.00  0.00    -0.050 C 
BRANCH  19  24
ATOM     20  F   UNL     1      26.442 -22.091 -15.472  0.00  0.00    -0.125 F 
ATOM     21  F   UNL     1      27.264 -22.686 -17.411  0.00  0.00    -0.125 F 
ATOM     22  O   UNL     1      28.681 -21.944 -15.803  0.00  0.00    -0.395 OA
ATOM     23  O   UNL     1      27.542 -24.067 -15.634  0.00  0.00    -0.395 OA
ATOM     24  C   UNL     1      31.340 -23.809 -14.095  0.00  0.00    -0.040 C 
ATOM     25  C   UNL     1      30.718 -22.713 -14.698  0.00  0.00    +0.034 C 
ATOM     26  C   UNL     1      30.678 -25.045 -13.997  0.00  0.00    -0.003 C 
ATOM     27  C   UNL     1      29.440 -22.892 -15.187  0.00  0.00    +0.181 C 
ATOM     28  C   UNL     1      28.790 -24.104 -15.091  0.00  0.00    +0.182 C 
ATOM     29  C   UNL     1      29.384 -25.200 -14.500  0.00  0.00    +0.040 C 
ATOM     30  C   UNL     1      27.492 -22.702 -16.074  0.00  0.00    +0.589 C 
ENDBRANCH  19  24
ENDBRANCH   2  19
TORSDOF 3
ENDMDL
MODEL 3
REMARK VINA RESULT:     -11.6      4.492      7.126
REMARK  Name = 54576693
REMARK  3 active torsions:
REMARK  status: ('A' for Active; 'I' for Inactive)
REMARK    1  A    between atoms: N_2  and  C_19
REMARK    2  A    between atoms: N_4  and  C_14
REMARK    3  A    between atoms: C_19  and  C_24
REMARK                            x       y       z     vdW  Elec       q    Type
REMARK                         _______ _______ _______ _____ _____    ______ ____
ROOT
ATOM      1  O   UNL     1      35.220 -18.977 -23.452  0.00  0.00    -0.252 OA
ATOM      2  N   UNL     1      33.972 -14.189 -24.066  0.00  0.00    +0.392 N 
ATOM      3  N   UNL     1      34.897 -16.720 -23.064  0.00  0.00    -0.268 N 
ATOM      4  N   UNL     1      35.041 -18.236 -21.260  0.00  0.00    -0.266 N 
ATOM      5  C   UNL     1      33.857 -15.400 -24.888  0.00  0.00    -0.055 C 
ATOM      6  C   UNL     1      33.804 -14.526 -22.646  0.00  0.00    -0.055 C 
ATOM      7  C   UNL     1      34.851 -15.543 -22.184  0.00  0.00    +0.072 C 
ATOM      8  C   UNL     1      34.928 -16.414 -24.495  0.00  0.00    +0.072 C 
ATOM      9  C   UNL     1      35.057 -18.060 -22.645  0.00  0.00    +0.308 C 
ATOM     10  H   UNL     1      34.902 -13.790 -24.198  0.00  0.00    -0.079 HD
ATOM     11  H   UNL     1      35.376 -17.483 -20.721  0.00  0.00    +0.156 HD
ENDROOT
BRANCH   4  14
ATOM     12 CL   UNL     1      37.173 -19.911 -19.826  0.00  0.00    -0.081 Cl
ATOM     13  N   UNL     1      32.731 -20.752 -19.866  0.00  0.00    -0.241 NA
ATOM     14  C   UNL     1      34.598 -19.375 -20.544  0.00  0.00    +0.082 C 
ATOM     15  C   UNL     1      35.473 -20.210 -19.856  0.00  0.00    +0.074 C 
ATOM     16  C   UNL     1      33.249 -19.688 -20.518  0.00  0.00    +0.114 C 
ATOM     17  C   UNL     1      34.977 -21.316 -19.173  0.00  0.00    +0.033 C 
ATOM     18  C   UNL     1      33.611 -21.540 -19.208  0.00  0.00    +0.100 C 
ENDBRANCH   4  14
BRANCH   2  19
ATOM     19  C   UNL     1      32.984 -13.192 -24.478  0.00  0.00    -0.050 C 
BRANCH  19  24
ATOM     20  F   UNL     1      32.339  -6.941 -21.970  0.00  0.00    -0.125 F 
ATOM     21  F   UNL     1      33.597  -7.818 -20.408  0.00  0.00    -0.125 F 
ATOM     22  O   UNL     1      32.288  -9.186 -21.656  0.00  0.00    -0.395 OA
ATOM     23  O   UNL     1      34.216  -8.059 -22.576  0.00  0.00    -0.395 OA
ATOM     24  C   UNL     1      33.343 -11.814 -23.991  0.00  0.00    -0.040 C 
ATOM     25  C   UNL     1      32.560 -11.199 -23.011  0.00  0.00    +0.034 C 
ATOM     26  C   UNL     1      34.466 -11.158 -24.526  0.00  0.00    -0.003 C 
ATOM     27  C   UNL     1      32.928  -9.936 -22.596  0.00  0.00    +0.181 C 
ATOM     28  C   UNL     1      34.029  -9.293 -23.120  0.00  0.00    +0.182 C 
ATOM     29  C   UNL     1      34.818  -9.879 -24.088  0.00  0.00    +0.040 C 
ATOM     30  C   UNL     1      33.113  -8.011 -21.660  0.00  0.00    +0.589 C 
ENDBRANCH  19  24
ENDBRANCH   2  19
TORSDOF 3
ENDMDL
MODEL 4
REMARK VINA RESULT:     -11.6      5.965     10.958
REMARK  Name = 54576693
REMARK  3 active torsions:
REMARK  status: ('A' for Active; 'I' for Inactive)
REMARK    1  A    between atoms: N_2  and  C_19
REMARK    2  A    between atoms: N_4  and  C_14
REMARK    3  A    between atoms: C_19  and  C_24
REMARK                            x       y       z     vdW  Elec       q    Type
REMARK                         _______ _______ _______ _____ _____    ______ ____
ROOT
ATOM      1  O   UNL     1      37.232 -19.516 -19.415  0.00  0.00    -0.252 OA
ATOM      2  N   UNL     1      34.510 -22.979 -17.078  0.00  0.00    +0.392 N 
ATOM      3  N   UNL     1      35.703 -21.201 -18.996  0.00  0.00    -0.268 N 
ATOM      4  N   UNL     1      35.426 -19.767 -20.851  0.00  0.00    -0.266 N 
ATOM      5  C   UNL     1      35.523 -22.003 -16.656  0.00  0.00    -0.055 C 
ATOM      6  C   UNL     1      33.702 -22.426 -18.172  0.00  0.00    -0.055 C 
ATOM      7  C   UNL     1      34.570 -22.056 -19.378  0.00  0.00    +0.072 C 
ATOM      8  C   UNL     1      36.447 -21.658 -17.821  0.00  0.00    +0.072 C 
ATOM      9  C   UNL     1      36.194 -20.101 -19.734  0.00  0.00    +0.308 C 
ATOM     10  H   UNL     1      34.984 -23.818 -17.414  0.00  0.00    -0.079 HD
ATOM     11  H   UNL     1      34.945 -20.508 -21.287  0.00  0.00    +0.156 HD
ENDROOT
BRANCH   4  14
ATOM     12 CL   UNL     1      34.881 -19.639 -23.867  0.00  0.00    -0.081 Cl
ATOM     13  N   UNL     1      35.209 -16.091 -21.083  0.00  0.00    -0.241 NA
ATOM     14  C   UNL     1      35.261 -18.483 -21.427  0.00  0.00    +0.082 C 
ATOM     15  C   UNL     1      35.010 -18.302 -22.783  0.00  0.00    +0.074 C 
ATOM     16  C   UNL     1      35.350 -17.355 -20.628  0.00  0.00    +0.114 C 
ATOM     17  C   UNL     1      34.859 -17.015 -23.290  0.00  0.00    +0.033 C 
ATOM     18  C   UNL     1      34.966 -15.953 -22.406  0.00  0.00    +0.100 C 
ENDBRANCH   4  14
BRANCH   2  19
ATOM     19  C   UNL     1      33.659 -23.356 -15.950  0.00  0.00    -0.050 C 
BRANCH  19  24
ATOM     20  F   UNL     1      36.720 -23.490  -9.917  0.00  0.00    -0.125 F 
ATOM     21  F   UNL     1      35.307 -25.137  -9.631  0.00  0.00    -0.125 F 
ATOM     22  O   UNL     1      34.810 -23.518 -11.139  0.00  0.00    -0.395 OA
ATOM     23  O   UNL     1      36.592 -25.108 -11.499  0.00  0.00    -0.395 OA
ATOM     24  C   UNL     1      34.467 -23.847 -14.778  0.00  0.00    -0.040 C 
ATOM     25  C   UNL     1      34.178 -23.380 -13.494  0.00  0.00    +0.034 C 
ATOM     26  C   UNL     1      35.504 -24.773 -14.988  0.00  0.00    -0.003 C 
ATOM     27  C   UNL     1      34.944 -23.859 -12.451  0.00  0.00    +0.181 C 
ATOM     28  C   UNL     1      35.961 -24.766 -12.656  0.00  0.00    +0.182 C 
ATOM     29  C   UNL     1      36.265 -25.243 -13.915  0.00  0.00    +0.040 C 
ATOM     30  C   UNL     1      35.855 -24.314 -10.559  0.00  0.00    +0.589 C 
ENDBRANCH  19  24
ENDBRANCH   2  19
TORSDOF 3
ENDMDL
MODEL 5
REMARK VINA RESULT:     -11.5      5.837     10.679
REMARK  Name = 54576693
REMARK  3 active torsions:
REMARK  status: ('A' for Active; 'I' for Inactive)
REMARK    1  A    between atoms: N_2  and  C_19
REMARK    2  A    between atoms: N_4  and  C_14
REMARK    3  A    between atoms: C_19  and  C_24
REMARK                            x       y       z     vdW  Elec       q    Type
REMARK                         _______ _______ _______ _____ _____    ______ ____
ROOT
ATOM      1  O   UNL     1      32.919 -12.802 -24.938  0.00  0.00    -0.252 OA
ATOM      2  N   UNL     1      35.012 -16.718 -22.670  0.00  0.00    +0.392 N 
ATOM      3  N   UNL     1      33.576 -14.312 -23.314  0.00  0.00    -0.268 N 
ATOM      4  N   UNL     1      32.994 -12.101 -22.727  0.00  0.00    -0.266 N 
ATOM      5  C   UNL     1      35.005 -16.203 -24.045  0.00  0.00    -0.055 C 
ATOM      6  C   UNL     1      34.975 -15.604 -21.714  0.00  0.00    -0.055 C 
ATOM      7  C   UNL     1      33.730 -14.735 -21.915  0.00  0.00    +0.072 C 
ATOM      8  C   UNL     1      33.744 -15.382 -24.299  0.00  0.00    +0.072 C 
ATOM      9  C   UNL     1      33.151 -13.037 -23.750  0.00  0.00    +0.308 C 
ATOM     10  H   UNL     1      34.181 -17.294 -22.531  0.00  0.00    -0.079 HD
ATOM     11  H   UNL     1      32.738 -12.456 -21.846  0.00  0.00    +0.156 HD
ENDROOT
BRANCH   4  14
ATOM     12 CL   UNL     1      30.957 -10.344 -21.254  0.00  0.00    -0.081 Cl
ATOM     13  N   UNL     1      34.462  -8.856 -23.691  0.00  0.00    -0.241 NA
ATOM     14  C   UNL     1      33.164 -10.697 -22.815  0.00  0.00    +0.082 C 
ATOM     15  C   UNL     1      32.302  -9.801 -22.190  0.00  0.00    +0.074 C 
ATOM     16  C   UNL     1      34.219 -10.177 -23.547  0.00  0.00    +0.114 C 
ATOM     17  C   UNL     1      32.519  -8.433 -22.315  0.00  0.00    +0.033 C 
ATOM     18  C   UNL     1      33.604  -8.016 -23.069  0.00  0.00    +0.100 C 
ENDBRANCH   4  14
BRANCH   2  19
ATOM     19  C   UNL     1      36.190 -17.553 -22.439  0.00  0.00    -0.050 C 
BRANCH  19  24
ATOM     20  F   UNL     1      32.912 -21.462 -17.994  0.00  0.00    -0.125 F 
ATOM     21  F   UNL     1      33.473 -22.989 -19.458  0.00  0.00    -0.125 F 
ATOM     22  O   UNL     1      33.284 -20.835 -20.141  0.00  0.00    -0.395 OA
ATOM     23  O   UNL     1      35.067 -21.572 -18.689  0.00  0.00    -0.395 OA
ATOM     24  C   UNL     1      35.923 -18.629 -21.421  0.00  0.00    -0.040 C 
ATOM     25  C   UNL     1      34.649 -19.192 -21.326  0.00  0.00    +0.034 C 
ATOM     26  C   UNL     1      36.962 -19.059 -20.576  0.00  0.00    -0.003 C 
ATOM     27  C   UNL     1      34.452 -20.176 -20.378  0.00  0.00    +0.181 C 
ATOM     28  C   UNL     1      35.470 -20.597 -19.549  0.00  0.00    +0.182 C 
ATOM     29  C   UNL     1      36.737 -20.057 -19.624  0.00  0.00    +0.040 C 
ATOM     30  C   UNL     1      33.693 -21.706 -19.075  0.00  0.00    +0.589 C 
ENDBRANCH  19  24
ENDBRANCH   2  19
TORSDOF 3
ENDMDL
MODEL 6
REMARK VINA RESULT:     -11.2      7.635     12.143
REMARK  Name = 54576693
REMARK  3 active torsions:
REMARK  status: ('A' for Active; 'I' for Inactive)
REMARK    1  A    between atoms: N_2  and  C_19
REMARK    2  A    between atoms: N_4  and  C_14
REMARK    3  A    between atoms: C_19  and  C_24
REMARK                            x       y       z     vdW  Elec       q    Type
REMARK                         _______ _______ _______ _____ _____    ______ ____
ROOT
ATOM      1  O   UNL     1      31.619  -9.497 -20.865  0.00  0.00    -0.252 OA
ATOM      2  N   UNL     1      33.568 -13.132 -23.667  0.00  0.00    +0.392 N 
ATOM      3  N   UNL     1      32.992 -10.659 -22.320  0.00  0.00    -0.268 N 
ATOM      4  N   UNL     1      32.876  -8.302 -22.407  0.00  0.00    -0.266 N 
ATOM      5  C   UNL     1      32.388 -13.016 -22.801  0.00  0.00    -0.055 C 
ATOM      6  C   UNL     1      33.832 -11.851 -24.334  0.00  0.00    -0.055 C 
ATOM      7  C   UNL     1      34.068 -10.729 -23.318  0.00  0.00    +0.072 C 
ATOM      8  C   UNL     1      32.613 -11.946 -21.735  0.00  0.00    +0.072 C 
ATOM      9  C   UNL     1      32.425  -9.474 -21.798  0.00  0.00    +0.308 C 
ATOM     10  H   UNL     1      34.375 -13.372 -23.090  0.00  0.00    -0.079 HD
ATOM     11  H   UNL     1      33.794  -8.321 -22.764  0.00  0.00    +0.156 HD
ENDROOT
BRANCH   4  14
ATOM     12 CL   UNL     1      33.030  -6.262 -20.122  0.00  0.00    -0.081 Cl
ATOM     13  N   UNL     1      30.721  -5.751 -23.975  0.00  0.00    -0.241 NA
ATOM     14  C   UNL     1      32.162  -7.090 -22.570  0.00  0.00    +0.082 C 
ATOM     15  C   UNL     1      32.157  -6.091 -21.601  0.00  0.00    +0.074 C 
ATOM     16  C   UNL     1      31.434  -6.872 -23.729  0.00  0.00    +0.114 C 
ATOM     17  C   UNL     1      31.434  -4.923 -21.819  0.00  0.00    +0.033 C 
ATOM     18  C   UNL     1      30.740  -4.802 -23.012  0.00  0.00    +0.100 C 
ENDBRANCH   4  14
BRANCH   2  19
ATOM     19  C   UNL     1      33.379 -14.195 -24.653  0.00  0.00    -0.050 C 
BRANCH  19  24
ATOM     20  F   UNL     1      37.379 -18.726 -21.611  0.00  0.00    -0.125 F 
ATOM     21  F   UNL     1      35.546 -19.046 -20.458  0.00  0.00    -0.125 F 
ATOM     22  O   UNL     1      35.873 -17.038 -21.460  0.00  0.00    -0.395 OA
ATOM     23  O   UNL     1      35.430 -19.048 -22.722  0.00  0.00    -0.395 OA
ATOM     24  C   UNL     1      33.915 -15.514 -24.164  0.00  0.00    -0.040 C 
ATOM     25  C   UNL     1      34.661 -15.565 -22.985  0.00  0.00    +0.034 C 
ATOM     26  C   UNL     1      33.656 -16.685 -24.899  0.00  0.00    -0.003 C 
ATOM     27  C   UNL     1      35.131 -16.796 -22.576  0.00  0.00    +0.181 C 
ATOM     28  C   UNL     1      34.878 -17.944 -23.297  0.00  0.00    +0.182 C 
ATOM     29  C   UNL     1      34.143 -17.920 -24.464  0.00  0.00    +0.040 C 
ATOM     30  C   UNL     1      36.050 -18.458 -21.572  0.00  0.00    +0.589 C 
ENDBRANCH  19  24
ENDBRANCH   2  19
TORSDOF 3
ENDMDL
MODEL 7
REMARK VINA RESULT:     -10.8      7.841     12.423
REMARK  Name = 54576693
REMARK  3 active torsions:
REMARK  status: ('A' for Active; 'I' for Inactive)
REMARK    1  A    between atoms: N_2  and  C_19
REMARK    2  A    between atoms: N_4  and  C_14
REMARK    3  A    between atoms: C_19  and  C_24
REMARK                            x       y       z     vdW  Elec       q    Type
REMARK                         _______ _______ _______ _____ _____    ______ ____
ROOT
ATOM      1  O   UNL     1      31.802  -9.205 -21.065  0.00  0.00    -0.252 OA
ATOM      2  N   UNL     1      33.644 -12.902 -23.859  0.00  0.00    +0.392 N 
ATOM      3  N   UNL     1      33.117 -10.398 -22.548  0.00  0.00    -0.268 N 
ATOM      4  N   UNL     1      32.989  -8.044 -22.687  0.00  0.00    -0.266 N 
ATOM      5  C   UNL     1      32.501 -12.767 -22.947  0.00  0.00    -0.055 C 
ATOM      6  C   UNL     1      33.876 -11.636 -24.567  0.00  0.00    -0.055 C 
ATOM      7  C   UNL     1      34.150 -10.489 -23.589  0.00  0.00    +0.072 C 
ATOM      8  C   UNL     1      32.767 -11.672 -21.917  0.00  0.00    +0.072 C 
ATOM      9  C   UNL     1      32.567  -9.203 -22.032  0.00  0.00    +0.308 C 
ATOM     10  H   UNL     1      34.476 -13.126 -23.311  0.00  0.00    -0.079 HD
ATOM     11  H   UNL     1      33.891  -8.070 -23.081  0.00  0.00    +0.156 HD
ENDROOT
BRANCH   4  14
ATOM     12 CL   UNL     1      34.195  -5.919 -24.540  0.00  0.00    -0.081 Cl
ATOM     13  N   UNL     1      30.303  -5.549 -22.269  0.00  0.00    -0.241 NA
ATOM     14  C   UNL     1      32.265  -6.838 -22.849  0.00  0.00    +0.082 C 
ATOM     15  C   UNL     1      32.713  -5.803 -23.663  0.00  0.00    +0.074 C 
ATOM     16  C   UNL     1      31.064  -6.662 -22.180  0.00  0.00    +0.114 C 
ATOM     17  C   UNL     1      31.958  -4.641 -23.780  0.00  0.00    +0.033 C 
ATOM     18  C   UNL     1      30.771  -4.565 -23.069  0.00  0.00    +0.100 C 
ENDBRANCH   4  14
BRANCH   2  19
ATOM     19  C   UNL     1      33.418 -13.988 -24.810  0.00  0.00    -0.050 C 
BRANCH  19  24
ATOM     20  F   UNL     1      37.390 -18.529 -21.747  0.00  0.00    -0.125 F 
ATOM     21  F   UNL     1      35.596 -18.740 -20.510  0.00  0.00    -0.125 F 
ATOM     22  O   UNL     1      35.947 -16.786 -21.605  0.00  0.00    -0.395 OA
ATOM     23  O   UNL     1      35.387 -18.828 -22.766  0.00  0.00    -0.395 OA
ATOM     24  C   UNL     1      33.930 -15.305 -24.290  0.00  0.00    -0.040 C 
ATOM     25  C   UNL     1      34.723 -15.334 -23.140  0.00  0.00    +0.034 C 
ATOM     26  C   UNL     1      33.603 -16.494 -24.965  0.00  0.00    -0.003 C 
ATOM     27  C   UNL     1      35.168 -16.563 -22.700  0.00  0.00    +0.181 C 
ATOM     28  C   UNL     1      34.849 -17.729 -23.362  0.00  0.00    +0.182 C 
ATOM     29  C   UNL     1      34.067 -17.727 -24.499  0.00  0.00    +0.040 C 
ATOM     30  C   UNL     1      36.073 -18.215 -21.666  0.00  0.00    +0.589 C 
ENDBRANCH  19  24
ENDBRANCH   2  19
TORSDOF 3
ENDMDL
MODEL 8
REMARK VINA RESULT:     -10.7      2.587      3.435
REMARK  Name = 54576693
REMARK  3 active torsions:
REMARK  status: ('A' for Active; 'I' for Inactive)
REMARK    1  A    between atoms: N_2  and  C_19
REMARK    2  A    between atoms: N_4  and  C_14
REMARK    3  A    between atoms: C_19  and  C_24
REMARK                            x       y       z     vdW  Elec       q    Type
REMARK                         _______ _______ _______ _____ _____    ______ ____
ROOT
ATOM      1  O   UNL     1      38.052 -22.476 -15.353  0.00  0.00    -0.252 OA
ATOM      2  N   UNL     1      35.294 -20.963 -19.222  0.00  0.00    +0.392 N 
ATOM      3  N   UNL     1      36.241 -21.972 -16.703  0.00  0.00    -0.268 N 
ATOM      4  N   UNL     1      36.037 -23.563 -14.970  0.00  0.00    -0.266 N 
ATOM      5  C   UNL     1      36.735 -21.076 -18.962  0.00  0.00    -0.055 C 
ATOM      6  C   UNL     1      34.573 -22.048 -18.545  0.00  0.00    -0.055 C 
ATOM      7  C   UNL     1      34.810 -22.019 -17.032  0.00  0.00    +0.072 C 
ATOM      8  C   UNL     1      37.014 -20.989 -17.464  0.00  0.00    +0.072 C 
ATOM      9  C   UNL     1      36.870 -22.672 -15.648  0.00  0.00    +0.308 C 
ATOM     10  H   UNL     1      34.964 -20.071 -18.852  0.00  0.00    -0.079 HD
ATOM     11  H   UNL     1      35.082 -23.326 -14.935  0.00  0.00    +0.156 HD
ENDROOT
BRANCH   4  14
ATOM     12 CL   UNL     1      37.094 -23.355 -12.098  0.00  0.00    -0.081 Cl
ATOM     13  N   UNL     1      36.622 -27.172 -14.476  0.00  0.00    -0.241 NA
ATOM     14  C   UNL     1      36.411 -24.768 -14.327  0.00  0.00    +0.082 C 
ATOM     15  C   UNL     1      36.904 -24.798 -13.026  0.00  0.00    +0.074 C 
ATOM     16  C   UNL     1      36.291 -25.972 -15.002  0.00  0.00    +0.114 C 
ATOM     17  C   UNL     1      37.257 -26.014 -12.450  0.00  0.00    +0.033 C 
ATOM     18  C   UNL     1      37.097 -27.162 -13.210  0.00  0.00    +0.100 C 
ENDBRANCH   4  14
BRANCH   2  19
ATOM     19  C   UNL     1      35.028 -20.988 -20.660  0.00  0.00    -0.050 C 
BRANCH  19  24
ATOM     20  F   UNL     1      35.342 -16.026 -25.250  0.00  0.00    -0.125 F 
ATOM     21  F   UNL     1      33.339 -15.644 -24.455  0.00  0.00    -0.125 F 
ATOM     22  O   UNL     1      34.197 -17.736 -24.298  0.00  0.00    -0.395 OA
ATOM     23  O   UNL     1      35.063 -15.890 -23.004  0.00  0.00    -0.395 OA
ATOM     24  C   UNL     1      35.053 -19.607 -21.258  0.00  0.00    -0.040 C 
ATOM     25  C   UNL     1      34.574 -19.405 -22.555  0.00  0.00    +0.034 C 
ATOM     26  C   UNL     1      35.557 -18.532 -20.505  0.00  0.00    -0.003 C 
ATOM     27  C   UNL     1      34.617 -18.122 -23.060  0.00  0.00    +0.181 C 
ATOM     28  C   UNL     1      35.111 -17.068 -22.322  0.00  0.00    +0.182 C 
ATOM     29  C   UNL     1      35.589 -17.241 -21.040  0.00  0.00    +0.040 C 
ATOM     30  C   UNL     1      34.488 -16.331 -24.242  0.00  0.00    +0.589 C 
ENDBRANCH  19  24
ENDBRANCH   2  19
TORSDOF 3
ENDMDL
MODEL 9
REMARK VINA RESULT:     -10.7      8.740     13.528
REMARK  Name = 54576693
REMARK  3 active torsions:
REMARK  status: ('A' for Active; 'I' for Inactive)
REMARK    1  A    between atoms: N_2  and  C_19
REMARK    2  A    between atoms: N_4  and  C_14
REMARK    3  A    between atoms: C_19  and  C_24
REMARK                            x       y       z     vdW  Elec       q    Type
REMARK                         _______ _______ _______ _____ _____    ______ ____
ROOT
ATOM      1  O   UNL     1      31.317  -7.349 -21.350  0.00  0.00    -0.252 OA
ATOM      2  N   UNL     1      33.594 -11.564 -22.733  0.00  0.00    +0.392 N 
ATOM      3  N   UNL     1      32.894  -8.835 -22.160  0.00  0.00    -0.268 N 
ATOM      4  N   UNL     1      32.935  -6.569 -22.820  0.00  0.00    -0.266 N 
ATOM      5  C   UNL     1      32.268 -11.235 -22.194  0.00  0.00    -0.055 C 
ATOM      6  C   UNL     1      34.065 -10.483 -23.608  0.00  0.00    -0.055 C 
ATOM      7  C   UNL     1      34.148  -9.150 -22.858  0.00  0.00    +0.072 C 
ATOM      8  C   UNL     1      32.327  -9.941 -21.386  0.00  0.00    +0.072 C 
ATOM      9  C   UNL     1      32.299  -7.557 -22.066  0.00  0.00    +0.308 C 
ATOM     10  H   UNL     1      34.248 -11.662 -21.956  0.00  0.00    -0.079 HD
ATOM     11  H   UNL     1      33.904  -6.678 -22.955  0.00  0.00    +0.156 HD
ENDROOT
BRANCH   4  14
ATOM     12 CL   UNL     1      34.525  -5.141 -25.020  0.00  0.00    -0.081 Cl
ATOM     13  N   UNL     1      30.446  -3.928 -23.492  0.00  0.00    -0.241 NA
ATOM     14  C   UNL     1      32.341  -5.427 -23.414  0.00  0.00    +0.082 C 
ATOM     15  C   UNL     1      32.968  -4.699 -24.420  0.00  0.00    +0.074 C 
ATOM     16  C   UNL     1      31.092  -5.003 -22.990  0.00  0.00    +0.114 C 
ATOM     17  C   UNL     1      32.335  -3.585 -24.962  0.00  0.00    +0.033 C 
ATOM     18  C   UNL     1      31.086  -3.245 -24.468  0.00  0.00    +0.100 C 
ENDBRANCH   4  14
BRANCH   2  19
ATOM     19  C   UNL     1      33.553 -12.832 -23.459  0.00  0.00    -0.050 C 
BRANCH  19  24
ATOM     20  F   UNL     1      35.190 -19.109 -21.533  0.00  0.00    -0.125 F 
ATOM     21  F   UNL     1      37.198 -18.247 -21.665  0.00  0.00    -0.125 F 
ATOM     22  O   UNL     1      35.531 -17.335 -22.904  0.00  0.00    -0.395 OA
ATOM     23  O   UNL     1      35.604 -17.135 -20.498  0.00  0.00    -0.395 OA
ATOM     24  C   UNL     1      34.097 -13.968 -22.634  0.00  0.00    -0.040 C 
ATOM     25  C   UNL     1      34.555 -15.126 -23.266  0.00  0.00    +0.034 C 
ATOM     26  C   UNL     1      34.139 -13.851 -21.233  0.00  0.00    -0.003 C 
ATOM     27  C   UNL     1      35.045 -16.140 -22.468  0.00  0.00    +0.181 C 
ATOM     28  C   UNL     1      35.086 -16.026 -21.095  0.00  0.00    +0.182 C 
ATOM     29  C   UNL     1      34.640 -14.892 -20.448  0.00  0.00    +0.040 C 
ATOM     30  C   UNL     1      35.876 -17.945 -21.650  0.00  0.00    +0.589 C 
ENDBRANCH  19  24
ENDBRANCH   2  19
TORSDOF 3
ENDMDL
