MODEL 1
REMARK VINA RESULT:     -12.6      0.000      0.000
REMARK  Name = 9976892
REMARK  4 active torsions:
REMARK  status: ('A' for Active; 'I' for Inactive)
REMARK    1  A    between atoms: N_1  and  C_13
REMARK    2  A    between atoms: C_10  and  O_17
REMARK    3  A    between atoms: O_17  and  C_20
REMARK    4  A    between atoms: C_19  and  N_25
REMARK                            x       y       z     vdW  Elec       q    Type
REMARK                         _______ _______ _______ _____ _____    ______ ____
ROOT
ATOM      1  N   UNL     1      31.812  -8.325 -21.390  0.00  0.00    +0.389 N 
ATOM      2  C   UNL     1      32.987  -8.658 -22.209  0.00  0.00    -0.073 C 
ATOM      3  C   UNL     1      31.519  -9.330 -20.357  0.00  0.00    -0.073 C 
ATOM      4  C   UNL     1      32.749  -9.833 -23.164  0.00  0.00    +0.003 C 
ATOM      5  C   UNL     1      30.973 -10.644 -20.924  0.00  0.00    +0.003 C 
ATOM      6  C   UNL     1      32.890 -11.181 -22.502  0.00  0.00    -0.025 C 
ATOM      7  C   UNL     1      32.049 -11.564 -21.442  0.00  0.00    -0.028 C 
ATOM      8  C   UNL     1      33.868 -12.077 -22.961  0.00  0.00    +0.033 C 
ATOM      9  C   UNL     1      32.206 -12.837 -20.866  0.00  0.00    -0.002 C 
ATOM     10  C   UNL     1      34.017 -13.335 -22.377  0.00  0.00    +0.147 C 
ATOM     11  C   UNL     1      33.185 -13.714 -21.330  0.00  0.00    +0.037 C 
ATOM     12  H   UNL     1      31.005  -8.290 -22.013  0.00  0.00    -0.080 HD
ENDROOT
BRANCH   1  13
ATOM     13  C   UNL     1      32.056  -7.061 -20.744  0.00  0.00    -0.058 C 
ATOM     14  C   UNL     1      33.197  -6.296 -21.444  0.00  0.00    -0.021 C 
ATOM     15  C   UNL     1      31.101  -5.975 -21.282  0.00  0.00    -0.021 C 
ATOM     16  C   UNL     1      32.321  -5.031 -21.323  0.00  0.00    -0.004 C 
ENDBRANCH   1  13
BRANCH  10  17
ATOM     17  O   UNL     1      34.972 -14.189 -22.834  0.00  0.00    -0.436 OA
BRANCH  17  20
ATOM     18  N   UNL     1      35.147 -15.502 -20.929  0.00  0.00    -0.209 NA
ATOM     19  C   UNL     1      35.146 -17.913 -21.128  0.00  0.00    +0.073 C 
ATOM     20  C   UNL     1      35.030 -15.452 -22.268  0.00  0.00    +0.230 C 
ATOM     21  C   UNL     1      35.025 -17.805 -22.509  0.00  0.00    +0.021 C 
ATOM     22  C   UNL     1      35.203 -16.742 -20.389  0.00  0.00    +0.117 C 
ATOM     23  C   UNL     1      34.965 -16.549 -23.101  0.00  0.00    +0.059 C 
BRANCH  19  25
ATOM     24  O   UNL     1      37.467 -19.318 -19.725  0.00  0.00    -0.275 OA
ATOM     25  N   UNL     1      35.211 -19.187 -20.492  0.00  0.00    -0.257 N 
ATOM     26  C   UNL     1      34.435 -21.101 -19.398  0.00  0.00    +0.031 C 
ATOM     27  C   UNL     1      34.091 -20.108 -20.489  0.00  0.00    +0.099 C 
ATOM     28  C   UNL     1      35.949 -21.155 -19.437  0.00  0.00    +0.087 C 
ATOM     29  C   UNL     1      36.338 -19.761 -19.872  0.00  0.00    +0.229 C 
ENDBRANCH  19  25
ENDBRANCH  17  20
ENDBRANCH  10  17
TORSDOF 4
ENDMDL
MODEL 2
REMARK VINA RESULT:     -12.1      6.012     13.007
REMARK  Name = 9976892
REMARK  4 active torsions:
REMARK  status: ('A' for Active; 'I' for Inactive)
REMARK    1  A    between atoms: N_1  and  C_13
REMARK    2  A    between atoms: C_10  and  O_17
REMARK    3  A    between atoms: O_17  and  C_20
REMARK    4  A    between atoms: C_19  and  N_25
REMARK                            x       y       z     vdW  Elec       q    Type
REMARK                         _______ _______ _______ _____ _____    ______ ____
ROOT
ATOM      1  N   UNL     1      37.667 -24.059 -13.302  0.00  0.00    +0.389 N 
ATOM      2  C   UNL     1      37.776 -23.837 -14.751  0.00  0.00    -0.073 C 
ATOM      3  C   UNL     1      36.338 -24.534 -12.883  0.00  0.00    -0.073 C 
ATOM      4  C   UNL     1      36.987 -22.617 -15.240  0.00  0.00    +0.003 C 
ATOM      5  C   UNL     1      35.251 -23.459 -12.981  0.00  0.00    +0.003 C 
ATOM      6  C   UNL     1      35.519 -22.894 -15.443  0.00  0.00    -0.025 C 
ATOM      7  C   UNL     1      34.697 -23.293 -14.373  0.00  0.00    -0.028 C 
ATOM      8  C   UNL     1      34.957 -22.738 -16.719  0.00  0.00    +0.033 C 
ATOM      9  C   UNL     1      33.331 -23.525 -14.606  0.00  0.00    -0.002 C 
ATOM     10  C   UNL     1      33.600 -22.977 -16.938  0.00  0.00    +0.147 C 
ATOM     11  C   UNL     1      32.787 -23.369 -15.880  0.00  0.00    +0.037 C 
ATOM     12  H   UNL     1      37.824 -23.162 -12.842  0.00  0.00    -0.080 HD
ENDROOT
BRANCH   1  13
ATOM     13  C   UNL     1      38.646 -25.044 -12.921  0.00  0.00    -0.058 C 
ATOM     14  C   UNL     1      38.602 -26.260 -13.869  0.00  0.00    -0.021 C 
ATOM     15  C   UNL     1      40.024 -24.715 -13.531  0.00  0.00    -0.021 C 
ATOM     16  C   UNL     1      40.144 -26.214 -13.875  0.00  0.00    -0.004 C 
ENDBRANCH   1  13
BRANCH  10  17
ATOM     17  O   UNL     1      33.073 -22.822 -18.182  0.00  0.00    -0.436 OA
BRANCH  17  20
ATOM     18  N   UNL     1      32.595 -20.956 -19.476  0.00  0.00    -0.209 NA
ATOM     19  C   UNL     1      34.401 -19.681 -20.457  0.00  0.00    +0.073 C 
ATOM     20  C   UNL     1      33.532 -21.764 -18.949  0.00  0.00    +0.230 C 
ATOM     21  C   UNL     1      35.329 -20.546 -19.888  0.00  0.00    +0.021 C 
ATOM     22  C   UNL     1      33.058 -19.927 -20.223  0.00  0.00    +0.117 C 
ATOM     23  C   UNL     1      34.893 -21.616 -19.115  0.00  0.00    +0.059 C 
BRANCH  19  25
ATOM     24  O   UNL     1      34.560 -19.371 -23.492  0.00  0.00    -0.275 OA
ATOM     25  N   UNL     1      34.818 -18.576 -21.256  0.00  0.00    -0.257 N 
ATOM     26  C   UNL     1      35.264 -16.349 -21.803  0.00  0.00    +0.031 C 
ATOM     27  C   UNL     1      35.343 -17.356 -20.675  0.00  0.00    +0.099 C 
ATOM     28  C   UNL     1      35.468 -17.194 -23.044  0.00  0.00    +0.087 C 
ATOM     29  C   UNL     1      34.865 -18.526 -22.663  0.00  0.00    +0.229 C 
ENDBRANCH  19  25
ENDBRANCH  17  20
ENDBRANCH  10  17
TORSDOF 4
ENDMDL
MODEL 3
REMARK VINA RESULT:     -12.1      4.153     12.277
REMARK  Name = 9976892
REMARK  4 active torsions:
REMARK  status: ('A' for Active; 'I' for Inactive)
REMARK    1  A    between atoms: N_1  and  C_13
REMARK    2  A    between atoms: C_10  and  O_17
REMARK    3  A    between atoms: O_17  and  C_20
REMARK    4  A    between atoms: C_19  and  N_25
REMARK                            x       y       z     vdW  Elec       q    Type
REMARK                         _______ _______ _______ _____ _____    ______ ____
ROOT
ATOM      1  N   UNL     1      36.234 -23.979 -14.070  0.00  0.00    +0.389 N 
ATOM      2  C   UNL     1      37.288 -23.519 -14.986  0.00  0.00    -0.073 C 
ATOM      3  C   UNL     1      34.970 -24.300 -14.752  0.00  0.00    -0.073 C 
ATOM      4  C   UNL     1      37.031 -22.120 -15.556  0.00  0.00    +0.003 C 
ATOM      5  C   UNL     1      34.228 -23.064 -15.270  0.00  0.00    +0.003 C 
ATOM      6  C   UNL     1      36.080 -22.115 -16.726  0.00  0.00    -0.025 C 
ATOM      7  C   UNL     1      34.753 -22.562 -16.591  0.00  0.00    -0.028 C 
ATOM      8  C   UNL     1      36.521 -21.641 -17.972  0.00  0.00    +0.033 C 
ATOM      9  C   UNL     1      33.898 -22.524 -17.705  0.00  0.00    -0.002 C 
ATOM     10  C   UNL     1      35.663 -21.614 -19.072  0.00  0.00    +0.147 C 
ATOM     11  C   UNL     1      34.352 -22.054 -18.937  0.00  0.00    +0.037 C 
ATOM     12  H   UNL     1      36.039 -23.217 -13.420  0.00  0.00    -0.080 HD
ENDROOT
BRANCH   1  13
ATOM     13  C   UNL     1      36.705 -25.162 -13.397  0.00  0.00    -0.058 C 
ATOM     14  C   UNL     1      38.222 -25.078 -13.133  0.00  0.00    -0.021 C 
ATOM     15  C   UNL     1      36.510 -25.041 -11.872  0.00  0.00    -0.021 C 
ATOM     16  C   UNL     1      37.930 -25.628 -11.722  0.00  0.00    -0.004 C 
ENDBRANCH   1  13
BRANCH  10  17
ATOM     17  O   UNL     1      36.108 -21.153 -20.272  0.00  0.00    -0.436 OA
BRANCH  17  20
ATOM     18  N   UNL     1      36.406 -18.879 -19.926  0.00  0.00    -0.209 NA
ATOM     19  C   UNL     1      35.186 -17.288 -21.279  0.00  0.00    +0.073 C 
ATOM     20  C   UNL     1      35.790 -19.851 -20.621  0.00  0.00    +0.230 C 
ATOM     21  C   UNL     1      34.577 -18.332 -21.967  0.00  0.00    +0.021 C 
ATOM     22  C   UNL     1      36.086 -17.612 -20.276  0.00  0.00    +0.117 C 
ATOM     23  C   UNL     1      34.880 -19.648 -21.636  0.00  0.00    +0.059 C 
BRANCH  19  25
ATOM     24  O   UNL     1      35.074 -15.856 -23.975  0.00  0.00    -0.275 OA
ATOM     25  N   UNL     1      34.895 -15.929 -21.596  0.00  0.00    -0.257 N 
ATOM     26  C   UNL     1      34.006 -13.786 -21.319  0.00  0.00    +0.031 C 
ATOM     27  C   UNL     1      34.661 -14.929 -20.572  0.00  0.00    +0.099 C 
ATOM     28  C   UNL     1      34.619 -13.872 -22.702  0.00  0.00    +0.087 C 
ATOM     29  C   UNL     1      34.874 -15.351 -22.880  0.00  0.00    +0.229 C 
ENDBRANCH  19  25
ENDBRANCH  17  20
ENDBRANCH  10  17
TORSDOF 4
ENDMDL
MODEL 4
REMARK VINA RESULT:     -11.7      2.620      4.192
REMARK  Name = 9976892
REMARK  4 active torsions:
REMARK  status: ('A' for Active; 'I' for Inactive)
REMARK    1  A    between atoms: N_1  and  C_13
REMARK    2  A    between atoms: C_10  and  O_17
REMARK    3  A    between atoms: O_17  and  C_20
REMARK    4  A    between atoms: C_19  and  N_25
REMARK                            x       y       z     vdW  Elec       q    Type
REMARK                         _______ _______ _______ _____ _____    ______ ____
ROOT
ATOM      1  N   UNL     1      32.717 -12.445 -21.123  0.00  0.00    +0.389 N 
ATOM      2  C   UNL     1      33.413 -13.470 -20.332  0.00  0.00    -0.073 C 
ATOM      3  C   UNL     1      32.242 -12.937 -22.426  0.00  0.00    -0.073 C 
ATOM      4  C   UNL     1      34.788 -13.843 -20.896  0.00  0.00    +0.003 C 
ATOM      5  C   UNL     1      33.373 -13.196 -23.427  0.00  0.00    +0.003 C 
ATOM      6  C   UNL     1      34.723 -14.834 -22.031  0.00  0.00    -0.025 C 
ATOM      7  C   UNL     1      34.053 -14.527 -23.229  0.00  0.00    -0.028 C 
ATOM      8  C   UNL     1      35.355 -16.080 -21.897  0.00  0.00    +0.033 C 
ATOM      9  C   UNL     1      34.031 -15.475 -24.266  0.00  0.00    -0.002 C 
ATOM     10  C   UNL     1      35.321 -17.014 -22.933  0.00  0.00    +0.147 C 
ATOM     11  C   UNL     1      34.660 -16.710 -24.117  0.00  0.00    +0.037 C 
ATOM     12  H   UNL     1      33.385 -11.697 -21.310  0.00  0.00    -0.080 HD
ENDROOT
BRANCH   1  13
ATOM     13  C   UNL     1      31.581 -11.984 -20.366  0.00  0.00    -0.058 C 
ATOM     14  C   UNL     1      32.026 -11.054 -19.219  0.00  0.00    -0.021 C 
ATOM     15  C   UNL     1      30.948 -10.742 -21.026  0.00  0.00    -0.021 C 
ATOM     16  C   UNL     1      30.849 -10.136 -19.610  0.00  0.00    -0.004 C 
ENDBRANCH   1  13
BRANCH  10  17
ATOM     17  O   UNL     1      35.938 -18.218 -22.785  0.00  0.00    -0.436 OA
BRANCH  17  20
ATOM     18  N   UNL     1      34.206 -19.377 -21.765  0.00  0.00    -0.209 NA
ATOM     19  C   UNL     1      34.633 -20.648 -19.752  0.00  0.00    +0.073 C 
ATOM     20  C   UNL     1      35.508 -19.039 -21.755  0.00  0.00    +0.230 C 
ATOM     21  C   UNL     1      35.970 -20.269 -19.789  0.00  0.00    +0.021 C 
ATOM     22  C   UNL     1      33.799 -20.179 -20.755  0.00  0.00    +0.117 C 
ATOM     23  C   UNL     1      36.427 -19.445 -20.811  0.00  0.00    +0.059 C 
BRANCH  19  25
ATOM     24  O   UNL     1      36.104 -22.160 -17.544  0.00  0.00    -0.275 OA
ATOM     25  N   UNL     1      34.136 -21.491 -18.716  0.00  0.00    -0.257 N 
ATOM     26  C   UNL     1      32.595 -22.371 -17.195  0.00  0.00    +0.031 C 
ATOM     27  C   UNL     1      32.731 -21.835 -18.605  0.00  0.00    +0.099 C 
ATOM     28  C   UNL     1      33.944 -23.009 -16.929  0.00  0.00    +0.087 C 
ATOM     29  C   UNL     1      34.897 -22.158 -17.737  0.00  0.00    +0.229 C 
ENDBRANCH  19  25
ENDBRANCH  17  20
ENDBRANCH  10  17
TORSDOF 4
ENDMDL
MODEL 5
REMARK VINA RESULT:     -11.5      3.040      4.428
REMARK  Name = 9976892
REMARK  4 active torsions:
REMARK  status: ('A' for Active; 'I' for Inactive)
REMARK    1  A    between atoms: N_1  and  C_13
REMARK    2  A    between atoms: C_10  and  O_17
REMARK    3  A    between atoms: O_17  and  C_20
REMARK    4  A    between atoms: C_19  and  N_25
REMARK                            x       y       z     vdW  Elec       q    Type
REMARK                         _______ _______ _______ _____ _____    ______ ____
ROOT
ATOM      1  N   UNL     1      33.405 -12.081 -24.252  0.00  0.00    +0.389 N 
ATOM      2  C   UNL     1      33.975 -13.225 -24.978  0.00  0.00    -0.073 C 
ATOM      3  C   UNL     1      33.856 -11.995 -22.854  0.00  0.00    -0.073 C 
ATOM      4  C   UNL     1      33.411 -14.576 -24.524  0.00  0.00    +0.003 C 
ATOM      5  C   UNL     1      33.266 -13.087 -21.957  0.00  0.00    +0.003 C 
ATOM      6  C   UNL     1      34.063 -15.108 -23.273  0.00  0.00    -0.025 C 
ATOM      7  C   UNL     1      33.995 -14.403 -22.058  0.00  0.00    -0.028 C 
ATOM      8  C   UNL     1      34.741 -16.337 -23.316  0.00  0.00    +0.033 C 
ATOM      9  C   UNL     1      34.605 -14.945 -20.913  0.00  0.00    -0.002 C 
ATOM     10  C   UNL     1      35.346 -16.861 -22.174  0.00  0.00    +0.147 C 
ATOM     11  C   UNL     1      35.276 -16.165 -20.973  0.00  0.00    +0.037 C 
ATOM     12  H   UNL     1      32.392 -12.204 -24.234  0.00  0.00    -0.080 HD
ENDROOT
BRANCH   1  13
ATOM     13  C   UNL     1      33.794 -10.874 -24.935  0.00  0.00    -0.058 C 
ATOM     14  C   UNL     1      34.794 -10.061 -24.088  0.00  0.00    -0.021 C 
ATOM     15  C   UNL     1      34.957 -11.144 -25.911  0.00  0.00    -0.021 C 
ATOM     16  C   UNL     1      35.598  -9.842 -25.387  0.00  0.00    -0.004 C 
ENDBRANCH   1  13
BRANCH  10  17
ATOM     17  O   UNL     1      35.999 -18.053 -22.235  0.00  0.00    -0.436 OA
BRANCH  17  20
ATOM     18  N   UNL     1      34.459 -19.397 -21.138  0.00  0.00    -0.209 NA
ATOM     19  C   UNL     1      35.183 -20.808 -19.311  0.00  0.00    +0.073 C 
ATOM     20  C   UNL     1      35.735 -18.984 -21.244  0.00  0.00    +0.230 C 
ATOM     21  C   UNL     1      36.486 -20.347 -19.464  0.00  0.00    +0.021 C 
ATOM     22  C   UNL     1      34.215 -20.306 -20.166  0.00  0.00    +0.117 C 
ATOM     23  C   UNL     1      36.778 -19.413 -20.451  0.00  0.00    +0.059 C 
BRANCH  19  25
ATOM     24  O   UNL     1      36.693 -21.642 -16.790  0.00  0.00    -0.275 OA
ATOM     25  N   UNL     1      34.854 -21.765 -18.307  0.00  0.00    -0.257 N 
ATOM     26  C   UNL     1      33.499 -23.140 -16.990  0.00  0.00    +0.031 C 
ATOM     27  C   UNL     1      33.676 -22.606 -18.397  0.00  0.00    +0.099 C 
ATOM     28  C   UNL     1      34.919 -23.227 -16.466  0.00  0.00    +0.087 C 
ATOM     29  C   UNL     1      35.622 -22.091 -17.173  0.00  0.00    +0.229 C 
ENDBRANCH  19  25
ENDBRANCH  17  20
ENDBRANCH  10  17
TORSDOF 4
ENDMDL
MODEL 6
REMARK VINA RESULT:     -11.2      6.085     11.361
REMARK  Name = 9976892
REMARK  4 active torsions:
REMARK  status: ('A' for Active; 'I' for Inactive)
REMARK    1  A    between atoms: N_1  and  C_13
REMARK    2  A    between atoms: C_10  and  O_17
REMARK    3  A    between atoms: O_17  and  C_20
REMARK    4  A    between atoms: C_19  and  N_25
REMARK                            x       y       z     vdW  Elec       q    Type
REMARK                         _______ _______ _______ _____ _____    ______ ____
ROOT
ATOM      1  N   UNL     1      31.705 -23.398 -15.495  0.00  0.00    +0.389 N 
ATOM      2  C   UNL     1      31.931 -22.667 -16.750  0.00  0.00    -0.073 C 
ATOM      3  C   UNL     1      32.734 -23.139 -14.475  0.00  0.00    -0.073 C 
ATOM      4  C   UNL     1      33.121 -23.198 -17.557  0.00  0.00    +0.003 C 
ATOM      5  C   UNL     1      34.090 -23.770 -14.807  0.00  0.00    +0.003 C 
ATOM      6  C   UNL     1      34.453 -22.681 -17.073  0.00  0.00    -0.025 C 
ATOM      7  C   UNL     1      34.911 -22.952 -15.771  0.00  0.00    -0.028 C 
ATOM      8  C   UNL     1      35.258 -21.927 -17.941  0.00  0.00    +0.033 C 
ATOM      9  C   UNL     1      36.165 -22.463 -15.368  0.00  0.00    -0.002 C 
ATOM     10  C   UNL     1      36.499 -21.443 -17.526  0.00  0.00    +0.147 C 
ATOM     11  C   UNL     1      36.952 -21.712 -16.240  0.00  0.00    +0.037 C 
ATOM     12  H   UNL     1      31.740 -24.395 -15.711  0.00  0.00    -0.080 HD
ENDROOT
BRANCH   1  13
ATOM     13  C   UNL     1      30.425 -23.002 -14.966  0.00  0.00    -0.058 C 
ATOM     14  C   UNL     1      29.447 -22.642 -16.102  0.00  0.00    -0.021 C 
ATOM     15  C   UNL     1      29.537 -24.233 -14.694  0.00  0.00    -0.021 C 
ATOM     16  C   UNL     1      28.376 -23.440 -15.330  0.00  0.00    -0.004 C 
ENDBRANCH   1  13
BRANCH  10  17
ATOM     17  O   UNL     1      37.265 -20.713 -18.381  0.00  0.00    -0.436 OA
BRANCH  17  20
ATOM     18  N   UNL     1      37.265 -19.049 -19.998  0.00  0.00    -0.209 NA
ATOM     19  C   UNL     1      35.417 -18.881 -21.549  0.00  0.00    +0.073 C 
ATOM     20  C   UNL     1      36.632 -20.101 -19.451  0.00  0.00    +0.230 C 
ATOM     21  C   UNL     1      34.805 -19.974 -20.947  0.00  0.00    +0.021 C 
ATOM     22  C   UNL     1      36.636 -18.461 -21.042  0.00  0.00    +0.117 C 
ATOM     23  C   UNL     1      35.419 -20.605 -19.872  0.00  0.00    +0.059 C 
BRANCH  19  25
ATOM     24  O   UNL     1      35.670 -15.991 -22.506  0.00  0.00    -0.275 OA
ATOM     25  N   UNL     1      34.811 -18.213 -22.653  0.00  0.00    -0.257 N 
ATOM     26  C   UNL     1      33.782 -17.975 -24.738  0.00  0.00    +0.031 C 
ATOM     27  C   UNL     1      33.840 -18.863 -23.512  0.00  0.00    +0.099 C 
ATOM     28  C   UNL     1      34.062 -16.592 -24.184  0.00  0.00    +0.087 C 
ATOM     29  C   UNL     1      34.982 -16.863 -23.016  0.00  0.00    +0.229 C 
ENDBRANCH  19  25
ENDBRANCH  17  20
ENDBRANCH  10  17
TORSDOF 4
ENDMDL
MODEL 7
REMARK VINA RESULT:     -11.0      2.155     10.025
REMARK  Name = 9976892
REMARK  4 active torsions:
REMARK  status: ('A' for Active; 'I' for Inactive)
REMARK    1  A    between atoms: N_1  and  C_13
REMARK    2  A    between atoms: C_10  and  O_17
REMARK    3  A    between atoms: O_17  and  C_20
REMARK    4  A    between atoms: C_19  and  N_25
REMARK                            x       y       z     vdW  Elec       q    Type
REMARK                         _______ _______ _______ _____ _____    ______ ____
ROOT
ATOM      1  N   UNL     1      35.081 -19.125 -21.373  0.00  0.00    +0.389 N 
ATOM      2  C   UNL     1      34.542 -18.695 -22.672  0.00  0.00    -0.073 C 
ATOM      3  C   UNL     1      34.855 -18.148 -20.296  0.00  0.00    -0.073 C 
ATOM      4  C   UNL     1      35.329 -17.543 -23.306  0.00  0.00    +0.003 C 
ATOM      5  C   UNL     1      35.708 -16.883 -20.434  0.00  0.00    +0.003 C 
ATOM      6  C   UNL     1      34.956 -16.189 -22.759  0.00  0.00    -0.025 C 
ATOM      7  C   UNL     1      35.135 -15.877 -21.399  0.00  0.00    -0.028 C 
ATOM      8  C   UNL     1      34.432 -15.215 -23.623  0.00  0.00    +0.033 C 
ATOM      9  C   UNL     1      34.787 -14.596 -20.937  0.00  0.00    -0.002 C 
ATOM     10  C   UNL     1      34.086 -13.949 -23.150  0.00  0.00    +0.147 C 
ATOM     11  C   UNL     1      34.265 -13.640 -21.807  0.00  0.00    +0.037 C 
ATOM     12  H   UNL     1      36.091 -19.226 -21.479  0.00  0.00    -0.080 HD
ENDROOT
BRANCH   1  13
ATOM     13  C   UNL     1      34.446 -20.365 -21.008  0.00  0.00    -0.058 C 
ATOM     14  C   UNL     1      34.998 -20.892 -19.668  0.00  0.00    -0.021 C 
ATOM     15  C   UNL     1      33.116 -20.105 -20.271  0.00  0.00    -0.021 C 
ATOM     16  C   UNL     1      33.538 -21.210 -19.280  0.00  0.00    -0.004 C 
ENDBRANCH   1  13
BRANCH  10  17
ATOM     17  O   UNL     1      33.579 -13.019 -24.003  0.00  0.00    -0.436 OA
BRANCH  17  20
ATOM     18  N   UNL     1      32.481 -11.502 -22.632  0.00  0.00    -0.209 NA
ATOM     19  C   UNL     1      33.176  -9.186 -22.605  0.00  0.00    +0.073 C 
ATOM     20  C   UNL     1      33.452 -11.720 -23.537  0.00  0.00    +0.230 C 
ATOM     21  C   UNL     1      34.165  -9.465 -23.541  0.00  0.00    +0.021 C 
ATOM     22  C   UNL     1      32.367 -10.230 -22.186  0.00  0.00    +0.117 C 
ATOM     23  C   UNL     1      34.313 -10.760 -24.024  0.00  0.00    +0.059 C 
BRANCH  19  25
ATOM     24  O   UNL     1      33.151  -8.161 -19.727  0.00  0.00    -0.275 OA
ATOM     25  N   UNL     1      33.000  -7.867 -22.092  0.00  0.00    -0.257 N 
ATOM     26  C   UNL     1      33.008  -5.531 -22.082  0.00  0.00    +0.031 C 
ATOM     27  C   UNL     1      32.708  -6.735 -22.950  0.00  0.00    +0.099 C 
ATOM     28  C   UNL     1      32.672  -6.011 -20.685  0.00  0.00    +0.087 C 
ATOM     29  C   UNL     1      32.996  -7.487 -20.736  0.00  0.00    +0.229 C 
ENDBRANCH  19  25
ENDBRANCH  17  20
ENDBRANCH  10  17
TORSDOF 4
ENDMDL
MODEL 8
REMARK VINA RESULT:     -10.9      2.123      3.415
REMARK  Name = 9976892
REMARK  4 active torsions:
REMARK  status: ('A' for Active; 'I' for Inactive)
REMARK    1  A    between atoms: N_1  and  C_13
REMARK    2  A    between atoms: C_10  and  O_17
REMARK    3  A    between atoms: O_17  and  C_20
REMARK    4  A    between atoms: C_19  and  N_25
REMARK                            x       y       z     vdW  Elec       q    Type
REMARK                         _______ _______ _______ _____ _____    ______ ____
ROOT
ATOM      1  N   UNL     1      31.922  -6.763 -21.589  0.00  0.00    +0.389 N 
ATOM      2  C   UNL     1      31.144  -7.950 -21.974  0.00  0.00    -0.073 C 
ATOM      3  C   UNL     1      33.088  -6.525 -22.454  0.00  0.00    -0.073 C 
ATOM      4  C   UNL     1      31.862  -9.270 -21.675  0.00  0.00    +0.003 C 
ATOM      5  C   UNL     1      34.212  -7.547 -22.253  0.00  0.00    +0.003 C 
ATOM      6  C   UNL     1      32.874  -9.654 -22.725  0.00  0.00    -0.025 C 
ATOM      7  C   UNL     1      33.986  -8.838 -22.998  0.00  0.00    -0.028 C 
ATOM      8  C   UNL     1      32.713 -10.855 -23.433  0.00  0.00    +0.033 C 
ATOM      9  C   UNL     1      34.913  -9.244 -23.974  0.00  0.00    -0.002 C 
ATOM     10  C   UNL     1      33.637 -11.243 -24.403  0.00  0.00    +0.147 C 
ATOM     11  C   UNL     1      34.737 -10.437 -24.672  0.00  0.00    +0.037 C 
ATOM     12  H   UNL     1      32.275  -6.922 -20.645  0.00  0.00    -0.080 HD
ENDROOT
BRANCH   1  13
ATOM     13  C   UNL     1      31.057  -5.613 -21.660  0.00  0.00    -0.058 C 
ATOM     14  C   UNL     1      31.858  -4.309 -21.473  0.00  0.00    -0.021 C 
ATOM     15  C   UNL     1      30.838  -5.179 -23.125  0.00  0.00    -0.021 C 
ATOM     16  C   UNL     1      31.036  -3.727 -22.643  0.00  0.00    -0.004 C 
ENDBRANCH   1  13
BRANCH  10  17
ATOM     17  O   UNL     1      33.464 -12.410 -25.081  0.00  0.00    -0.436 OA
BRANCH  17  20
ATOM     18  N   UNL     1      33.816 -14.700 -25.198  0.00  0.00    -0.209 NA
ATOM     19  C   UNL     1      34.563 -15.902 -23.236  0.00  0.00    +0.073 C 
ATOM     20  C   UNL     1      33.837 -13.584 -24.448  0.00  0.00    +0.230 C 
ATOM     21  C   UNL     1      34.568 -14.719 -22.506  0.00  0.00    +0.021 C 
ATOM     22  C   UNL     1      34.182 -15.840 -24.567  0.00  0.00    +0.117 C 
ATOM     23  C   UNL     1      34.198 -13.527 -23.118  0.00  0.00    +0.059 C 
BRANCH  19  25
ATOM     24  O   UNL     1      33.893 -18.776 -24.024  0.00  0.00    -0.275 OA
ATOM     25  N   UNL     1      34.937 -17.140 -22.635  0.00  0.00    -0.257 N 
ATOM     26  C   UNL     1      36.211 -18.628 -21.362  0.00  0.00    +0.031 C 
ATOM     27  C   UNL     1      35.703 -17.202 -21.405  0.00  0.00    +0.099 C 
ATOM     28  C   UNL     1      35.118 -19.413 -22.060  0.00  0.00    +0.087 C 
ATOM     29  C   UNL     1      34.571 -18.429 -23.069  0.00  0.00    +0.229 C 
ENDBRANCH  19  25
ENDBRANCH  17  20
ENDBRANCH  10  17
TORSDOF 4
ENDMDL
MODEL 9
REMARK VINA RESULT:     -10.8      1.790      2.975
REMARK  Name = 9976892
REMARK  4 active torsions:
REMARK  status: ('A' for Active; 'I' for Inactive)
REMARK    1  A    between atoms: N_1  and  C_13
REMARK    2  A    between atoms: C_10  and  O_17
REMARK    3  A    between atoms: O_17  and  C_20
REMARK    4  A    between atoms: C_19  and  N_25
REMARK                            x       y       z     vdW  Elec       q    Type
REMARK                         _______ _______ _______ _____ _____    ______ ____
ROOT
ATOM      1  N   UNL     1      32.767 -10.307 -22.117  0.00  0.00    +0.389 N 
ATOM      2  C   UNL     1      32.712 -11.712 -21.688  0.00  0.00    -0.073 C 
ATOM      3  C   UNL     1      32.567 -10.132 -23.565  0.00  0.00    -0.073 C 
ATOM      4  C   UNL     1      33.924 -12.534 -22.138  0.00  0.00    +0.003 C 
ATOM      5  C   UNL     1      33.749 -10.622 -24.406  0.00  0.00    +0.003 C 
ATOM      6  C   UNL     1      33.825 -13.017 -23.563  0.00  0.00    -0.025 C 
ATOM      7  C   UNL     1      33.742 -12.112 -24.636  0.00  0.00    -0.028 C 
ATOM      8  C   UNL     1      33.830 -14.396 -23.827  0.00  0.00    +0.033 C 
ATOM      9  C   UNL     1      33.667 -12.608 -25.949  0.00  0.00    -0.002 C 
ATOM     10  C   UNL     1      33.750 -14.875 -25.134  0.00  0.00    +0.147 C 
ATOM     11  C   UNL     1      33.669 -13.980 -26.195  0.00  0.00    +0.037 C 
ATOM     12  H   UNL     1      33.701  -9.957 -21.899  0.00  0.00    -0.080 HD
ENDROOT
BRANCH   1  13
ATOM     13  C   UNL     1      31.738  -9.580 -21.420  0.00  0.00    -0.058 C 
ATOM     14  C   UNL     1      31.312 -10.323 -20.138  0.00  0.00    -0.021 C 
ATOM     15  C   UNL     1      32.350  -8.503 -20.502  0.00  0.00    -0.021 C 
ATOM     16  C   UNL     1      31.338  -8.953 -19.428  0.00  0.00    -0.004 C 
ENDBRANCH   1  13
BRANCH  10  17
ATOM     17  O   UNL     1      33.754 -16.215 -25.370  0.00  0.00    -0.436 OA
BRANCH  17  20
ATOM     18  N   UNL     1      34.918 -16.500 -23.384  0.00  0.00    -0.209 NA
ATOM     19  C   UNL     1      34.925 -18.659 -22.295  0.00  0.00    +0.073 C 
ATOM     20  C   UNL     1      34.144 -17.050 -24.336  0.00  0.00    +0.230 C 
ATOM     21  C   UNL     1      34.123 -19.178 -23.305  0.00  0.00    +0.021 C 
ATOM     22  C   UNL     1      35.292 -17.326 -22.380  0.00  0.00    +0.117 C 
ATOM     23  C   UNL     1      33.718 -18.361 -24.355  0.00  0.00    +0.059 C 
BRANCH  19  25
ATOM     24  O   UNL     1      37.578 -18.711 -20.781  0.00  0.00    -0.275 OA
ATOM     25  N   UNL     1      35.356 -19.473 -21.206  0.00  0.00    -0.257 N 
ATOM     26  C   UNL     1      35.168 -20.844 -19.324  0.00  0.00    +0.031 C 
ATOM     27  C   UNL     1      34.536 -20.540 -20.666  0.00  0.00    +0.099 C 
ATOM     28  C   UNL     1      36.636 -20.545 -19.550  0.00  0.00    +0.087 C 
ATOM     29  C   UNL     1      36.612 -19.430 -20.571  0.00  0.00    +0.229 C 
ENDBRANCH  19  25
ENDBRANCH  17  20
ENDBRANCH  10  17
TORSDOF 4
ENDMDL
