MODEL 1
REMARK VINA RESULT:      -9.6      0.000      0.000
REMARK  Name = 24764443
REMARK  5 active torsions:
REMARK  status: ('A' for Active; 'I' for Inactive)
REMARK    1  A    between atoms: C_2  and  C_17
REMARK    2  A    between atoms: C_3  and  N_19
REMARK    3  A    between atoms: C_20  and  C_22
REMARK    4  A    between atoms: C_22  and  C_23
REMARK    5  A    between atoms: C_23  and  C_31
REMARK                            x       y       z     vdW  Elec       q    Type
REMARK                         _______ _______ _______ _____ _____    ______ ____
ROOT
ATOM      1 BR   UNL     1      30.775 -25.026 -12.575  0.00  0.00    -0.049 Br
ATOM      2  C   UNL     1      34.209 -24.318 -14.818  0.00  0.00    +0.068 C 
ATOM      3  C   UNL     1      33.881 -23.173 -15.545  0.00  0.00    +0.055 C 
ATOM      4  C   UNL     1      33.283 -24.870 -13.932  0.00  0.00    +0.012 C 
ATOM      5  C   UNL     1      32.628 -22.581 -15.387  0.00  0.00    +0.015 C 
ATOM      6  C   UNL     1      32.030 -24.279 -13.775  0.00  0.00    +0.035 C 
ATOM      7  C   UNL     1      31.702 -23.134 -14.502  0.00  0.00    +0.008 C 
ENDROOT
BRANCH   2  17
ATOM      8  O   UNL     1      35.578 -25.906 -15.749  0.00  0.00    -0.270 OA
ATOM      9  N   UNL     1      36.581 -24.476 -14.195  0.00  0.00    -0.276 N 
ATOM     10  C   UNL     1      38.383 -25.570 -12.921  0.00  0.00    +0.020 C 
ATOM     11  C   UNL     1      36.952 -23.755 -11.867  0.00  0.00    +0.020 C 
ATOM     12  C   UNL     1      38.344 -24.409 -11.911  0.00  0.00    +0.003 C 
ATOM     13  C   UNL     1      37.899 -25.102 -14.300  0.00  0.00    +0.094 C 
ATOM     14  C   UNL     1      36.519 -23.332 -13.275  0.00  0.00    +0.094 C 
ATOM     15  C   UNL     1      39.787 -26.163 -13.012  0.00  0.00    +0.002 C 
ATOM     16  C   UNL     1      36.945 -22.562 -10.916  0.00  0.00    +0.002 C 
ATOM     17  C   UNL     1      35.519 -24.964 -14.961  0.00  0.00    +0.250 C 
ENDBRANCH   2  17
BRANCH   3  19
ATOM     18  O   UNL     1      33.669 -22.696 -18.503  0.00  0.00    -0.275 OA
ATOM     19  N   UNL     1      34.793 -22.601 -16.438  0.00  0.00    -0.284 N 
ATOM     20  C   UNL     1      34.643 -22.403 -17.818  0.00  0.00    +0.227 C 
ATOM     21  H   UNL     1      35.646 -22.302 -16.050  0.00  0.00    +0.155 HD
BRANCH  20  22
ATOM     22  C   UNL     1      35.880 -21.745 -18.414  0.00  0.00    +0.095 C 
BRANCH  22  23
ATOM     23  C   UNL     1      35.649 -21.243 -19.832  0.00  0.00    +0.095 C 
BRANCH  23  31
ATOM     24  O   UNL     1      34.514 -17.560 -23.094  0.00  0.00    -0.350 OA
ATOM     25  O   UNL     1      37.027 -19.402 -19.254  0.00  0.00    -0.275 OA
ATOM     26  N   UNL     1      35.371 -19.004 -20.831  0.00  0.00    -0.274 N 
ATOM     27  C   UNL     1      34.168 -19.411 -21.564  0.00  0.00    +0.125 C 
ATOM     28  C   UNL     1      35.730 -17.595 -21.000  0.00  0.00    +0.125 C 
ATOM     29  C   UNL     1      34.259 -18.965 -23.018  0.00  0.00    +0.164 C 
ATOM     30  C   UNL     1      35.761 -17.230 -22.477  0.00  0.00    +0.164 C 
ATOM     31  C   UNL     1      36.083 -19.803 -19.939  0.00  0.00    +0.226 C 
ENDBRANCH  23  31
ENDBRANCH  22  23
ENDBRANCH  20  22
ENDBRANCH   3  19
TORSDOF 5
ENDMDL
MODEL 2
REMARK VINA RESULT:      -9.1      1.886      2.474
REMARK  Name = 24764443
REMARK  5 active torsions:
REMARK  status: ('A' for Active; 'I' for Inactive)
REMARK    1  A    between atoms: C_2  and  C_17
REMARK    2  A    between atoms: C_3  and  N_19
REMARK    3  A    between atoms: C_20  and  C_22
REMARK    4  A    between atoms: C_22  and  C_23
REMARK    5  A    between atoms: C_23  and  C_31
REMARK                            x       y       z     vdW  Elec       q    Type
REMARK                         _______ _______ _______ _____ _____    ______ ____
ROOT
ATOM      1 BR   UNL     1      31.042 -24.088 -13.542  0.00  0.00    -0.049 Br
ATOM      2  C   UNL     1      34.015 -22.877 -16.191  0.00  0.00    +0.068 C 
ATOM      3  C   UNL     1      33.290 -22.379 -17.274  0.00  0.00    +0.055 C 
ATOM      4  C   UNL     1      33.345 -23.386 -15.079  0.00  0.00    +0.012 C 
ATOM      5  C   UNL     1      31.895 -22.390 -17.244  0.00  0.00    +0.015 C 
ATOM      6  C   UNL     1      31.951 -23.399 -15.049  0.00  0.00    +0.035 C 
ATOM      7  C   UNL     1      31.225 -22.900 -16.132  0.00  0.00    +0.008 C 
ENDROOT
BRANCH   2  17
ATOM      8  O   UNL     1      36.027 -22.692 -17.278  0.00  0.00    -0.270 OA
ATOM      9  N   UNL     1      36.142 -23.098 -14.978  0.00  0.00    -0.276 N 
ATOM     10  C   UNL     1      38.107 -24.443 -14.347  0.00  0.00    +0.020 C 
ATOM     11  C   UNL     1      35.928 -24.624 -13.054  0.00  0.00    +0.020 C 
ATOM     12  C   UNL     1      37.463 -24.699 -12.974  0.00  0.00    +0.003 C 
ATOM     13  C   UNL     1      37.604 -23.120 -14.941  0.00  0.00    +0.094 C 
ATOM     14  C   UNL     1      35.493 -23.292 -13.674  0.00  0.00    +0.094 C 
ATOM     15  C   UNL     1      39.630 -24.445 -14.241  0.00  0.00    +0.002 C 
ATOM     16  C   UNL     1      35.304 -24.809 -11.674  0.00  0.00    +0.002 C 
ATOM     17  C   UNL     1      35.483 -22.878 -16.191  0.00  0.00    +0.250 C 
ENDBRANCH   2  17
BRANCH   3  19
ATOM     18  O   UNL     1      32.326 -20.447 -19.362  0.00  0.00    -0.275 OA
ATOM     19  N   UNL     1      33.940 -21.863 -18.400  0.00  0.00    -0.284 N 
ATOM     20  C   UNL     1      33.440 -20.959 -19.348  0.00  0.00    +0.227 C 
ATOM     21  H   UNL     1      34.862 -22.174 -18.545  0.00  0.00    +0.155 HD
BRANCH  20  22
ATOM     22  C   UNL     1      34.480 -20.658 -20.418  0.00  0.00    +0.095 C 
BRANCH  22  23
ATOM     23  C   UNL     1      34.758 -19.168 -20.560  0.00  0.00    +0.095 C 
BRANCH  23  31
ATOM     24  O   UNL     1      34.848 -14.717 -22.941  0.00  0.00    -0.350 OA
ATOM     25  O   UNL     1      34.554 -19.653 -22.871  0.00  0.00    -0.275 OA
ATOM     26  N   UNL     1      35.053 -17.457 -22.312  0.00  0.00    -0.274 N 
ATOM     27  C   UNL     1      35.448 -16.435 -21.336  0.00  0.00    +0.125 C 
ATOM     28  C   UNL     1      35.087 -17.004 -23.703  0.00  0.00    +0.125 C 
ATOM     29  C   UNL     1      34.682 -15.142 -21.586  0.00  0.00    +0.164 C 
ATOM     30  C   UNL     1      34.331 -15.691 -23.851  0.00  0.00    +0.164 C 
ATOM     31  C   UNL     1      34.778 -18.791 -22.019  0.00  0.00    +0.226 C 
ENDBRANCH  23  31
ENDBRANCH  22  23
ENDBRANCH  20  22
ENDBRANCH   3  19
TORSDOF 5
ENDMDL
MODEL 3
REMARK VINA RESULT:      -9.1      1.562      2.011
REMARK  Name = 24764443
REMARK  5 active torsions:
REMARK  status: ('A' for Active; 'I' for Inactive)
REMARK    1  A    between atoms: C_2  and  C_17
REMARK    2  A    between atoms: C_3  and  N_19
REMARK    3  A    between atoms: C_20  and  C_22
REMARK    4  A    between atoms: C_22  and  C_23
REMARK    5  A    between atoms: C_23  and  C_31
REMARK                            x       y       z     vdW  Elec       q    Type
REMARK                         _______ _______ _______ _____ _____    ______ ____
ROOT
ATOM      1 BR   UNL     1      31.371 -24.633 -13.148  0.00  0.00    -0.049 Br
ATOM      2  C   UNL     1      34.697 -23.162 -15.171  0.00  0.00    +0.068 C 
ATOM      3  C   UNL     1      34.185 -22.838 -16.428  0.00  0.00    +0.055 C 
ATOM      4  C   UNL     1      33.858 -23.696 -14.194  0.00  0.00    +0.012 C 
ATOM      5  C   UNL     1      32.835 -23.050 -16.707  0.00  0.00    +0.015 C 
ATOM      6  C   UNL     1      32.508 -23.909 -14.472  0.00  0.00    +0.035 C 
ATOM      7  C   UNL     1      31.996 -23.585 -15.729  0.00  0.00    +0.008 C 
ENDROOT
BRANCH   2  17
ATOM      8  O   UNL     1      36.587 -21.862 -15.167  0.00  0.00    -0.270 OA
ATOM      9  N   UNL     1      36.807 -23.987 -14.217  0.00  0.00    -0.276 N 
ATOM     10  C   UNL     1      39.058 -24.937 -14.525  0.00  0.00    +0.020 C 
ATOM     11  C   UNL     1      37.007 -26.433 -14.451  0.00  0.00    +0.020 C 
ATOM     12  C   UNL     1      38.506 -26.317 -14.127  0.00  0.00    +0.003 C 
ATOM     13  C   UNL     1      38.223 -23.818 -13.889  0.00  0.00    +0.094 C 
ATOM     14  C   UNL     1      36.234 -25.276 -13.808  0.00  0.00    +0.094 C 
ATOM     15  C   UNL     1      40.527 -24.807 -14.131  0.00  0.00    +0.002 C 
ATOM     16  C   UNL     1      36.454 -27.778 -13.988  0.00  0.00    +0.002 C 
ATOM     17  C   UNL     1      36.113 -22.950 -14.846  0.00  0.00    +0.250 C 
ENDBRANCH   2  17
BRANCH   3  19
ATOM     18  O   UNL     1      33.476 -21.474 -19.009  0.00  0.00    -0.275 OA
ATOM     19  N   UNL     1      35.007 -22.301 -17.424  0.00  0.00    -0.284 N 
ATOM     20  C   UNL     1      34.622 -21.672 -18.617  0.00  0.00    +0.227 C 
ATOM     21  H   UNL     1      35.976 -22.374 -17.269  0.00  0.00    +0.155 HD
BRANCH  20  22
ATOM     22  C   UNL     1      35.837 -21.231 -19.421  0.00  0.00    +0.095 C 
BRANCH  22  23
ATOM     23  C   UNL     1      35.458 -20.577 -20.741  0.00  0.00    +0.095 C 
BRANCH  23  31
ATOM     24  O   UNL     1      34.447 -16.753 -23.880  0.00  0.00    -0.350 OA
ATOM     25  O   UNL     1      36.531 -18.671 -19.826  0.00  0.00    -0.275 OA
ATOM     26  N   UNL     1      35.100 -18.297 -21.615  0.00  0.00    -0.274 N 
ATOM     27  C   UNL     1      34.071 -18.752 -22.556  0.00  0.00    +0.125 C 
ATOM     28  C   UNL     1      35.329 -16.852 -21.627  0.00  0.00    +0.125 C 
ATOM     29  C   UNL     1      34.333 -18.177 -23.943  0.00  0.00    +0.164 C 
ATOM     30  C   UNL     1      35.544 -16.362 -23.052  0.00  0.00    +0.164 C 
ATOM     31  C   UNL     1      35.749 -19.099 -20.678  0.00  0.00    +0.226 C 
ENDBRANCH  23  31
ENDBRANCH  22  23
ENDBRANCH  20  22
ENDBRANCH   3  19
TORSDOF 5
ENDMDL
MODEL 4
REMARK VINA RESULT:      -8.5     11.666     18.448
REMARK  Name = 24764443
REMARK  5 active torsions:
REMARK  status: ('A' for Active; 'I' for Inactive)
REMARK    1  A    between atoms: C_2  and  C_17
REMARK    2  A    between atoms: C_3  and  N_19
REMARK    3  A    between atoms: C_20  and  C_22
REMARK    4  A    between atoms: C_22  and  C_23
REMARK    5  A    between atoms: C_23  and  C_31
REMARK                            x       y       z     vdW  Elec       q    Type
REMARK                         _______ _______ _______ _____ _____    ______ ____
ROOT
ATOM      1 BR   UNL     1      30.498  -2.177 -21.398  0.00  0.00    -0.049 Br
ATOM      2  C   UNL     1      32.607  -5.352 -23.069  0.00  0.00    +0.068 C 
ATOM      3  C   UNL     1      31.803  -6.454 -22.778  0.00  0.00    +0.055 C 
ATOM      4  C   UNL     1      32.218  -4.077 -22.659  0.00  0.00    +0.012 C 
ATOM      5  C   UNL     1      30.610  -6.281 -22.075  0.00  0.00    +0.015 C 
ATOM      6  C   UNL     1      31.026  -3.904 -21.955  0.00  0.00    +0.035 C 
ATOM      7  C   UNL     1      30.222  -5.006 -21.664  0.00  0.00    +0.008 C 
ENDROOT
BRANCH   2  17
ATOM      8  O   UNL     1      34.797  -6.024 -23.197  0.00  0.00    -0.270 OA
ATOM      9  N   UNL     1      33.919  -5.033 -25.124  0.00  0.00    -0.276 N 
ATOM     10  C   UNL     1      35.608  -3.776 -26.402  0.00  0.00    +0.020 C 
ATOM     11  C   UNL     1      33.179  -3.036 -26.365  0.00  0.00    +0.020 C 
ATOM     12  C   UNL     1      34.475  -3.098 -27.191  0.00  0.00    +0.003 C 
ATOM     13  C   UNL     1      35.161  -5.151 -25.888  0.00  0.00    +0.094 C 
ATOM     14  C   UNL     1      32.800  -4.434 -25.864  0.00  0.00    +0.094 C 
ATOM     15  C   UNL     1      36.867  -3.901 -27.257  0.00  0.00    +0.002 C 
ATOM     16  C   UNL     1      32.044  -2.426 -27.183  0.00  0.00    +0.002 C 
ATOM     17  C   UNL     1      33.867  -5.500 -23.808  0.00  0.00    +0.250 C 
ENDBRANCH   2  17
BRANCH   3  19
ATOM     18  O   UNL     1      32.889  -8.755 -21.181  0.00  0.00    -0.275 OA
ATOM     19  N   UNL     1      32.172  -7.741 -23.180  0.00  0.00    -0.284 N 
ATOM     20  C   UNL     1      32.678  -8.783 -22.390  0.00  0.00    +0.227 C 
ATOM     21  H   UNL     1      32.064  -7.941 -24.138  0.00  0.00    +0.155 HD
BRANCH  20  22
ATOM     22  C   UNL     1      32.950 -10.024 -23.227  0.00  0.00    +0.095 C 
BRANCH  22  23
ATOM     23  C   UNL     1      32.920 -11.304 -22.403  0.00  0.00    +0.095 C 
BRANCH  23  31
ATOM     24  O   UNL     1      34.957 -15.790 -21.302  0.00  0.00    -0.350 OA
ATOM     25  O   UNL     1      33.413 -12.331 -24.482  0.00  0.00    -0.275 OA
ATOM     26  N   UNL     1      33.643 -13.655 -22.589  0.00  0.00    -0.274 N 
ATOM     27  C   UNL     1      33.452 -13.893 -21.154  0.00  0.00    +0.125 C 
ATOM     28  C   UNL     1      34.068 -14.835 -23.343  0.00  0.00    +0.125 C 
ATOM     29  C   UNL     1      34.669 -14.597 -20.569  0.00  0.00    +0.164 C 
ATOM     30  C   UNL     1      35.263 -15.493 -22.667  0.00  0.00    +0.164 C 
ATOM     31  C   UNL     1      33.345 -12.470 -23.258  0.00  0.00    +0.226 C 
ENDBRANCH  23  31
ENDBRANCH  22  23
ENDBRANCH  20  22
ENDBRANCH   3  19
TORSDOF 5
ENDMDL
MODEL 5
REMARK VINA RESULT:      -8.4      3.129      7.806
REMARK  Name = 24764443
REMARK  5 active torsions:
REMARK  status: ('A' for Active; 'I' for Inactive)
REMARK    1  A    between atoms: C_2  and  C_17
REMARK    2  A    between atoms: C_3  and  N_19
REMARK    3  A    between atoms: C_20  and  C_22
REMARK    4  A    between atoms: C_22  and  C_23
REMARK    5  A    between atoms: C_23  and  C_31
REMARK                            x       y       z     vdW  Elec       q    Type
REMARK                         _______ _______ _______ _____ _____    ______ ____
ROOT
ATOM      1 BR   UNL     1      28.454 -23.181 -16.864  0.00  0.00    -0.049 Br
ATOM      2  C   UNL     1      32.435 -23.085 -15.655  0.00  0.00    +0.068 C 
ATOM      3  C   UNL     1      32.342 -22.913 -14.274  0.00  0.00    +0.055 C 
ATOM      4  C   UNL     1      31.276 -23.166 -16.427  0.00  0.00    +0.012 C 
ATOM      5  C   UNL     1      31.090 -22.820 -13.665  0.00  0.00    +0.015 C 
ATOM      6  C   UNL     1      30.025 -23.072 -15.819  0.00  0.00    +0.035 C 
ATOM      7  C   UNL     1      29.932 -22.899 -14.438  0.00  0.00    +0.008 C 
ENDROOT
BRANCH   2  17
ATOM      8  O   UNL     1      34.649 -23.686 -15.669  0.00  0.00    -0.270 OA
ATOM      9  N   UNL     1      33.844 -22.711 -17.635  0.00  0.00    -0.276 N 
ATOM     10  C   UNL     1      35.558 -21.392 -18.813  0.00  0.00    +0.020 C 
ATOM     11  C   UNL     1      33.107 -20.730 -18.904  0.00  0.00    +0.020 C 
ATOM     12  C   UNL     1      34.447 -20.745 -19.659  0.00  0.00    +0.003 C 
ATOM     13  C   UNL     1      35.128 -22.784 -18.331  0.00  0.00    +0.094 C 
ATOM     14  C   UNL     1      32.748 -22.143 -18.431  0.00  0.00    +0.094 C 
ATOM     15  C   UNL     1      36.863 -21.470 -19.600  0.00  0.00    +0.002 C 
ATOM     16  C   UNL     1      31.998 -20.152 -19.778  0.00  0.00    +0.002 C 
ATOM     17  C   UNL     1      33.737 -23.188 -16.326  0.00  0.00    +0.250 C 
ENDBRANCH   2  17
BRANCH   3  19
ATOM     18  O   UNL     1      33.416 -24.805 -12.203  0.00  0.00    -0.275 OA
ATOM     19  N   UNL     1      33.490 -22.830 -13.480  0.00  0.00    -0.284 N 
ATOM     20  C   UNL     1      33.947 -23.746 -12.522  0.00  0.00    +0.227 C 
ATOM     21  H   UNL     1      34.046 -22.028 -13.608  0.00  0.00    +0.155 HD
BRANCH  20  22
ATOM     22  C   UNL     1      35.244 -23.271 -11.883  0.00  0.00    +0.095 C 
BRANCH  22  23
ATOM     23  C   UNL     1      36.019 -24.402 -11.223  0.00  0.00    +0.095 C 
BRANCH  23  31
ATOM     24  O   UNL     1      39.095 -26.616 -14.558  0.00  0.00    -0.350 OA
ATOM     25  O   UNL     1      38.202 -23.618 -10.729  0.00  0.00    -0.275 OA
ATOM     26  N   UNL     1      37.958 -24.848 -12.682  0.00  0.00    -0.274 N 
ATOM     27  C   UNL     1      37.123 -25.493 -13.700  0.00  0.00    +0.125 C 
ATOM     28  C   UNL     1      39.374 -24.751 -13.039  0.00  0.00    +0.125 C 
ATOM     29  C   UNL     1      37.745 -26.815 -14.133  0.00  0.00    +0.164 C 
ATOM     30  C   UNL     1      39.900 -26.106 -13.493  0.00  0.00    +0.164 C 
ATOM     31  C   UNL     1      37.490 -24.248 -11.515  0.00  0.00    +0.226 C 
ENDBRANCH  23  31
ENDBRANCH  22  23
ENDBRANCH  20  22
ENDBRANCH   3  19
TORSDOF 5
ENDMDL
MODEL 6
REMARK VINA RESULT:      -8.2      2.568      8.015
REMARK  Name = 24764443
REMARK  5 active torsions:
REMARK  status: ('A' for Active; 'I' for Inactive)
REMARK    1  A    between atoms: C_2  and  C_17
REMARK    2  A    between atoms: C_3  and  N_19
REMARK    3  A    between atoms: C_20  and  C_22
REMARK    4  A    between atoms: C_22  and  C_23
REMARK    5  A    between atoms: C_23  and  C_31
REMARK                            x       y       z     vdW  Elec       q    Type
REMARK                         _______ _______ _______ _____ _____    ______ ____
ROOT
ATOM      1 BR   UNL     1      30.567 -22.624 -15.738  0.00  0.00    -0.049 Br
ATOM      2  C   UNL     1      34.688 -23.110 -16.059  0.00  0.00    +0.068 C 
ATOM      3  C   UNL     1      34.958 -24.131 -15.147  0.00  0.00    +0.055 C 
ATOM      4  C   UNL     1      33.379 -22.662 -16.236  0.00  0.00    +0.012 C 
ATOM      5  C   UNL     1      33.919 -24.702 -14.411  0.00  0.00    +0.015 C 
ATOM      6  C   UNL     1      32.341 -23.231 -15.499  0.00  0.00    +0.035 C 
ATOM      7  C   UNL     1      32.611 -24.252 -14.587  0.00  0.00    +0.008 C 
ENDROOT
BRANCH   2  17
ATOM      8  O   UNL     1      36.852 -22.388 -16.298  0.00  0.00    -0.270 OA
ATOM      9  N   UNL     1      35.456 -22.059 -18.144  0.00  0.00    -0.276 N 
ATOM     10  C   UNL     1      36.035 -20.036 -19.425  0.00  0.00    +0.020 C 
ATOM     11  C   UNL     1      33.631 -20.840 -19.265  0.00  0.00    +0.020 C 
ATOM     12  C   UNL     1      34.676 -20.127 -20.140  0.00  0.00    +0.003 C 
ATOM     13  C   UNL     1      36.493 -21.424 -18.958  0.00  0.00    +0.094 C 
ATOM     14  C   UNL     1      34.158 -22.206 -18.815  0.00  0.00    +0.094 C 
ATOM     15  C   UNL     1      37.083 -19.395 -20.330  0.00  0.00    +0.002 C 
ATOM     16  C   UNL     1      32.308 -20.987 -20.012  0.00  0.00    +0.002 C 
ATOM     17  C   UNL     1      35.758 -22.490 -16.850  0.00  0.00    +0.250 C 
ENDBRANCH   2  17
BRANCH   3  19
ATOM     18  O   UNL     1      36.070 -26.918 -15.299  0.00  0.00    -0.275 OA
ATOM     19  N   UNL     1      36.262 -24.598 -14.954  0.00  0.00    -0.284 N 
ATOM     20  C   UNL     1      36.729 -25.917 -15.036  0.00  0.00    +0.227 C 
ATOM     21  H   UNL     1      36.935 -23.915 -14.731  0.00  0.00    +0.155 HD
BRANCH  20  22
ATOM     22  C   UNL     1      38.224 -25.988 -14.753  0.00  0.00    +0.095 C 
BRANCH  22  23
ATOM     23  C   UNL     1      38.529 -26.334 -13.303  0.00  0.00    +0.095 C 
BRANCH  23  31
ATOM     24  O   UNL     1      35.521 -23.505 -10.399  0.00  0.00    -0.350 OA
ATOM     25  O   UNL     1      39.803 -24.430 -12.693  0.00  0.00    -0.275 OA
ATOM     26  N   UNL     1      37.760 -24.699 -11.624  0.00  0.00    -0.274 N 
ATOM     27  C   UNL     1      36.574 -25.497 -11.296  0.00  0.00    +0.125 C 
ATOM     28  C   UNL     1      37.905 -23.483 -10.823  0.00  0.00    +0.125 C 
ATOM     29  C   UNL     1      35.332 -24.616 -11.279  0.00  0.00    +0.164 C 
ATOM     30  C   UNL     1      36.609 -22.685 -10.832  0.00  0.00    +0.164 C 
ATOM     31  C   UNL     1      38.763 -25.070 -12.517  0.00  0.00    +0.226 C 
ENDBRANCH  23  31
ENDBRANCH  22  23
ENDBRANCH  20  22
ENDBRANCH   3  19
TORSDOF 5
ENDMDL
MODEL 7
REMARK VINA RESULT:      -7.9      5.907     12.390
REMARK  Name = 24764443
REMARK  5 active torsions:
REMARK  status: ('A' for Active; 'I' for Inactive)
REMARK    1  A    between atoms: C_2  and  C_17
REMARK    2  A    between atoms: C_3  and  N_19
REMARK    3  A    between atoms: C_20  and  C_22
REMARK    4  A    between atoms: C_22  and  C_23
REMARK    5  A    between atoms: C_23  and  C_31
REMARK                            x       y       z     vdW  Elec       q    Type
REMARK                         _______ _______ _______ _____ _____    ______ ____
ROOT
ATOM      1 BR   UNL     1      32.355 -12.307 -26.718  0.00  0.00    -0.049 Br
ATOM      2  C   UNL     1      33.436 -13.886 -23.022  0.00  0.00    +0.068 C 
ATOM      3  C   UNL     1      34.169 -15.022 -23.367  0.00  0.00    +0.055 C 
ATOM      4  C   UNL     1      32.896 -13.076 -24.021  0.00  0.00    +0.012 C 
ATOM      5  C   UNL     1      34.361 -15.349 -24.709  0.00  0.00    +0.015 C 
ATOM      6  C   UNL     1      33.086 -13.403 -25.364  0.00  0.00    +0.035 C 
ATOM      7  C   UNL     1      33.820 -14.539 -25.708  0.00  0.00    +0.008 C 
ENDROOT
BRANCH   2  17
ATOM      8  O   UNL     1      33.075 -14.444 -20.827  0.00  0.00    -0.270 OA
ATOM      9  N   UNL     1      33.177 -12.156 -21.296  0.00  0.00    -0.276 N 
ATOM     10  C   UNL     1      31.730 -10.817 -19.819  0.00  0.00    +0.020 C 
ATOM     11  C   UNL     1      32.166 -10.106 -22.218  0.00  0.00    +0.020 C 
ATOM     12  C   UNL     1      31.883  -9.628 -20.783  0.00  0.00    +0.003 C 
ATOM     13  C   UNL     1      32.947 -11.746 -19.910  0.00  0.00    +0.094 C 
ATOM     14  C   UNL     1      33.376 -11.045 -22.237  0.00  0.00    +0.094 C 
ATOM     15  C   UNL     1      31.525 -10.331 -18.386  0.00  0.00    +0.002 C 
ATOM     16  C   UNL     1      32.386  -8.918 -23.151  0.00  0.00    +0.002 C 
ATOM     17  C   UNL     1      33.217 -13.515 -21.619  0.00  0.00    +0.250 C 
ENDBRANCH   2  17
BRANCH   3  19
ATOM     18  O   UNL     1      34.679 -17.983 -23.373  0.00  0.00    -0.275 OA
ATOM     19  N   UNL     1      34.721 -15.849 -22.382  0.00  0.00    -0.284 N 
ATOM     20  C   UNL     1      34.937 -17.233 -22.436  0.00  0.00    +0.227 C 
ATOM     21  H   UNL     1      34.991 -15.403 -21.547  0.00  0.00    +0.155 HD
BRANCH  20  22
ATOM     22  C   UNL     1      35.562 -17.741 -21.145  0.00  0.00    +0.095 C 
BRANCH  22  23
ATOM     23  C   UNL     1      35.104 -19.148 -20.788  0.00  0.00    +0.095 C 
BRANCH  23  31
ATOM     24  O   UNL     1      34.673 -22.863 -17.396  0.00  0.00    -0.350 OA
ATOM     25  O   UNL     1      37.173 -19.229 -19.633  0.00  0.00    -0.275 OA
ATOM     26  N   UNL     1      35.679 -20.954 -19.209  0.00  0.00    -0.274 N 
ATOM     27  C   UNL     1      34.450 -21.696 -19.512  0.00  0.00    +0.125 C 
ATOM     28  C   UNL     1      36.567 -21.626 -18.260  0.00  0.00    +0.125 C 
ATOM     29  C   UNL     1      33.764 -22.130 -18.222  0.00  0.00    +0.164 C 
ATOM     30  C   UNL     1      35.792 -22.056 -17.022  0.00  0.00    +0.164 C 
ATOM     31  C   UNL     1      36.084 -19.774 -19.828  0.00  0.00    +0.226 C 
ENDBRANCH  23  31
ENDBRANCH  22  23
ENDBRANCH  20  22
ENDBRANCH   3  19
TORSDOF 5
ENDMDL
MODEL 8
REMARK VINA RESULT:      -7.8      6.098     12.818
REMARK  Name = 24764443
REMARK  5 active torsions:
REMARK  status: ('A' for Active; 'I' for Inactive)
REMARK    1  A    between atoms: C_2  and  C_17
REMARK    2  A    between atoms: C_3  and  N_19
REMARK    3  A    between atoms: C_20  and  C_22
REMARK    4  A    between atoms: C_22  and  C_23
REMARK    5  A    between atoms: C_23  and  C_31
REMARK                            x       y       z     vdW  Elec       q    Type
REMARK                         _______ _______ _______ _____ _____    ______ ____
ROOT
ATOM      1 BR   UNL     1      30.824 -10.229 -19.584  0.00  0.00    -0.049 Br
ATOM      2  C   UNL     1      33.251 -12.689 -21.903  0.00  0.00    +0.068 C 
ATOM      3  C   UNL     1      33.340 -13.855 -21.142  0.00  0.00    +0.055 C 
ATOM      4  C   UNL     1      32.501 -11.609 -21.439  0.00  0.00    +0.012 C 
ATOM      5  C   UNL     1      32.679 -13.940 -19.916  0.00  0.00    +0.015 C 
ATOM      6  C   UNL     1      31.841 -11.693 -20.213  0.00  0.00    +0.035 C 
ATOM      7  C   UNL     1      31.930 -12.858 -19.452  0.00  0.00    +0.008 C 
ENDROOT
BRANCH   2  17
ATOM      8  O   UNL     1      34.511 -13.576 -23.603  0.00  0.00    -0.270 OA
ATOM      9  N   UNL     1      33.887 -11.337 -23.855  0.00  0.00    -0.276 N 
ATOM     10  C   UNL     1      35.567 -10.013 -25.076  0.00  0.00    +0.020 C 
ATOM     11  C   UNL     1      34.138  -8.958 -23.261  0.00  0.00    +0.020 C 
ATOM     12  C   UNL     1      34.875  -8.728 -24.592  0.00  0.00    +0.003 C 
ATOM     13  C   UNL     1      34.567 -11.175 -25.140  0.00  0.00    +0.094 C 
ATOM     14  C   UNL     1      33.173 -10.142 -23.386  0.00  0.00    +0.094 C 
ATOM     15  C   UNL     1      36.231  -9.794 -26.434  0.00  0.00    +0.002 C 
ATOM     16  C   UNL     1      33.396  -7.697 -22.827  0.00  0.00    +0.002 C 
ATOM     17  C   UNL     1      33.934 -12.569 -23.197  0.00  0.00    +0.250 C 
ENDBRANCH   2  17
BRANCH   3  19
ATOM     18  O   UNL     1      35.040 -15.802 -19.612  0.00  0.00    -0.275 OA
ATOM     19  N   UNL     1      34.085 -14.951 -21.587  0.00  0.00    -0.284 N 
ATOM     20  C   UNL     1      34.867 -15.832 -20.826  0.00  0.00    +0.227 C 
ATOM     21  H   UNL     1      34.058 -15.126 -22.555  0.00  0.00    +0.155 HD
BRANCH  20  22
ATOM     22  C   UNL     1      35.514 -16.892 -21.707  0.00  0.00    +0.095 C 
BRANCH  22  23
ATOM     23  C   UNL     1      35.011 -18.295 -21.398  0.00  0.00    +0.095 C 
BRANCH  23  31
ATOM     24  O   UNL     1      34.840 -22.290 -18.316  0.00  0.00    -0.350 OA
ATOM     25  O   UNL     1      37.223 -18.611 -20.604  0.00  0.00    -0.275 OA
ATOM     26  N   UNL     1      35.690 -20.277 -20.096  0.00  0.00    -0.274 N 
ATOM     27  C   UNL     1      34.377 -20.911 -20.258  0.00  0.00    +0.125 C 
ATOM     28  C   UNL     1      36.663 -21.090 -19.365  0.00  0.00    +0.125 C 
ATOM     29  C   UNL     1      33.871 -21.428 -18.918  0.00  0.00    +0.164 C 
ATOM     30  C   UNL     1      36.060 -21.592 -18.060  0.00  0.00    +0.164 C 
ATOM     31  C   UNL     1      36.079 -19.068 -20.668  0.00  0.00    +0.226 C 
ENDBRANCH  23  31
ENDBRANCH  22  23
ENDBRANCH  20  22
ENDBRANCH   3  19
TORSDOF 5
ENDMDL
MODEL 9
REMARK VINA RESULT:      -7.7      3.647      7.266
REMARK  Name = 24764443
REMARK  5 active torsions:
REMARK  status: ('A' for Active; 'I' for Inactive)
REMARK    1  A    between atoms: C_2  and  C_17
REMARK    2  A    between atoms: C_3  and  N_19
REMARK    3  A    between atoms: C_20  and  C_22
REMARK    4  A    between atoms: C_22  and  C_23
REMARK    5  A    between atoms: C_23  and  C_31
REMARK                            x       y       z     vdW  Elec       q    Type
REMARK                         _______ _______ _______ _____ _____    ______ ____
ROOT
ATOM      1 BR   UNL     1      39.045 -25.494 -13.160  0.00  0.00    -0.049 Br
ATOM      2  C   UNL     1      35.262 -24.166 -14.275  0.00  0.00    +0.068 C 
ATOM      3  C   UNL     1      34.592 -24.060 -13.056  0.00  0.00    +0.055 C 
ATOM      4  C   UNL     1      36.589 -24.592 -14.306  0.00  0.00    +0.012 C 
ATOM      5  C   UNL     1      35.249 -24.381 -11.868  0.00  0.00    +0.015 C 
ATOM      6  C   UNL     1      37.246 -24.915 -13.119  0.00  0.00    +0.035 C 
ATOM      7  C   UNL     1      36.577 -24.809 -11.900  0.00  0.00    +0.008 C 
ENDROOT
BRANCH   2  17
ATOM      8  O   UNL     1      33.742 -24.625 -15.931  0.00  0.00    -0.270 OA
ATOM      9  N   UNL     1      34.992 -22.669 -16.206  0.00  0.00    -0.276 N 
ATOM     10  C   UNL     1      35.425 -22.142 -18.573  0.00  0.00    +0.020 C 
ATOM     11  C   UNL     1      37.106 -21.533 -16.769  0.00  0.00    +0.020 C 
ATOM     12  C   UNL     1      36.505 -21.140 -18.130  0.00  0.00    +0.003 C 
ATOM     13  C   UNL     1      34.364 -22.311 -17.478  0.00  0.00    +0.094 C 
ATOM     14  C   UNL     1      35.995 -21.707 -15.728  0.00  0.00    +0.094 C 
ATOM     15  C   UNL     1      34.783 -21.702 -19.887  0.00  0.00    +0.002 C 
ATOM     16  C   UNL     1      38.125 -20.495 -16.306  0.00  0.00    +0.002 C 
ATOM     17  C   UNL     1      34.599 -23.833 -15.542  0.00  0.00    +0.250 C 
ENDBRANCH   2  17
BRANCH   3  19
ATOM     18  O   UNL     1      32.038 -25.639 -13.131  0.00  0.00    -0.275 OA
ATOM     19  N   UNL     1      33.261 -23.633 -13.000  0.00  0.00    -0.284 N 
ATOM     20  C   UNL     1      32.099 -24.417 -13.040  0.00  0.00    +0.227 C 
ATOM     21  H   UNL     1      33.123 -22.662 -12.924  0.00  0.00    +0.155 HD
BRANCH  20  22
ATOM     22  C   UNL     1      30.850 -23.551 -12.952  0.00  0.00    +0.095 C 
BRANCH  22  23
ATOM     23  C   UNL     1      29.602 -24.275 -13.435  0.00  0.00    +0.095 C 
BRANCH  23  31
ATOM     24  O   UNL     1      26.434 -21.760 -16.457  0.00  0.00    -0.350 OA
ATOM     25  O   UNL     1      30.147 -24.926 -15.649  0.00  0.00    -0.275 OA
ATOM     26  N   UNL     1      28.643 -23.172 -15.423  0.00  0.00    -0.274 N 
ATOM     27  C   UNL     1      27.954 -22.165 -14.609  0.00  0.00    +0.125 C 
ATOM     28  C   UNL     1      28.477 -22.995 -16.866  0.00  0.00    +0.125 C 
ATOM     29  C   UNL     1      26.503 -22.029 -15.055  0.00  0.00    +0.164 C 
ATOM     30  C   UNL     1      27.005 -22.831 -17.214  0.00  0.00    +0.164 C 
ATOM     31  C   UNL     1      29.495 -24.160 -14.934  0.00  0.00    +0.226 C 
ENDBRANCH  23  31
ENDBRANCH  22  23
ENDBRANCH  20  22
ENDBRANCH   3  19
TORSDOF 5
ENDMDL
