MODEL 1
REMARK VINA RESULT:     -11.9      0.000      0.000
REMARK  Name = 656913
REMARK  7 active torsions:
REMARK  status: ('A' for Active; 'I' for Inactive)
REMARK    1  A    between atoms: N_3  and  C_22
REMARK    2  A    between atoms: N_4  and  C_11
REMARK    3  A    between atoms: C_11  and  C_14
REMARK    4  A    between atoms: C_14  and  C_17
REMARK    5  A    between atoms: C_22  and  C_25
REMARK    6  A    between atoms: N_24  and  C_27
REMARK    7  A    between atoms: C_27  and  C_29
REMARK                            x       y       z     vdW  Elec       q    Type
REMARK                         _______ _______ _______ _____ _____    ______ ____
ROOT
ATOM      1 CL   UNL     1      32.842 -12.654 -26.041  0.00  0.00    -0.064 Cl
ATOM      2  O   UNL     1      35.061 -13.733 -21.663  0.00  0.00    -0.266 OA
ATOM      3  N   UNL     1      34.026 -13.193 -23.696  0.00  0.00    -0.233 N 
ATOM      4  N   UNL     1      35.051 -16.383 -22.137  0.00  0.00    -0.310 N 
ATOM      5  N   UNL     1      34.013 -15.962 -24.196  0.00  0.00    -0.223 NA
ATOM      6  C   UNL     1      34.524 -15.534 -23.076  0.00  0.00    +0.183 C 
ATOM      7  C   UNL     1      34.565 -14.050 -22.737  0.00  0.00    +0.285 C 
ATOM      8  C   UNL     1      33.504 -13.720 -24.861  0.00  0.00    +0.133 C 
ATOM      9  C   UNL     1      33.513 -15.041 -25.069  0.00  0.00    +0.127 C 
ATOM     10  H   UNL     1      35.424 -16.004 -21.308  0.00  0.00    +0.149 HD
ENDROOT
BRANCH   4  11
ATOM     11  C   UNL     1      35.080 -17.800 -22.321  0.00  0.00    +0.162 C 
BRANCH  11  14
ATOM     12  F   UNL     1      36.193 -17.494 -20.277  0.00  0.00    -0.196 F 
ATOM     13  F   UNL     1      36.966 -19.011 -21.622  0.00  0.00    -0.196 F 
ATOM     14  C   UNL     1      35.804 -18.468 -21.153  0.00  0.00    +0.317 C 
BRANCH  14  17
ATOM     15  O   UNL     1      36.776 -20.366 -19.407  0.00  0.00    -0.163 OA
ATOM     16  N   UNL     1      35.522 -20.395 -19.642  0.00  0.00    -0.128 N 
ATOM     17  C   UNL     1      34.923 -19.501 -20.494  0.00  0.00    +0.142 C 
ATOM     18  C   UNL     1      33.566 -19.521 -20.756  0.00  0.00    +0.022 C 
ATOM     19  C   UNL     1      34.731 -21.348 -19.031  0.00  0.00    +0.121 C 
ATOM     20  C   UNL     1      32.778 -20.485 -20.134  0.00  0.00    +0.003 C 
ATOM     21  C   UNL     1      33.361 -21.404 -19.267  0.00  0.00    +0.022 C 
ENDBRANCH  14  17
ENDBRANCH  11  14
ENDBRANCH   4  11
BRANCH   3  22
ATOM     22  C   UNL     1      34.028 -11.756 -23.442  0.00  0.00    +0.184 C 
BRANCH  22  25
ATOM     23  O   UNL     1      32.153 -12.240 -21.996  0.00  0.00    -0.273 OA
ATOM     24  N   UNL     1      32.680 -10.026 -22.466  0.00  0.00    -0.299 N 
ATOM     25  C   UNL     1      32.863 -11.399 -22.543  0.00  0.00    +0.243 C 
ATOM     26  H   UNL     1      33.312  -9.444 -22.947  0.00  0.00    +0.150 HD
BRANCH  24  27
ATOM     27  C   UNL     1      31.610  -9.408 -21.716  0.00  0.00    +0.119 C 
BRANCH  27  29
ATOM     28  F   UNL     1      33.303  -7.879 -20.048  0.00  0.00    -0.204 F 
ATOM     29  C   UNL     1      31.674  -7.909 -21.776  0.00  0.00    +0.025 C 
ATOM     30  C   UNL     1      32.531  -7.221 -20.925  0.00  0.00    +0.138 C 
ATOM     31  C   UNL     1      30.874  -7.226 -22.683  0.00  0.00    -0.000 C 
ATOM     32  C   UNL     1      32.589  -5.829 -20.983  0.00  0.00    +0.029 C 
ATOM     33  C   UNL     1      30.933  -5.834 -22.741  0.00  0.00    -0.000 C 
ATOM     34  C   UNL     1      31.789  -5.135 -21.892  0.00  0.00    +0.002 C 
ENDBRANCH  27  29
ENDBRANCH  24  27
ENDBRANCH  22  25
ENDBRANCH   3  22
TORSDOF 7
ENDMDL
MODEL 2
REMARK VINA RESULT:     -11.6      2.548     10.319
REMARK  Name = 656913
REMARK  7 active torsions:
REMARK  status: ('A' for Active; 'I' for Inactive)
REMARK    1  A    between atoms: N_3  and  C_22
REMARK    2  A    between atoms: N_4  and  C_11
REMARK    3  A    between atoms: C_11  and  C_14
REMARK    4  A    between atoms: C_14  and  C_17
REMARK    5  A    between atoms: C_22  and  C_25
REMARK    6  A    between atoms: N_24  and  C_27
REMARK    7  A    between atoms: C_27  and  C_29
REMARK                            x       y       z     vdW  Elec       q    Type
REMARK                         _______ _______ _______ _____ _____    ______ ____
ROOT
ATOM      1 CL   UNL     1      34.927 -16.002 -25.134  0.00  0.00    -0.064 Cl
ATOM      2  O   UNL     1      34.264 -14.716 -20.322  0.00  0.00    -0.266 OA
ATOM      3  N   UNL     1      34.599 -15.342 -22.557  0.00  0.00    -0.233 N 
ATOM      4  N   UNL     1      32.471 -12.799 -20.924  0.00  0.00    -0.310 N 
ATOM      5  N   UNL     1      32.726 -13.340 -23.190  0.00  0.00    -0.223 NA
ATOM      6  C   UNL     1      33.030 -13.534 -21.938  0.00  0.00    +0.183 C 
ATOM      7  C   UNL     1      34.035 -14.599 -21.520  0.00  0.00    +0.285 C 
ATOM      8  C   UNL     1      34.227 -15.079 -23.860  0.00  0.00    +0.133 C 
ATOM      9  C   UNL     1      33.334 -14.121 -24.129  0.00  0.00    +0.127 C 
ATOM     10  H   UNL     1      32.738 -12.989 -19.995  0.00  0.00    +0.149 HD
ENDROOT
BRANCH   4  11
ATOM     11  C   UNL     1      31.513 -11.767 -21.168  0.00  0.00    +0.162 C 
BRANCH  11  14
ATOM     12  F   UNL     1      32.463 -11.076 -19.135  0.00  0.00    -0.196 F 
ATOM     13  F   UNL     1      30.505 -10.293 -19.645  0.00  0.00    -0.196 F 
ATOM     14  C   UNL     1      31.717 -10.616 -20.183  0.00  0.00    +0.317 C 
BRANCH  14  17
ATOM     15  O   UNL     1      32.500  -8.352 -18.822  0.00  0.00    -0.163 OA
ATOM     16  N   UNL     1      32.712  -8.364 -20.079  0.00  0.00    -0.128 N 
ATOM     17  C   UNL     1      32.366  -9.435 -20.864  0.00  0.00    +0.142 C 
ATOM     18  C   UNL     1      32.593  -9.461 -22.227  0.00  0.00    +0.022 C 
ATOM     19  C   UNL     1      33.307  -7.274 -20.685  0.00  0.00    +0.121 C 
ATOM     20  C   UNL     1      33.193  -8.359 -22.826  0.00  0.00    +0.003 C 
ATOM     21  C   UNL     1      33.553  -7.259 -22.054  0.00  0.00    +0.022 C 
ENDBRANCH  14  17
ENDBRANCH  11  14
ENDBRANCH   4  11
BRANCH   3  22
ATOM     22  C   UNL     1      35.573 -16.380 -22.234  0.00  0.00    +0.184 C 
BRANCH  22  25
ATOM     23  O   UNL     1      34.635 -18.229 -23.477  0.00  0.00    -0.273 OA
ATOM     24  N   UNL     1      34.676 -18.327 -21.156  0.00  0.00    -0.299 N 
ATOM     25  C   UNL     1      34.929 -17.742 -22.388  0.00  0.00    +0.243 C 
ATOM     26  H   UNL     1      34.957 -17.846 -20.343  0.00  0.00    +0.150 HD
BRANCH  24  27
ATOM     27  C   UNL     1      34.023 -19.608 -21.004  0.00  0.00    +0.119 C 
BRANCH  27  29
ATOM     28  F   UNL     1      32.553 -21.316 -19.299  0.00  0.00    -0.204 F 
ATOM     29  C   UNL     1      34.668 -20.445 -19.936  0.00  0.00    +0.025 C 
ATOM     30  C   UNL     1      33.882 -21.263 -19.133  0.00  0.00    +0.138 C 
ATOM     31  C   UNL     1      36.045 -20.390 -19.763  0.00  0.00    -0.000 C 
ATOM     32  C   UNL     1      34.484 -22.039 -18.143  0.00  0.00    +0.029 C 
ATOM     33  C   UNL     1      36.646 -21.166 -18.772  0.00  0.00    -0.000 C 
ATOM     34  C   UNL     1      35.866 -21.990 -17.962  0.00  0.00    +0.002 C 
ENDBRANCH  27  29
ENDBRANCH  24  27
ENDBRANCH  22  25
ENDBRANCH   3  22
TORSDOF 7
ENDMDL
MODEL 3
REMARK VINA RESULT:     -11.4      2.375      3.315
REMARK  Name = 656913
REMARK  7 active torsions:
REMARK  status: ('A' for Active; 'I' for Inactive)
REMARK    1  A    between atoms: N_3  and  C_22
REMARK    2  A    between atoms: N_4  and  C_11
REMARK    3  A    between atoms: C_11  and  C_14
REMARK    4  A    between atoms: C_14  and  C_17
REMARK    5  A    between atoms: C_22  and  C_25
REMARK    6  A    between atoms: N_24  and  C_27
REMARK    7  A    between atoms: C_27  and  C_29
REMARK                            x       y       z     vdW  Elec       q    Type
REMARK                         _______ _______ _______ _____ _____    ______ ____
ROOT
ATOM      1 CL   UNL     1      34.463 -15.438 -24.925  0.00  0.00    -0.064 Cl
ATOM      2  O   UNL     1      35.234 -16.253 -20.026  0.00  0.00    -0.266 OA
ATOM      3  N   UNL     1      34.874 -15.835 -22.305  0.00  0.00    -0.233 N 
ATOM      4  N   UNL     1      35.196 -18.931 -20.311  0.00  0.00    -0.310 N 
ATOM      5  N   UNL     1      34.834 -18.633 -22.608  0.00  0.00    -0.223 NA
ATOM      6  C   UNL     1      35.021 -18.138 -21.417  0.00  0.00    +0.183 C 
ATOM      7  C   UNL     1      35.054 -16.635 -21.177  0.00  0.00    +0.285 C 
ATOM      8  C   UNL     1      34.683 -16.432 -23.536  0.00  0.00    +0.133 C 
ATOM      9  C   UNL     1      34.670 -17.764 -23.647  0.00  0.00    +0.127 C 
ATOM     10  H   UNL     1      35.333 -18.502 -19.435  0.00  0.00    +0.149 HD
ENDROOT
BRANCH   4  11
ATOM     11  C   UNL     1      35.189 -20.358 -20.387  0.00  0.00    +0.162 C 
BRANCH  11  14
ATOM     12  F   UNL     1      36.788 -19.926 -18.723  0.00  0.00    -0.196 F 
ATOM     13  F   UNL     1      37.028 -21.732 -19.901  0.00  0.00    -0.196 F 
ATOM     14  C   UNL     1      36.087 -20.947 -19.300  0.00  0.00    +0.317 C 
BRANCH  14  17
ATOM     15  O   UNL     1      37.113 -21.791 -16.886  0.00  0.00    -0.163 OA
ATOM     16  N   UNL     1      35.894 -22.083 -17.121  0.00  0.00    -0.128 N 
ATOM     17  C   UNL     1      35.272 -21.716 -18.288  0.00  0.00    +0.142 C 
ATOM     18  C   UNL     1      33.951 -22.024 -18.554  0.00  0.00    +0.022 C 
ATOM     19  C   UNL     1      35.163 -22.788 -16.184  0.00  0.00    +0.121 C 
ATOM     20  C   UNL     1      33.225 -22.734 -17.603  0.00  0.00    +0.003 C 
ATOM     21  C   UNL     1      33.832 -23.118 -16.412  0.00  0.00    +0.022 C 
ENDBRANCH  14  17
ENDBRANCH  11  14
ENDBRANCH   4  11
BRANCH   3  22
ATOM     22  C   UNL     1      34.892 -14.384 -22.155  0.00  0.00    +0.184 C 
BRANCH  22  25
ATOM     23  O   UNL     1      32.699 -13.813 -22.996  0.00  0.00    -0.273 OA
ATOM     24  N   UNL     1      33.189 -13.431 -20.757  0.00  0.00    -0.299 N 
ATOM     25  C   UNL     1      33.472 -13.869 -22.043  0.00  0.00    +0.243 C 
ATOM     26  H   UNL     1      33.886 -13.525 -20.068  0.00  0.00    +0.150 HD
BRANCH  24  27
ATOM     27  C   UNL     1      31.922 -12.846 -20.379  0.00  0.00    +0.119 C 
BRANCH  27  29
ATOM     28  F   UNL     1      31.880 -11.168 -18.105  0.00  0.00    -0.204 F 
ATOM     29  C   UNL     1      31.946 -11.347 -20.471  0.00  0.00    +0.025 C 
ATOM     30  C   UNL     1      31.924 -10.583 -19.310  0.00  0.00    +0.138 C 
ATOM     31  C   UNL     1      31.991 -10.739 -21.720  0.00  0.00    -0.000 C 
ATOM     32  C   UNL     1      31.946  -9.192 -19.400  0.00  0.00    +0.029 C 
ATOM     33  C   UNL     1      32.014  -9.348 -21.809  0.00  0.00    -0.000 C 
ATOM     34  C   UNL     1      31.992  -8.574 -20.650  0.00  0.00    +0.002 C 
ENDBRANCH  27  29
ENDBRANCH  24  27
ENDBRANCH  22  25
ENDBRANCH   3  22
TORSDOF 7
ENDMDL
MODEL 4
REMARK VINA RESULT:     -11.3      2.100      2.513
REMARK  Name = 656913
REMARK  7 active torsions:
REMARK  status: ('A' for Active; 'I' for Inactive)
REMARK    1  A    between atoms: N_3  and  C_22
REMARK    2  A    between atoms: N_4  and  C_11
REMARK    3  A    between atoms: C_11  and  C_14
REMARK    4  A    between atoms: C_14  and  C_17
REMARK    5  A    between atoms: C_22  and  C_25
REMARK    6  A    between atoms: N_24  and  C_27
REMARK    7  A    between atoms: C_27  and  C_29
REMARK                            x       y       z     vdW  Elec       q    Type
REMARK                         _______ _______ _______ _____ _____    ______ ____
ROOT
ATOM      1 CL   UNL     1      31.509 -11.161 -20.688  0.00  0.00    -0.064 Cl
ATOM      2  O   UNL     1      34.373 -13.763 -23.894  0.00  0.00    -0.266 OA
ATOM      3  N   UNL     1      33.031 -12.523 -22.425  0.00  0.00    -0.233 N 
ATOM      4  N   UNL     1      34.987 -15.638 -22.061  0.00  0.00    -0.310 N 
ATOM      5  N   UNL     1      33.669 -14.480 -20.507  0.00  0.00    -0.223 NA
ATOM      6  C   UNL     1      34.166 -14.598 -21.705  0.00  0.00    +0.183 C 
ATOM      7  C   UNL     1      33.865 -13.578 -22.795  0.00  0.00    +0.285 C 
ATOM      8  C   UNL     1      32.540 -12.466 -21.136  0.00  0.00    +0.133 C 
ATOM      9  C   UNL     1      32.861 -13.411 -20.247  0.00  0.00    +0.127 C 
ATOM     10  H   UNL     1      35.334 -15.677 -22.982  0.00  0.00    +0.149 HD
ENDROOT
BRANCH   4  11
ATOM     11  C   UNL     1      35.354 -16.668 -21.141  0.00  0.00    +0.162 C 
BRANCH  11  14
ATOM     12  F   UNL     1      36.561 -18.059 -22.598  0.00  0.00    -0.196 F 
ATOM     13  F   UNL     1      34.399 -18.062 -22.771  0.00  0.00    -0.196 F 
ATOM     14  C   UNL     1      35.413 -18.017 -21.858  0.00  0.00    +0.317 C 
BRANCH  14  17
ATOM     15  O   UNL     1      37.621 -18.999 -20.534  0.00  0.00    -0.163 OA
ATOM     16  N   UNL     1      36.504 -19.557 -20.273  0.00  0.00    -0.128 N 
ATOM     17  C   UNL     1      35.335 -19.155 -20.870  0.00  0.00    +0.142 C 
ATOM     18  C   UNL     1      34.119 -19.750 -20.594  0.00  0.00    +0.022 C 
ATOM     19  C   UNL     1      36.452 -20.598 -19.366  0.00  0.00    +0.121 C 
ATOM     20  C   UNL     1      34.077 -20.797 -19.679  0.00  0.00    +0.003 C 
ATOM     21  C   UNL     1      35.248 -21.224 -19.061  0.00  0.00    +0.022 C 
ENDBRANCH  14  17
ENDBRANCH  11  14
ENDBRANCH   4  11
BRANCH   3  22
ATOM     22  C   UNL     1      32.698 -11.504 -23.415  0.00  0.00    +0.184 C 
BRANCH  22  25
ATOM     23  O   UNL     1      34.862 -10.448 -23.620  0.00  0.00    -0.273 OA
ATOM     24  N   UNL     1      33.078  -9.224 -22.772  0.00  0.00    -0.299 N 
ATOM     25  C   UNL     1      33.677 -10.354 -23.308  0.00  0.00    +0.243 C 
ATOM     26  H   UNL     1      32.117  -9.261 -22.558  0.00  0.00    +0.150 HD
BRANCH  24  27
ATOM     27  C   UNL     1      33.793  -7.994 -22.513  0.00  0.00    +0.119 C 
BRANCH  27  29
ATOM     28  F   UNL     1      34.250  -5.420 -23.585  0.00  0.00    -0.204 F 
ATOM     29  C   UNL     1      32.860  -6.839 -22.285  0.00  0.00    +0.025 C 
ATOM     30  C   UNL     1      33.148  -5.599 -22.844  0.00  0.00    +0.138 C 
ATOM     31  C   UNL     1      31.717  -7.024 -21.517  0.00  0.00    -0.000 C 
ATOM     32  C   UNL     1      32.279  -4.529 -22.632  0.00  0.00    +0.029 C 
ATOM     33  C   UNL     1      30.849  -5.953 -21.305  0.00  0.00    -0.000 C 
ATOM     34  C   UNL     1      31.130  -4.706 -21.862  0.00  0.00    +0.002 C 
ENDBRANCH  27  29
ENDBRANCH  24  27
ENDBRANCH  22  25
ENDBRANCH   3  22
TORSDOF 7
ENDMDL
MODEL 5
REMARK VINA RESULT:     -11.1      2.764      4.496
REMARK  Name = 656913
REMARK  7 active torsions:
REMARK  status: ('A' for Active; 'I' for Inactive)
REMARK    1  A    between atoms: N_3  and  C_22
REMARK    2  A    between atoms: N_4  and  C_11
REMARK    3  A    between atoms: C_11  and  C_14
REMARK    4  A    between atoms: C_14  and  C_17
REMARK    5  A    between atoms: C_22  and  C_25
REMARK    6  A    between atoms: N_24  and  C_27
REMARK    7  A    between atoms: C_27  and  C_29
REMARK                            x       y       z     vdW  Elec       q    Type
REMARK                         _______ _______ _______ _____ _____    ______ ____
ROOT
ATOM      1 CL   UNL     1      34.329 -16.631 -24.545  0.00  0.00    -0.064 Cl
ATOM      2  O   UNL     1      36.070 -17.401 -19.894  0.00  0.00    -0.266 OA
ATOM      3  N   UNL     1      35.264 -17.005 -22.060  0.00  0.00    -0.233 N 
ATOM      4  N   UNL     1      35.607 -20.052 -19.996  0.00  0.00    -0.310 N 
ATOM      5  N   UNL     1      34.779 -19.775 -22.171  0.00  0.00    -0.223 NA
ATOM      6  C   UNL     1      35.295 -19.276 -21.084  0.00  0.00    +0.183 C 
ATOM      7  C   UNL     1      35.585 -17.787 -20.951  0.00  0.00    +0.285 C 
ATOM      8  C   UNL     1      34.721 -17.605 -23.179  0.00  0.00    +0.133 C 
ATOM      9  C   UNL     1      34.502 -18.923 -23.201  0.00  0.00    +0.127 C 
ATOM     10  H   UNL     1      35.995 -19.622 -19.200  0.00  0.00    +0.149 HD
ENDROOT
BRANCH   4  11
ATOM     11  C   UNL     1      35.389 -21.464 -19.980  0.00  0.00    +0.162 C 
BRANCH  11  14
ATOM     12  F   UNL     1      33.735 -22.939 -19.204  0.00  0.00    -0.196 F 
ATOM     13  F   UNL     1      33.531 -20.842 -18.686  0.00  0.00    -0.196 F 
ATOM     14  C   UNL     1      34.454 -21.839 -18.830  0.00  0.00    +0.317 C 
BRANCH  14  17
ATOM     15  O   UNL     1      33.361 -23.064 -16.617  0.00  0.00    -0.163 OA
ATOM     16  N   UNL     1      34.579 -22.697 -16.523  0.00  0.00    -0.128 N 
ATOM     17  C   UNL     1      35.232 -22.077 -17.559  0.00  0.00    +0.142 C 
ATOM     18  C   UNL     1      36.552 -21.676 -17.471  0.00  0.00    +0.022 C 
ATOM     19  C   UNL     1      35.276 -22.922 -15.352  0.00  0.00    +0.121 C 
ATOM     20  C   UNL     1      37.244 -21.909 -16.287  0.00  0.00    +0.003 C 
ATOM     21  C   UNL     1      36.605 -22.535 -15.222  0.00  0.00    +0.022 C 
ENDBRANCH  14  17
ENDBRANCH  11  14
ENDBRANCH   4  11
BRANCH   3  22
ATOM     22  C   UNL     1      35.511 -15.568 -22.007  0.00  0.00    +0.184 C 
BRANCH  22  25
ATOM     23  O   UNL     1      34.164 -15.104 -20.055  0.00  0.00    -0.273 OA
ATOM     24  N   UNL     1      33.652 -14.052 -22.063  0.00  0.00    -0.299 N 
ATOM     25  C   UNL     1      34.394 -14.889 -21.243  0.00  0.00    +0.243 C 
ATOM     26  H   UNL     1      33.928 -13.953 -23.003  0.00  0.00    +0.150 HD
BRANCH  24  27
ATOM     27  C   UNL     1      32.495 -13.315 -21.606  0.00  0.00    +0.119 C 
BRANCH  27  29
ATOM     28  F   UNL     1      30.991 -11.307 -20.303  0.00  0.00    -0.204 F 
ATOM     29  C   UNL     1      32.562 -11.866 -21.994  0.00  0.00    +0.025 C 
ATOM     30  C   UNL     1      31.795 -10.931 -21.309  0.00  0.00    +0.138 C 
ATOM     31  C   UNL     1      33.393 -11.474 -23.037  0.00  0.00    -0.000 C 
ATOM     32  C   UNL     1      31.860  -9.586 -21.671  0.00  0.00    +0.029 C 
ATOM     33  C   UNL     1      33.459 -10.129 -23.398  0.00  0.00    -0.000 C 
ATOM     34  C   UNL     1      32.692  -9.185 -22.716  0.00  0.00    +0.002 C 
ENDBRANCH  27  29
ENDBRANCH  24  27
ENDBRANCH  22  25
ENDBRANCH   3  22
TORSDOF 7
ENDMDL
MODEL 6
REMARK VINA RESULT:     -11.0      8.028     13.056
REMARK  Name = 656913
REMARK  7 active torsions:
REMARK  status: ('A' for Active; 'I' for Inactive)
REMARK    1  A    between atoms: N_3  and  C_22
REMARK    2  A    between atoms: N_4  and  C_11
REMARK    3  A    between atoms: C_11  and  C_14
REMARK    4  A    between atoms: C_14  and  C_17
REMARK    5  A    between atoms: C_22  and  C_25
REMARK    6  A    between atoms: N_24  and  C_27
REMARK    7  A    between atoms: C_27  and  C_29
REMARK                            x       y       z     vdW  Elec       q    Type
REMARK                         _______ _______ _______ _____ _____    ______ ____
ROOT
ATOM      1 CL   UNL     1      37.809 -24.136 -12.527  0.00  0.00    -0.064 Cl
ATOM      2  O   UNL     1      33.988 -24.040 -15.790  0.00  0.00    -0.266 OA
ATOM      3  N   UNL     1      35.752 -24.109 -14.246  0.00  0.00    -0.233 N 
ATOM      4  N   UNL     1      35.213 -22.266 -17.405  0.00  0.00    -0.310 N 
ATOM      5  N   UNL     1      37.035 -22.255 -15.930  0.00  0.00    -0.223 NA
ATOM      6  C   UNL     1      35.852 -22.685 -16.265  0.00  0.00    +0.183 C 
ATOM      7  C   UNL     1      35.096 -23.688 -15.403  0.00  0.00    +0.285 C 
ATOM      8  C   UNL     1      37.007 -23.610 -13.957  0.00  0.00    +0.133 C 
ATOM      9  C   UNL     1      37.590 -22.730 -14.777  0.00  0.00    +0.127 C 
ATOM     10  H   UNL     1      34.319 -22.625 -17.608  0.00  0.00    +0.149 HD
ENDROOT
BRANCH   4  11
ATOM     11  C   UNL     1      35.802 -21.328 -18.307  0.00  0.00    +0.162 C 
BRANCH  11  14
ATOM     12  F   UNL     1      33.642 -20.657 -18.937  0.00  0.00    -0.196 F 
ATOM     13  F   UNL     1      34.594 -22.209 -20.117  0.00  0.00    -0.196 F 
ATOM     14  C   UNL     1      34.845 -21.037 -19.462  0.00  0.00    +0.317 C 
BRANCH  14  17
ATOM     15  O   UNL     1      33.369 -19.832 -21.453  0.00  0.00    -0.163 OA
ATOM     16  N   UNL     1      34.583 -19.459 -21.337  0.00  0.00    -0.128 N 
ATOM     17  C   UNL     1      35.416 -19.987 -20.383  0.00  0.00    +0.142 C 
ATOM     18  C   UNL     1      36.733 -19.590 -20.247  0.00  0.00    +0.022 C 
ATOM     19  C   UNL     1      35.090 -18.496 -22.189  0.00  0.00    +0.121 C 
ATOM     20  C   UNL     1      37.233 -18.620 -21.109  0.00  0.00    +0.003 C 
ATOM     21  C   UNL     1      36.409 -18.069 -22.086  0.00  0.00    +0.022 C 
ENDBRANCH  14  17
ENDBRANCH  11  14
ENDBRANCH   4  11
BRANCH   3  22
ATOM     22  C   UNL     1      35.090 -25.068 -13.368  0.00  0.00    +0.184 C 
BRANCH  22  25
ATOM     23  O   UNL     1      33.843 -23.506 -12.010  0.00  0.00    -0.273 OA
ATOM     24  N   UNL     1      32.695 -25.112 -13.236  0.00  0.00    -0.299 N 
ATOM     25  C   UNL     1      33.832 -24.449 -12.797  0.00  0.00    +0.243 C 
ATOM     26  H   UNL     1      32.803 -25.857 -13.870  0.00  0.00    +0.150 HD
BRANCH  24  27
ATOM     27  C   UNL     1      31.358 -24.762 -12.809  0.00  0.00    +0.119 C 
BRANCH  27  29
ATOM     28  F   UNL     1      31.684 -22.179 -13.908  0.00  0.00    -0.204 F 
ATOM     29  C   UNL     1      30.522 -24.249 -13.946  0.00  0.00    +0.025 C 
ATOM     30  C   UNL     1      30.737 -22.966 -14.438  0.00  0.00    +0.138 C 
ATOM     31  C   UNL     1      29.539 -25.064 -14.495  0.00  0.00    -0.000 C 
ATOM     32  C   UNL     1      29.959 -22.493 -15.493  0.00  0.00    +0.029 C 
ATOM     33  C   UNL     1      28.761 -24.590 -15.551  0.00  0.00    -0.000 C 
ATOM     34  C   UNL     1      28.971 -23.305 -16.050  0.00  0.00    +0.002 C 
ENDBRANCH  27  29
ENDBRANCH  24  27
ENDBRANCH  22  25
ENDBRANCH   3  22
TORSDOF 7
ENDMDL
MODEL 7
REMARK VINA RESULT:     -11.0      3.348      4.607
REMARK  Name = 656913
REMARK  7 active torsions:
REMARK  status: ('A' for Active; 'I' for Inactive)
REMARK    1  A    between atoms: N_3  and  C_22
REMARK    2  A    between atoms: N_4  and  C_11
REMARK    3  A    between atoms: C_11  and  C_14
REMARK    4  A    between atoms: C_14  and  C_17
REMARK    5  A    between atoms: C_22  and  C_25
REMARK    6  A    between atoms: N_24  and  C_27
REMARK    7  A    between atoms: C_27  and  C_29
REMARK                            x       y       z     vdW  Elec       q    Type
REMARK                         _______ _______ _______ _____ _____    ______ ____
ROOT
ATOM      1 CL   UNL     1      30.817 -10.384 -19.329  0.00  0.00    -0.064 Cl
ATOM      2  O   UNL     1      33.175 -10.650 -23.759  0.00  0.00    -0.266 OA
ATOM      3  N   UNL     1      32.063 -10.491 -21.701  0.00  0.00    -0.233 N 
ATOM      4  N   UNL     1      34.184 -13.094 -23.247  0.00  0.00    -0.310 N 
ATOM      5  N   UNL     1      33.115 -13.045 -21.161  0.00  0.00    -0.223 NA
ATOM      6  C   UNL     1      33.396 -12.484 -22.303  0.00  0.00    +0.183 C 
ATOM      7  C   UNL     1      32.863 -11.105 -22.665  0.00  0.00    +0.285 C 
ATOM      8  C   UNL     1      31.807 -11.148 -20.513  0.00  0.00    +0.133 C 
ATOM      9  C   UNL     1      32.321 -12.361 -20.287  0.00  0.00    +0.127 C 
ATOM     10  H   UNL     1      34.364 -12.623 -24.093  0.00  0.00    +0.149 HD
ENDROOT
BRANCH   4  11
ATOM     11  C   UNL     1      34.753 -14.389 -23.043  0.00  0.00    +0.162 C 
BRANCH  11  14
ATOM     12  F   UNL     1      34.778 -15.072 -25.289  0.00  0.00    -0.196 F 
ATOM     13  F   UNL     1      32.877 -15.129 -24.245  0.00  0.00    -0.196 F 
ATOM     14  C   UNL     1      34.211 -15.370 -24.082  0.00  0.00    +0.317 C 
BRANCH  14  17
ATOM     15  O   UNL     1      33.069 -17.536 -25.346  0.00  0.00    -0.163 OA
ATOM     16  N   UNL     1      33.854 -17.791 -24.374  0.00  0.00    -0.128 N 
ATOM     17  C   UNL     1      34.482 -16.796 -23.668  0.00  0.00    +0.142 C 
ATOM     18  C   UNL     1      35.336 -17.060 -22.613  0.00  0.00    +0.022 C 
ATOM     19  C   UNL     1      34.089 -19.102 -24.007  0.00  0.00    +0.121 C 
ATOM     20  C   UNL     1      35.566 -18.383 -22.253  0.00  0.00    +0.003 C 
ATOM     21  C   UNL     1      34.941 -19.411 -22.952  0.00  0.00    +0.022 C 
ENDBRANCH  14  17
ENDBRANCH  11  14
ENDBRANCH   4  11
BRANCH   3  22
ATOM     22  C   UNL     1      31.516  -9.166 -21.974  0.00  0.00    +0.184 C 
BRANCH  22  25
ATOM     23  O   UNL     1      32.831  -7.750 -20.523  0.00  0.00    -0.273 OA
ATOM     24  N   UNL     1      33.117  -7.593 -22.824  0.00  0.00    -0.299 N 
ATOM     25  C   UNL     1      32.560  -8.114 -21.665  0.00  0.00    +0.243 C 
ATOM     26  H   UNL     1      32.825  -7.962 -23.689  0.00  0.00    +0.150 HD
BRANCH  24  27
ATOM     27  C   UNL     1      34.106  -6.538 -22.825  0.00  0.00    +0.119 C 
BRANCH  27  29
ATOM     28  F   UNL     1      32.090  -4.704 -22.075  0.00  0.00    -0.204 F 
ATOM     29  C   UNL     1      33.693  -5.382 -23.690  0.00  0.00    +0.025 C 
ATOM     30  C   UNL     1      32.693  -4.518 -23.258  0.00  0.00    +0.138 C 
ATOM     31  C   UNL     1      34.316  -5.189 -24.917  0.00  0.00    -0.000 C 
ATOM     32  C   UNL     1      32.313  -3.446 -24.063  0.00  0.00    +0.029 C 
ATOM     33  C   UNL     1      33.935  -4.117 -25.722  0.00  0.00    -0.000 C 
ATOM     34  C   UNL     1      32.934  -3.245 -25.296  0.00  0.00    +0.002 C 
ENDBRANCH  27  29
ENDBRANCH  24  27
ENDBRANCH  22  25
ENDBRANCH   3  22
TORSDOF 7
ENDMDL
MODEL 8
REMARK VINA RESULT:     -10.9      1.833      2.210
REMARK  Name = 656913
REMARK  7 active torsions:
REMARK  status: ('A' for Active; 'I' for Inactive)
REMARK    1  A    between atoms: N_3  and  C_22
REMARK    2  A    between atoms: N_4  and  C_11
REMARK    3  A    between atoms: C_11  and  C_14
REMARK    4  A    between atoms: C_14  and  C_17
REMARK    5  A    between atoms: C_22  and  C_25
REMARK    6  A    between atoms: N_24  and  C_27
REMARK    7  A    between atoms: C_27  and  C_29
REMARK                            x       y       z     vdW  Elec       q    Type
REMARK                         _______ _______ _______ _____ _____    ______ ____
ROOT
ATOM      1 CL   UNL     1      33.056 -10.861 -23.579  0.00  0.00    -0.064 Cl
ATOM      2  O   UNL     1      32.434 -14.253 -19.923  0.00  0.00    -0.266 OA
ATOM      3  N   UNL     1      32.693 -12.653 -21.618  0.00  0.00    -0.233 N 
ATOM      4  N   UNL     1      34.599 -15.673 -20.665  0.00  0.00    -0.310 N 
ATOM      5  N   UNL     1      34.956 -14.133 -22.396  0.00  0.00    -0.223 NA
ATOM      6  C   UNL     1      34.264 -14.546 -21.372  0.00  0.00    +0.183 C 
ATOM      7  C   UNL     1      33.028 -13.797 -20.894  0.00  0.00    +0.285 C 
ATOM      8  C   UNL     1      33.475 -12.276 -22.691  0.00  0.00    +0.133 C 
ATOM      9  C   UNL     1      34.545 -13.000 -23.036  0.00  0.00    +0.127 C 
ATOM     10  H   UNL     1      34.040 -15.938 -19.899  0.00  0.00    +0.149 HD
ENDROOT
BRANCH   4  11
ATOM     11  C   UNL     1      35.734 -16.474 -21.001  0.00  0.00    +0.162 C 
BRANCH  11  14
ATOM     12  F   UNL     1      36.157 -17.886 -22.829  0.00  0.00    -0.196 F 
ATOM     13  F   UNL     1      34.086 -17.438 -22.367  0.00  0.00    -0.196 F 
ATOM     14  C   UNL     1      35.291 -17.709 -21.787  0.00  0.00    +0.317 C 
BRANCH  14  17
ATOM     15  O   UNL     1      37.530 -18.844 -20.651  0.00  0.00    -0.163 OA
ATOM     16  N   UNL     1      36.412 -19.397 -20.384  0.00  0.00    -0.128 N 
ATOM     17  C   UNL     1      35.228 -18.922 -20.891  0.00  0.00    +0.142 C 
ATOM     18  C   UNL     1      34.010 -19.510 -20.608  0.00  0.00    +0.022 C 
ATOM     19  C   UNL     1      36.373 -20.507 -19.562  0.00  0.00    +0.121 C 
ATOM     20  C   UNL     1      33.983 -20.627 -19.779  0.00  0.00    +0.003 C 
ATOM     21  C   UNL     1      35.168 -21.129 -19.252  0.00  0.00    +0.022 C 
ENDBRANCH  14  17
ENDBRANCH  11  14
ENDBRANCH   4  11
BRANCH   3  22
ATOM     22  C   UNL     1      31.519 -11.882 -21.220  0.00  0.00    +0.184 C 
BRANCH  22  25
ATOM     23  O   UNL     1      32.117 -11.019 -19.043  0.00  0.00    -0.273 OA
ATOM     24  N   UNL     1      32.012  -9.563 -20.851  0.00  0.00    -0.299 N 
ATOM     25  C   UNL     1      31.930 -10.805 -20.239  0.00  0.00    +0.243 C 
ATOM     26  H   UNL     1      31.842  -9.507 -21.820  0.00  0.00    +0.150 HD
BRANCH  24  27
ATOM     27  C   UNL     1      32.337  -8.347 -20.140  0.00  0.00    +0.119 C 
BRANCH  27  29
ATOM     28  F   UNL     1      34.398  -7.900 -22.021  0.00  0.00    -0.204 F 
ATOM     29  C   UNL     1      32.364  -7.153 -21.050  0.00  0.00    +0.025 C 
ATOM     30  C   UNL     1      33.410  -6.997 -21.953  0.00  0.00    +0.138 C 
ATOM     31  C   UNL     1      31.341  -6.215 -20.980  0.00  0.00    -0.000 C 
ATOM     32  C   UNL     1      33.432  -5.888 -22.797  0.00  0.00    +0.029 C 
ATOM     33  C   UNL     1      31.363  -5.106 -21.825  0.00  0.00    -0.000 C 
ATOM     34  C   UNL     1      32.408  -4.942 -22.733  0.00  0.00    +0.002 C 
ENDBRANCH  27  29
ENDBRANCH  24  27
ENDBRANCH  22  25
ENDBRANCH   3  22
TORSDOF 7
ENDMDL
MODEL 9
REMARK VINA RESULT:     -10.8      2.946     11.301
REMARK  Name = 656913
REMARK  7 active torsions:
REMARK  status: ('A' for Active; 'I' for Inactive)
REMARK    1  A    between atoms: N_3  and  C_22
REMARK    2  A    between atoms: N_4  and  C_11
REMARK    3  A    between atoms: C_11  and  C_14
REMARK    4  A    between atoms: C_14  and  C_17
REMARK    5  A    between atoms: C_22  and  C_25
REMARK    6  A    between atoms: N_24  and  C_27
REMARK    7  A    between atoms: C_27  and  C_29
REMARK                            x       y       z     vdW  Elec       q    Type
REMARK                         _______ _______ _______ _____ _____    ______ ____
ROOT
ATOM      1 CL   UNL     1      31.926 -13.782 -19.893  0.00  0.00    -0.064 Cl
ATOM      2  O   UNL     1      32.927 -10.561 -23.618  0.00  0.00    -0.266 OA
ATOM      3  N   UNL     1      32.463 -12.093 -21.905  0.00  0.00    -0.233 N 
ATOM      4  N   UNL     1      32.633  -8.403 -22.035  0.00  0.00    -0.310 N 
ATOM      5  N   UNL     1      32.155  -9.840 -20.246  0.00  0.00    -0.223 NA
ATOM      6  C   UNL     1      32.460  -9.654 -21.499  0.00  0.00    +0.183 C 
ATOM      7  C   UNL     1      32.642 -10.824 -22.456  0.00  0.00    +0.285 C 
ATOM      8  C   UNL     1      32.143 -12.212 -20.567  0.00  0.00    +0.133 C 
ATOM      9  C   UNL     1      32.004 -11.123 -19.805  0.00  0.00    +0.127 C 
ATOM     10  H   UNL     1      32.863  -8.321 -22.989  0.00  0.00    +0.149 HD
ENDROOT
BRANCH   4  11
ATOM     11  C   UNL     1      32.494  -7.214 -21.255  0.00  0.00    +0.162 C 
BRANCH  11  14
ATOM     12  F   UNL     1      31.050  -5.378 -21.011  0.00  0.00    -0.196 F 
ATOM     13  F   UNL     1      30.465  -6.936 -22.403  0.00  0.00    -0.196 F 
ATOM     14  C   UNL     1      31.547  -6.236 -21.951  0.00  0.00    +0.317 C 
BRANCH  14  17
ATOM     15  O   UNL     1      30.351  -4.233 -23.417  0.00  0.00    -0.163 OA
ATOM     16  N   UNL     1      31.554  -4.526 -23.725  0.00  0.00    -0.128 N 
ATOM     17  C   UNL     1      32.254  -5.505 -23.066  0.00  0.00    +0.142 C 
ATOM     18  C   UNL     1      33.558  -5.830 -23.389  0.00  0.00    +0.022 C 
ATOM     19  C   UNL     1      32.185  -3.847 -24.749  0.00  0.00    +0.121 C 
ATOM     20  C   UNL     1      34.184  -5.140 -24.421  0.00  0.00    +0.003 C 
ATOM     21  C   UNL     1      33.497  -4.143 -25.106  0.00  0.00    +0.022 C 
ENDBRANCH  14  17
ENDBRANCH  11  14
ENDBRANCH   4  11
BRANCH   3  22
ATOM     22  C   UNL     1      32.619 -13.265 -22.760  0.00  0.00    +0.184 C 
BRANCH  22  25
ATOM     23  O   UNL     1      34.860 -13.335 -21.856  0.00  0.00    -0.273 OA
ATOM     24  N   UNL     1      34.169 -15.013 -23.307  0.00  0.00    -0.299 N 
ATOM     25  C   UNL     1      33.999 -13.857 -22.561  0.00  0.00    +0.243 C 
ATOM     26  H   UNL     1      33.408 -15.343 -23.838  0.00  0.00    +0.150 HD
BRANCH  24  27
ATOM     27  C   UNL     1      35.407 -15.759 -23.344  0.00  0.00    +0.119 C 
BRANCH  27  29
ATOM     28  F   UNL     1      34.238 -17.993 -24.621  0.00  0.00    -0.204 F 
ATOM     29  C   UNL     1      35.275 -17.100 -22.681  0.00  0.00    +0.025 C 
ATOM     30  C   UNL     1      34.689 -18.156 -23.369  0.00  0.00    +0.138 C 
ATOM     31  C   UNL     1      35.742 -17.270 -21.383  0.00  0.00    -0.000 C 
ATOM     32  C   UNL     1      34.569 -19.400 -22.751  0.00  0.00    +0.029 C 
ATOM     33  C   UNL     1      35.621 -18.515 -20.765  0.00  0.00    -0.000 C 
ATOM     34  C   UNL     1      35.035 -19.579 -21.448  0.00  0.00    +0.002 C 
ENDBRANCH  27  29
ENDBRANCH  24  27
ENDBRANCH  22  25
ENDBRANCH   3  22
TORSDOF 7
ENDMDL
