MODEL 1
REMARK VINA RESULT:     -12.2      0.000      0.000
REMARK  Name = 15602701
REMARK  5 active torsions:
REMARK  status: ('A' for Active; 'I' for Inactive)
REMARK    1  A    between atoms: N_5  and  C_12
REMARK    2  A    between atoms: C_6  and  C_22
REMARK    3  A    between atoms: C_13  and  C_21
REMARK    4  A    between atoms: C_22  and  C_23
REMARK    5  A    between atoms: C_23  and  N_24
REMARK                            x       y       z     vdW  Elec       q    Type
REMARK                         _______ _______ _______ _____ _____    ______ ____
ROOT
ATOM      1  S   UNL     1      36.593 -20.227 -19.517  0.00  0.00    -0.056 S 
ATOM      2  O   UNL     1      35.307 -23.163 -16.158  0.00  0.00    -0.252 OA
ATOM      3  N   UNL     1      34.632 -21.627 -18.580  0.00  0.00    -0.223 NA
ATOM      4  N   UNL     1      36.723 -21.749 -17.387  0.00  0.00    -0.248 N 
ATOM      5  N   UNL     1      37.528 -22.837 -15.510  0.00  0.00    -0.268 N 
ATOM      6  C   UNL     1      35.096 -20.181 -20.316  0.00  0.00    +0.031 C 
ATOM      7  C   UNL     1      34.174 -20.965 -19.702  0.00  0.00    +0.103 C 
ATOM      8  C   UNL     1      35.894 -21.313 -18.387  0.00  0.00    +0.166 C 
ATOM      9  C   UNL     1      36.403 -22.641 -16.329  0.00  0.00    +0.310 C 
ATOM     10  H   UNL     1      37.646 -21.403 -17.402  0.00  0.00    +0.158 HD
ATOM     11  H   UNL     1      38.342 -22.350 -15.772  0.00  0.00    +0.156 HD
ENDROOT
BRANCH   5  12
ATOM     12  C   UNL     1      37.634 -23.648 -14.356  0.00  0.00    +0.052 C 
ATOM     13  C   UNL     1      36.914 -24.194 -12.133  0.00  0.00    +0.073 C 
ATOM     14  C   UNL     1      36.809 -23.395 -13.271  0.00  0.00    +0.019 C 
ATOM     15  C   UNL     1      38.558 -24.679 -14.334  0.00  0.00    +0.015 C 
ATOM     16  C   UNL     1      37.840 -25.237 -12.095  0.00  0.00    +0.004 C 
ATOM     17  C   UNL     1      38.663 -25.479 -13.195  0.00  0.00    +0.001 C 
BRANCH  13  21
ATOM     18  F   UNL     1      35.619 -25.074 -10.323  0.00  0.00    -0.166 F 
ATOM     19  F   UNL     1      36.629 -23.185  -9.984  0.00  0.00    -0.166 F 
ATOM     20  F   UNL     1      34.893 -23.267 -11.290  0.00  0.00    -0.166 F 
ATOM     21  C   UNL     1      36.034 -23.937 -10.956  0.00  0.00    +0.419 C 
ENDBRANCH  13  21
ENDBRANCH   5  12
BRANCH   6  22
ATOM     22  C   UNL     1      34.936 -19.327 -21.552  0.00  0.00    +0.056 C 
BRANCH  22  23
ATOM     23  C   UNL     1      36.037 -18.277 -21.688  0.00  0.00    +0.093 C 
BRANCH  23  24
ATOM     24  N   UNL     1      35.492 -16.952 -21.664  0.00  0.00    -0.320 N 
ATOM     25  N   UNL     1      34.283 -14.121 -21.756  0.00  0.00    -0.220 N 
ATOM     26  N   UNL     1      33.694 -12.979 -22.160  0.00  0.00    -0.178 NA
ATOM     27  N   UNL     1      34.859 -16.999 -23.969  0.00  0.00    -0.232 NA
ATOM     28  N   UNL     1      33.765 -15.114 -25.062  0.00  0.00    -0.245 NA
ATOM     29  C   UNL     1      34.397 -15.059 -22.739  0.00  0.00    +0.185 C 
ATOM     30  C   UNL     1      34.916 -16.340 -22.790  0.00  0.00    +0.128 C 
ATOM     31  C   UNL     1      33.838 -14.482 -23.867  0.00  0.00    +0.103 C 
ATOM     32  C   UNL     1      33.424 -13.205 -23.451  0.00  0.00    +0.134 C 
ATOM     33  C   UNL     1      34.716 -14.230 -20.383  0.00  0.00    +0.135 C 
ATOM     34  C   UNL     1      34.295 -16.355 -25.018  0.00  0.00    +0.251 C 
ATOM     35  H   UNL     1      35.521 -16.449 -20.819  0.00  0.00    +0.148 HD
ENDBRANCH  23  24
ENDBRANCH  22  23
ENDBRANCH   6  22
TORSDOF 5
ENDMDL
MODEL 2
REMARK VINA RESULT:     -12.2      0.630      1.908
REMARK  Name = 15602701
REMARK  5 active torsions:
REMARK  status: ('A' for Active; 'I' for Inactive)
REMARK    1  A    between atoms: N_5  and  C_12
REMARK    2  A    between atoms: C_6  and  C_22
REMARK    3  A    between atoms: C_13  and  C_21
REMARK    4  A    between atoms: C_22  and  C_23
REMARK    5  A    between atoms: C_23  and  N_24
REMARK                            x       y       z     vdW  Elec       q    Type
REMARK                         _______ _______ _______ _____ _____    ______ ____
ROOT
ATOM      1  S   UNL     1      36.551 -20.488 -19.541  0.00  0.00    -0.056 S 
ATOM      2  O   UNL     1      35.263 -23.186 -15.988  0.00  0.00    -0.252 OA
ATOM      3  N   UNL     1      34.561 -21.724 -18.448  0.00  0.00    -0.223 NA
ATOM      4  N   UNL     1      36.697 -21.917 -17.348  0.00  0.00    -0.248 N 
ATOM      5  N   UNL     1      37.528 -22.966 -15.461  0.00  0.00    -0.268 N 
ATOM      6  C   UNL     1      35.022 -20.389 -20.271  0.00  0.00    +0.031 C 
ATOM      7  C   UNL     1      34.087 -21.087 -19.578  0.00  0.00    +0.103 C 
ATOM      8  C   UNL     1      35.846 -21.478 -18.328  0.00  0.00    +0.166 C 
ATOM      9  C   UNL     1      36.377 -22.740 -16.235  0.00  0.00    +0.310 C 
ATOM     10  H   UNL     1      37.636 -21.629 -17.423  0.00  0.00    +0.158 HD
ATOM     11  H   UNL     1      38.356 -22.541 -15.783  0.00  0.00    +0.156 HD
ENDROOT
BRANCH   5  12
ATOM     12  C   UNL     1      37.644 -23.728 -14.275  0.00  0.00    +0.052 C 
ATOM     13  C   UNL     1      36.923 -24.200 -12.035  0.00  0.00    +0.073 C 
ATOM     14  C   UNL     1      36.810 -23.447 -13.204  0.00  0.00    +0.019 C 
ATOM     15  C   UNL     1      38.586 -24.741 -14.208  0.00  0.00    +0.015 C 
ATOM     16  C   UNL     1      37.868 -25.223 -11.952  0.00  0.00    +0.004 C 
ATOM     17  C   UNL     1      38.700 -25.493 -13.039  0.00  0.00    +0.001 C 
BRANCH  13  21
ATOM     18  F   UNL     1      36.626 -23.152  -9.904  0.00  0.00    -0.166 F 
ATOM     19  F   UNL     1      34.897 -23.235 -11.210  0.00  0.00    -0.166 F 
ATOM     20  F   UNL     1      35.611 -25.045 -10.241  0.00  0.00    -0.166 F 
ATOM     21  C   UNL     1      36.034 -23.912 -10.873  0.00  0.00    +0.419 C 
ENDBRANCH  13  21
ENDBRANCH   5  12
BRANCH   6  22
ATOM     22  C   UNL     1      34.851 -19.584 -21.538  0.00  0.00    +0.056 C 
BRANCH  22  23
ATOM     23  C   UNL     1      35.869 -18.451 -21.657  0.00  0.00    +0.093 C 
BRANCH  23  24
ATOM     24  N   UNL     1      35.352 -17.375 -22.450  0.00  0.00    -0.320 N 
ATOM     25  N   UNL     1      34.230 -14.980 -24.029  0.00  0.00    -0.220 N 
ATOM     26  N   UNL     1      33.728 -13.778 -24.371  0.00  0.00    -0.178 NA
ATOM     27  N   UNL     1      35.073 -15.917 -20.576  0.00  0.00    -0.232 NA
ATOM     28  N   UNL     1      34.191 -13.655 -20.800  0.00  0.00    -0.245 NA
ATOM     29  C   UNL     1      34.471 -15.116 -22.693  0.00  0.00    +0.185 C 
ATOM     30  C   UNL     1      34.967 -16.138 -21.905  0.00  0.00    +0.128 C 
ATOM     31  C   UNL     1      34.098 -13.908 -22.126  0.00  0.00    +0.103 C 
ATOM     32  C   UNL     1      33.650 -13.127 -23.205  0.00  0.00    +0.134 C 
ATOM     33  C   UNL     1      34.450 -15.961 -25.065  0.00  0.00    +0.135 C 
ATOM     34  C   UNL     1      34.684 -14.706 -20.111  0.00  0.00    +0.251 C 
ATOM     35  H   UNL     1      35.263 -17.508 -23.421  0.00  0.00    +0.148 HD
ENDBRANCH  23  24
ENDBRANCH  22  23
ENDBRANCH   6  22
TORSDOF 5
ENDMDL
MODEL 3
REMARK VINA RESULT:     -12.0      5.215     11.788
REMARK  Name = 15602701
REMARK  5 active torsions:
REMARK  status: ('A' for Active; 'I' for Inactive)
REMARK    1  A    between atoms: N_5  and  C_12
REMARK    2  A    between atoms: C_6  and  C_22
REMARK    3  A    between atoms: C_13  and  C_21
REMARK    4  A    between atoms: C_22  and  C_23
REMARK    5  A    between atoms: C_23  and  N_24
REMARK                            x       y       z     vdW  Elec       q    Type
REMARK                         _______ _______ _______ _____ _____    ______ ____
ROOT
ATOM      1  S   UNL     1      34.152 -23.089 -16.630  0.00  0.00    -0.056 S 
ATOM      2  O   UNL     1      32.430 -20.319 -19.935  0.00  0.00    -0.252 OA
ATOM      3  N   UNL     1      31.987 -22.068 -17.606  0.00  0.00    -0.223 NA
ATOM      4  N   UNL     1      34.054 -21.476 -18.694  0.00  0.00    -0.248 N 
ATOM      5  N   UNL     1      34.695 -20.165 -20.489  0.00  0.00    -0.268 N 
ATOM      6  C   UNL     1      32.665 -23.469 -15.904  0.00  0.00    +0.031 C 
ATOM      7  C   UNL     1      31.629 -22.858 -16.531  0.00  0.00    +0.103 C 
ATOM      8  C   UNL     1      33.292 -22.114 -17.751  0.00  0.00    +0.166 C 
ATOM      9  C   UNL     1      33.602 -20.618 -19.732  0.00  0.00    +0.310 C 
ATOM     10  H   UNL     1      35.026 -21.631 -18.648  0.00  0.00    +0.158 HD
ATOM     11  H   UNL     1      35.580 -20.490 -20.207  0.00  0.00    +0.156 HD
ENDROOT
BRANCH   5  12
ATOM     12  C   UNL     1      34.680 -19.297 -21.607  0.00  0.00    +0.052 C 
ATOM     13  C   UNL     1      34.773 -17.076 -22.509  0.00  0.00    +0.073 C 
ATOM     14  C   UNL     1      34.786 -17.930 -21.406  0.00  0.00    +0.019 C 
ATOM     15  C   UNL     1      34.562 -19.833 -22.879  0.00  0.00    +0.015 C 
ATOM     16  C   UNL     1      34.654 -17.599 -23.796  0.00  0.00    +0.004 C 
ATOM     17  C   UNL     1      34.548 -18.978 -23.981  0.00  0.00    +0.001 C 
BRANCH  13  21
ATOM     18  F   UNL     1      35.752 -14.998 -23.180  0.00  0.00    -0.166 F 
ATOM     19  F   UNL     1      33.704 -14.936 -22.467  0.00  0.00    -0.166 F 
ATOM     20  F   UNL     1      35.331 -15.271 -21.064  0.00  0.00    -0.166 F 
ATOM     21  C   UNL     1      34.887 -15.601 -22.312  0.00  0.00    +0.419 C 
ENDBRANCH  13  21
ENDBRANCH   5  12
BRANCH   6  22
ATOM     22  C   UNL     1      32.633 -24.393 -14.709  0.00  0.00    +0.056 C 
BRANCH  22  23
ATOM     23  C   UNL     1      33.660 -24.013 -13.644  0.00  0.00    +0.093 C 
BRANCH  23  24
ATOM     24  N   UNL     1      34.890 -24.721 -13.838  0.00  0.00    -0.320 N 
ATOM     25  N   UNL     1      37.601 -26.148 -14.160  0.00  0.00    -0.220 N 
ATOM     26  N   UNL     1      38.896 -26.501 -14.058  0.00  0.00    -0.178 NA
ATOM     27  N   UNL     1      36.125 -23.302 -12.363  0.00  0.00    -0.232 NA
ATOM     28  N   UNL     1      38.501 -23.627 -11.922  0.00  0.00    -0.245 NA
ATOM     29  C   UNL     1      37.264 -25.062 -13.408  0.00  0.00    +0.185 C 
ATOM     30  C   UNL     1      36.090 -24.361 -13.202  0.00  0.00    +0.128 C 
ATOM     31  C   UNL     1      38.432 -24.681 -12.767  0.00  0.00    +0.103 C 
ATOM     32  C   UNL     1      39.400 -25.601 -13.206  0.00  0.00    +0.134 C 
ATOM     33  C   UNL     1      36.736 -26.922 -15.021  0.00  0.00    +0.135 C 
ATOM     34  C   UNL     1      37.311 -23.004 -11.782  0.00  0.00    +0.251 C 
ATOM     35  H   UNL     1      34.894 -25.496 -14.445  0.00  0.00    +0.148 HD
ENDBRANCH  23  24
ENDBRANCH  22  23
ENDBRANCH   6  22
TORSDOF 5
ENDMDL
MODEL 4
REMARK VINA RESULT:     -11.9      4.884      7.760
REMARK  Name = 15602701
REMARK  5 active torsions:
REMARK  status: ('A' for Active; 'I' for Inactive)
REMARK    1  A    between atoms: N_5  and  C_12
REMARK    2  A    between atoms: C_6  and  C_22
REMARK    3  A    between atoms: C_13  and  C_21
REMARK    4  A    between atoms: C_22  and  C_23
REMARK    5  A    between atoms: C_23  and  N_24
REMARK                            x       y       z     vdW  Elec       q    Type
REMARK                         _______ _______ _______ _____ _____    ______ ____
ROOT
ATOM      1  S   UNL     1      33.863 -14.798 -24.515  0.00  0.00    -0.056 S 
ATOM      2  O   UNL     1      35.348 -16.482 -20.451  0.00  0.00    -0.252 OA
ATOM      3  N   UNL     1      34.628 -14.169 -22.127  0.00  0.00    -0.223 NA
ATOM      4  N   UNL     1      34.596 -16.515 -22.676  0.00  0.00    -0.248 N 
ATOM      5  N   UNL     1      35.091 -18.502 -21.597  0.00  0.00    -0.268 N 
ATOM      6  C   UNL     1      33.905 -13.160 -24.071  0.00  0.00    +0.031 C 
ATOM      7  C   UNL     1      34.328 -12.997 -22.793  0.00  0.00    +0.103 C 
ATOM      8  C   UNL     1      34.420 -15.182 -22.938  0.00  0.00    +0.166 C 
ATOM      9  C   UNL     1      35.045 -17.104 -21.463  0.00  0.00    +0.310 C 
ATOM     10  H   UNL     1      34.388 -17.137 -23.411  0.00  0.00    +0.158 HD
ATOM     11  H   UNL     1      34.818 -18.861 -22.472  0.00  0.00    +0.156 HD
ENDROOT
BRANCH   5  12
ATOM     12  C   UNL     1      35.482 -19.457 -20.629  0.00  0.00    +0.052 C 
ATOM     13  C   UNL     1      34.911 -21.241 -19.129  0.00  0.00    +0.073 C 
ATOM     14  C   UNL     1      34.526 -20.299 -20.083  0.00  0.00    +0.019 C 
ATOM     15  C   UNL     1      36.811 -19.533 -20.249  0.00  0.00    +0.015 C 
ATOM     16  C   UNL     1      36.247 -21.330 -18.736  0.00  0.00    +0.004 C 
ATOM     17  C   UNL     1      37.196 -20.475 -19.295  0.00  0.00    +0.001 C 
BRANCH  13  21
ATOM     18  F   UNL     1      33.790 -23.354 -19.178  0.00  0.00    -0.166 F 
ATOM     19  F   UNL     1      34.150 -22.476 -17.228  0.00  0.00    -0.166 F 
ATOM     20  F   UNL     1      32.639 -21.623 -18.539  0.00  0.00    -0.166 F 
ATOM     21  C   UNL     1      33.896 -22.156 -18.531  0.00  0.00    +0.419 C 
ENDBRANCH  13  21
ENDBRANCH   5  12
BRANCH   6  22
ATOM     22  C   UNL     1      33.499 -12.105 -25.074  0.00  0.00    +0.056 C 
BRANCH  22  23
ATOM     23  C   UNL     1      33.724 -10.685 -24.557  0.00  0.00    +0.093 C 
BRANCH  23  24
ATOM     24  N   UNL     1      33.084 -10.490 -23.290  0.00  0.00    -0.320 N 
ATOM     25  N   UNL     1      31.754  -9.928 -20.569  0.00  0.00    -0.220 N 
ATOM     26  N   UNL     1      31.322  -9.338 -19.438  0.00  0.00    -0.178 NA
ATOM     27  N   UNL     1      33.753  -8.201 -23.124  0.00  0.00    -0.232 NA
ATOM     28  N   UNL     1      33.159  -6.800 -21.219  0.00  0.00    -0.245 NA
ATOM     29  C   UNL     1      32.480  -9.105 -21.378  0.00  0.00    +0.185 C 
ATOM     30  C   UNL     1      33.106  -9.266 -22.600  0.00  0.00    +0.128 C 
ATOM     31  C   UNL     1      32.520  -7.885 -20.722  0.00  0.00    +0.103 C 
ATOM     32  C   UNL     1      31.793  -8.090 -19.537  0.00  0.00    +0.134 C 
ATOM     33  C   UNL     1      31.420 -11.315 -20.799  0.00  0.00    +0.135 C 
ATOM     34  C   UNL     1      33.740  -7.050 -22.411  0.00  0.00    +0.251 C 
ATOM     35  H   UNL     1      32.606 -11.249 -22.884  0.00  0.00    +0.148 HD
ENDBRANCH  23  24
ENDBRANCH  22  23
ENDBRANCH   6  22
TORSDOF 5
ENDMDL
MODEL 5
REMARK VINA RESULT:     -11.8      1.928      2.892
REMARK  Name = 15602701
REMARK  5 active torsions:
REMARK  status: ('A' for Active; 'I' for Inactive)
REMARK    1  A    between atoms: N_5  and  C_12
REMARK    2  A    between atoms: C_6  and  C_22
REMARK    3  A    between atoms: C_13  and  C_21
REMARK    4  A    between atoms: C_22  and  C_23
REMARK    5  A    between atoms: C_23  and  N_24
REMARK                            x       y       z     vdW  Elec       q    Type
REMARK                         _______ _______ _______ _____ _____    ______ ____
ROOT
ATOM      1  S   UNL     1      34.042 -20.884 -19.924  0.00  0.00    -0.056 S 
ATOM      2  O   UNL     1      36.860 -22.046 -16.422  0.00  0.00    -0.252 OA
ATOM      3  N   UNL     1      36.426 -20.618 -18.962  0.00  0.00    -0.223 NA
ATOM      4  N   UNL     1      34.886 -21.968 -17.692  0.00  0.00    -0.248 N 
ATOM      5  N   UNL     1      34.941 -23.177 -15.720  0.00  0.00    -0.268 N 
ATOM      6  C   UNL     1      35.171 -19.944 -20.776  0.00  0.00    +0.031 C 
ATOM      7  C   UNL     1      36.370 -19.905 -20.144  0.00  0.00    +0.103 C 
ATOM      8  C   UNL     1      35.256 -21.176 -18.747  0.00  0.00    +0.166 C 
ATOM      9  C   UNL     1      35.689 -22.365 -16.589  0.00  0.00    +0.310 C 
ATOM     10  H   UNL     1      33.958 -22.299 -17.699  0.00  0.00    +0.158 HD
ATOM     11  H   UNL     1      34.008 -23.349 -15.986  0.00  0.00    +0.156 HD
ENDROOT
BRANCH   5  12
ATOM     12  C   UNL     1      35.362 -23.778 -14.511  0.00  0.00    +0.052 C 
ATOM     13  C   UNL     1      36.982 -25.056 -13.285  0.00  0.00    +0.073 C 
ATOM     14  C   UNL     1      36.566 -24.464 -14.478  0.00  0.00    +0.019 C 
ATOM     15  C   UNL     1      34.564 -23.667 -13.384  0.00  0.00    +0.015 C 
ATOM     16  C   UNL     1      36.189 -24.954 -12.142  0.00  0.00    +0.004 C 
ATOM     17  C   UNL     1      34.980 -24.259 -12.192  0.00  0.00    +0.001 C 
BRANCH  13  21
ATOM     18  F   UNL     1      39.343 -25.070 -13.673  0.00  0.00    -0.166 F 
ATOM     19  F   UNL     1      38.618 -26.207 -11.974  0.00  0.00    -0.166 F 
ATOM     20  F   UNL     1      38.263 -26.930 -13.995  0.00  0.00    -0.166 F 
ATOM     21  C   UNL     1      38.275 -25.798 -13.231  0.00  0.00    +0.419 C 
ENDBRANCH  13  21
ENDBRANCH   5  12
BRANCH   6  22
ATOM     22  C   UNL     1      34.765 -19.285 -22.073  0.00  0.00    +0.056 C 
BRANCH  22  23
ATOM     23  C   UNL     1      35.798 -18.272 -22.566  0.00  0.00    +0.093 C 
BRANCH  23  24
ATOM     24  N   UNL     1      35.160 -17.108 -23.106  0.00  0.00    -0.320 N 
ATOM     25  N   UNL     1      33.794 -14.544 -24.129  0.00  0.00    -0.220 N 
ATOM     26  N   UNL     1      33.230 -13.323 -24.210  0.00  0.00    -0.178 NA
ATOM     27  N   UNL     1      35.110 -15.967 -21.006  0.00  0.00    -0.232 NA
ATOM     28  N   UNL     1      34.166 -13.733 -20.755  0.00  0.00    -0.245 NA
ATOM     29  C   UNL     1      34.214 -14.874 -22.874  0.00  0.00    +0.185 C 
ATOM     30  C   UNL     1      34.830 -15.985 -22.329  0.00  0.00    +0.128 C 
ATOM     31  C   UNL     1      33.900 -13.783 -22.081  0.00  0.00    +0.103 C 
ATOM     32  C   UNL     1      33.298 -12.863 -22.956  0.00  0.00    +0.134 C 
ATOM     33  C   UNL     1      33.890 -15.345 -25.327  0.00  0.00    +0.135 C 
ATOM     34  C   UNL     1      34.765 -14.858 -20.310  0.00  0.00    +0.251 C 
ATOM     35  H   UNL     1      34.944 -17.094 -24.066  0.00  0.00    +0.148 HD
ENDBRANCH  23  24
ENDBRANCH  22  23
ENDBRANCH   6  22
TORSDOF 5
ENDMDL
MODEL 6
REMARK VINA RESULT:     -11.7      1.829      2.313
REMARK  Name = 15602701
REMARK  5 active torsions:
REMARK  status: ('A' for Active; 'I' for Inactive)
REMARK    1  A    between atoms: N_5  and  C_12
REMARK    2  A    between atoms: C_6  and  C_22
REMARK    3  A    between atoms: C_13  and  C_21
REMARK    4  A    between atoms: C_22  and  C_23
REMARK    5  A    between atoms: C_23  and  N_24
REMARK                            x       y       z     vdW  Elec       q    Type
REMARK                         _______ _______ _______ _____ _____    ______ ____
ROOT
ATOM      1  S   UNL     1      34.118 -20.893 -19.941  0.00  0.00    -0.056 S 
ATOM      2  O   UNL     1      36.881 -22.001 -16.377  0.00  0.00    -0.252 OA
ATOM      3  N   UNL     1      36.472 -20.574 -18.922  0.00  0.00    -0.223 NA
ATOM      4  N   UNL     1      34.935 -21.965 -17.693  0.00  0.00    -0.248 N 
ATOM      5  N   UNL     1      34.973 -23.181 -15.725  0.00  0.00    -0.268 N 
ATOM      6  C   UNL     1      35.243 -19.923 -20.762  0.00  0.00    +0.031 C 
ATOM      7  C   UNL     1      36.426 -19.857 -20.102  0.00  0.00    +0.103 C 
ATOM      8  C   UNL     1      35.311 -21.161 -18.736  0.00  0.00    +0.166 C 
ATOM      9  C   UNL     1      35.721 -22.348 -16.573  0.00  0.00    +0.310 C 
ATOM     10  H   UNL     1      34.016 -22.319 -17.723  0.00  0.00    +0.158 HD
ATOM     11  H   UNL     1      34.051 -23.374 -16.012  0.00  0.00    +0.156 HD
ENDROOT
BRANCH   5  12
ATOM     12  C   UNL     1      35.380 -23.777 -14.508  0.00  0.00    +0.052 C 
ATOM     13  C   UNL     1      36.976 -25.067 -13.263  0.00  0.00    +0.073 C 
ATOM     14  C   UNL     1      36.574 -24.480 -14.463  0.00  0.00    +0.019 C 
ATOM     15  C   UNL     1      34.580 -23.643 -13.386  0.00  0.00    +0.015 C 
ATOM     16  C   UNL     1      36.180 -24.942 -12.124  0.00  0.00    +0.004 C 
ATOM     17  C   UNL     1      34.982 -24.230 -12.186  0.00  0.00    +0.001 C 
BRANCH  13  21
ATOM     18  F   UNL     1      39.344 -25.105 -13.602  0.00  0.00    -0.166 F 
ATOM     19  F   UNL     1      38.569 -26.264 -11.941  0.00  0.00    -0.166 F 
ATOM     20  F   UNL     1      38.247 -26.944 -13.981  0.00  0.00    -0.166 F 
ATOM     21  C   UNL     1      38.257 -25.827 -13.197  0.00  0.00    +0.419 C 
ENDBRANCH  13  21
ENDBRANCH   5  12
BRANCH   6  22
ATOM     22  C   UNL     1      34.852 -19.268 -22.066  0.00  0.00    +0.056 C 
BRANCH  22  23
ATOM     23  C   UNL     1      35.831 -18.175 -22.492  0.00  0.00    +0.093 C 
BRANCH  23  24
ATOM     24  N   UNL     1      35.310 -16.873 -22.199  0.00  0.00    -0.320 N 
ATOM     25  N   UNL     1      34.143 -14.065 -21.710  0.00  0.00    -0.220 N 
ATOM     26  N   UNL     1      33.550 -12.866 -21.867  0.00  0.00    -0.178 NA
ATOM     27  N   UNL     1      34.541 -16.503 -24.432  0.00  0.00    -0.232 NA
ATOM     28  N   UNL     1      33.415 -14.447 -25.102  0.00  0.00    -0.245 NA
ATOM     29  C   UNL     1      34.184 -14.813 -22.850  0.00  0.00    +0.185 C 
ATOM     30  C   UNL     1      34.679 -16.066 -23.160  0.00  0.00    +0.128 C 
ATOM     31  C   UNL     1      33.568 -14.040 -23.821  0.00  0.00    +0.103 C 
ATOM     32  C   UNL     1      33.200 -12.856 -23.158  0.00  0.00    +0.134 C 
ATOM     33  C   UNL     1      34.655 -14.421 -20.407  0.00  0.00    +0.135 C 
ATOM     34  C   UNL     1      33.926 -15.679 -25.312  0.00  0.00    +0.251 C 
ATOM     35  H   UNL     1      35.396 -16.529 -21.280  0.00  0.00    +0.148 HD
ENDBRANCH  23  24
ENDBRANCH  22  23
ENDBRANCH   6  22
TORSDOF 5
ENDMDL
MODEL 7
REMARK VINA RESULT:     -11.6      5.768     11.903
REMARK  Name = 15602701
REMARK  5 active torsions:
REMARK  status: ('A' for Active; 'I' for Inactive)
REMARK    1  A    between atoms: N_5  and  C_12
REMARK    2  A    between atoms: C_6  and  C_22
REMARK    3  A    between atoms: C_13  and  C_21
REMARK    4  A    between atoms: C_22  and  C_23
REMARK    5  A    between atoms: C_23  and  N_24
REMARK                            x       y       z     vdW  Elec       q    Type
REMARK                         _______ _______ _______ _____ _____    ______ ____
ROOT
ATOM      1  S   UNL     1      33.774 -23.503 -16.008  0.00  0.00    -0.056 S 
ATOM      2  O   UNL     1      32.841 -20.532 -19.453  0.00  0.00    -0.252 OA
ATOM      3  N   UNL     1      31.887 -22.264 -17.269  0.00  0.00    -0.223 NA
ATOM      4  N   UNL     1      34.142 -21.858 -18.015  0.00  0.00    -0.248 N 
ATOM      5  N   UNL     1      35.168 -20.586 -19.654  0.00  0.00    -0.268 N 
ATOM      6  C   UNL     1      32.165 -23.749 -15.527  0.00  0.00    +0.031 C 
ATOM      7  C   UNL     1      31.298 -23.033 -16.284  0.00  0.00    +0.103 C 
ATOM      8  C   UNL     1      33.189 -22.433 -17.217  0.00  0.00    +0.166 C 
ATOM      9  C   UNL     1      33.935 -20.945 -19.084  0.00  0.00    +0.310 C 
ATOM     10  H   UNL     1      35.077 -22.105 -17.828  0.00  0.00    +0.158 HD
ATOM     11  H   UNL     1      35.966 -21.000 -19.252  0.00  0.00    +0.156 HD
ENDROOT
BRANCH   5  12
ATOM     12  C   UNL     1      35.404 -19.705 -20.736  0.00  0.00    +0.052 C 
ATOM     13  C   UNL     1      34.892 -18.972 -22.963  0.00  0.00    +0.073 C 
ATOM     14  C   UNL     1      34.659 -19.841 -21.897  0.00  0.00    +0.019 C 
ATOM     15  C   UNL     1      36.373 -18.724 -20.611  0.00  0.00    +0.015 C 
ATOM     16  C   UNL     1      35.865 -17.978 -22.853  0.00  0.00    +0.004 C 
ATOM     17  C   UNL     1      36.606 -17.854 -21.677  0.00  0.00    +0.001 C 
BRANCH  13  21
ATOM     18  F   UNL     1      32.752 -19.179 -24.012  0.00  0.00    -0.166 F 
ATOM     19  F   UNL     1      34.269 -18.060 -25.084  0.00  0.00    -0.166 F 
ATOM     20  F   UNL     1      34.423 -20.223 -24.930  0.00  0.00    -0.166 F 
ATOM     21  C   UNL     1      34.100 -19.104 -24.219  0.00  0.00    +0.419 C 
ENDBRANCH  13  21
ENDBRANCH   5  12
BRANCH   6  22
ATOM     22  C   UNL     1      31.865 -24.684 -14.378  0.00  0.00    +0.056 C 
BRANCH  22  23
ATOM     23  C   UNL     1      32.735 -24.407 -13.152  0.00  0.00    +0.093 C 
BRANCH  23  24
ATOM     24  N   UNL     1      34.063 -24.911 -13.338  0.00  0.00    -0.320 N 
ATOM     25  N   UNL     1      36.956 -25.934 -13.607  0.00  0.00    -0.220 N 
ATOM     26  N   UNL     1      38.259 -26.200 -13.392  0.00  0.00    -0.178 NA
ATOM     27  N   UNL     1      34.874 -23.984 -11.289  0.00  0.00    -0.232 NA
ATOM     28  N   UNL     1      37.183 -24.256 -10.555  0.00  0.00    -0.245 NA
ATOM     29  C   UNL     1      36.374 -25.194 -12.620  0.00  0.00    +0.185 C 
ATOM     30  C   UNL     1      35.101 -24.697 -12.416  0.00  0.00    +0.128 C 
ATOM     31  C   UNL     1      37.377 -24.965 -11.692  0.00  0.00    +0.103 C 
ATOM     32  C   UNL     1      38.510 -25.606 -12.220  0.00  0.00    +0.134 C 
ATOM     33  C   UNL     1      36.335 -26.436 -14.811  0.00  0.00    +0.135 C 
ATOM     34  C   UNL     1      35.914 -23.810 -10.440  0.00  0.00    +0.251 C 
ATOM     35  H   UNL     1      34.257 -25.433 -14.150  0.00  0.00    +0.148 HD
ENDBRANCH  23  24
ENDBRANCH  22  23
ENDBRANCH   6  22
TORSDOF 5
ENDMDL
MODEL 8
REMARK VINA RESULT:     -11.4      3.593      4.795
REMARK  Name = 15602701
REMARK  5 active torsions:
REMARK  status: ('A' for Active; 'I' for Inactive)
REMARK    1  A    between atoms: N_5  and  C_12
REMARK    2  A    between atoms: C_6  and  C_22
REMARK    3  A    between atoms: C_13  and  C_21
REMARK    4  A    between atoms: C_22  and  C_23
REMARK    5  A    between atoms: C_23  and  N_24
REMARK                            x       y       z     vdW  Elec       q    Type
REMARK                         _______ _______ _______ _____ _____    ______ ____
ROOT
ATOM      1  S   UNL     1      33.734 -19.924 -20.401  0.00  0.00    -0.056 S 
ATOM      2  O   UNL     1      33.271 -22.942 -16.903  0.00  0.00    -0.252 OA
ATOM      3  N   UNL     1      35.003 -21.531 -18.824  0.00  0.00    -0.223 NA
ATOM      4  N   UNL     1      32.615 -21.386 -18.535  0.00  0.00    -0.248 N 
ATOM      5  N   UNL     1      31.026 -22.344 -17.152  0.00  0.00    -0.268 N 
ATOM      6  C   UNL     1      35.418 -20.068 -20.557  0.00  0.00    +0.031 C 
ATOM      7  C   UNL     1      35.932 -20.947 -19.662  0.00  0.00    +0.103 C 
ATOM      8  C   UNL     1      33.811 -21.067 -19.123  0.00  0.00    +0.166 C 
ATOM      9  C   UNL     1      32.395 -22.296 -17.467  0.00  0.00    +0.310 C 
ATOM     10  H   UNL     1      31.817 -20.933 -18.895  0.00  0.00    +0.158 HD
ATOM     11  H   UNL     1      30.439 -21.767 -17.692  0.00  0.00    +0.156 HD
ENDROOT
BRANCH   5  12
ATOM     12  C   UNL     1      30.388 -23.119 -16.156  0.00  0.00    +0.052 C 
ATOM     13  C   UNL     1      30.389 -24.073 -13.954  0.00  0.00    +0.073 C 
ATOM     14  C   UNL     1      31.019 -23.309 -14.936  0.00  0.00    +0.019 C 
ATOM     15  C   UNL     1      29.146 -23.671 -16.418  0.00  0.00    +0.015 C 
ATOM     16  C   UNL     1      29.137 -24.636 -14.203  0.00  0.00    +0.004 C 
ATOM     17  C   UNL     1      28.516 -24.435 -15.436  0.00  0.00    +0.001 C 
BRANCH  13  21
ATOM     18  F   UNL     1      30.227 -24.082 -11.566  0.00  0.00    -0.166 F 
ATOM     19  F   UNL     1      31.544 -25.550 -12.469  0.00  0.00    -0.166 F 
ATOM     20  F   UNL     1      32.116 -23.453 -12.441  0.00  0.00    -0.166 F 
ATOM     21  C   UNL     1      31.053 -24.287 -12.635  0.00  0.00    +0.419 C 
ENDBRANCH  13  21
ENDBRANCH   5  12
BRANCH   6  22
ATOM     22  C   UNL     1      36.141 -19.260 -21.610  0.00  0.00    +0.056 C 
BRANCH  22  23
ATOM     23  C   UNL     1      36.244 -17.779 -21.247  0.00  0.00    +0.093 C 
BRANCH  23  24
ATOM     24  N   UNL     1      35.586 -16.963 -22.225  0.00  0.00    -0.320 N 
ATOM     25  N   UNL     1      34.137 -15.113 -24.216  0.00  0.00    -0.220 N 
ATOM     26  N   UNL     1      33.436 -14.105 -24.770  0.00  0.00    -0.178 NA
ATOM     27  N   UNL     1      34.887 -15.331 -20.625  0.00  0.00    -0.232 NA
ATOM     28  N   UNL     1      33.598 -13.358 -21.248  0.00  0.00    -0.245 NA
ATOM     29  C   UNL     1      34.299 -14.997 -22.867  0.00  0.00    +0.185 C 
ATOM     30  C   UNL     1      34.926 -15.765 -21.904  0.00  0.00    +0.128 C 
ATOM     31  C   UNL     1      33.656 -13.820 -22.519  0.00  0.00    +0.103 C 
ATOM     32  C   UNL     1      33.145 -13.318 -23.728  0.00  0.00    +0.134 C 
ATOM     33  C   UNL     1      34.622 -16.172 -25.071  0.00  0.00    +0.135 C 
ATOM     34  C   UNL     1      34.235 -14.170 -20.379  0.00  0.00    +0.251 C 
ATOM     35  H   UNL     1      35.598 -17.255 -23.165  0.00  0.00    +0.148 HD
ENDBRANCH  23  24
ENDBRANCH  22  23
ENDBRANCH   6  22
TORSDOF 5
ENDMDL
MODEL 9
REMARK VINA RESULT:     -11.3      6.102     12.562
REMARK  Name = 15602701
REMARK  5 active torsions:
REMARK  status: ('A' for Active; 'I' for Inactive)
REMARK    1  A    between atoms: N_5  and  C_12
REMARK    2  A    between atoms: C_6  and  C_22
REMARK    3  A    between atoms: C_13  and  C_21
REMARK    4  A    between atoms: C_22  and  C_23
REMARK    5  A    between atoms: C_23  and  N_24
REMARK                            x       y       z     vdW  Elec       q    Type
REMARK                         _______ _______ _______ _____ _____    ______ ____
ROOT
ATOM      1  S   UNL     1      34.581 -19.761 -21.119  0.00  0.00    -0.056 S 
ATOM      2  O   UNL     1      35.891 -15.562 -22.606  0.00  0.00    -0.252 OA
ATOM      3  N   UNL     1      36.476 -18.004 -21.064  0.00  0.00    -0.223 NA
ATOM      4  N   UNL     1      34.511 -17.444 -22.342  0.00  0.00    -0.248 N 
ATOM      5  N   UNL     1      33.789 -15.656 -23.621  0.00  0.00    -0.268 N 
ATOM      6  C   UNL     1      35.990 -20.100 -20.235  0.00  0.00    +0.031 C 
ATOM      7  C   UNL     1      36.884 -19.082 -20.305  0.00  0.00    +0.103 C 
ATOM      8  C   UNL     1      35.277 -18.250 -21.543  0.00  0.00    +0.166 C 
ATOM      9  C   UNL     1      34.841 -16.153 -22.834  0.00  0.00    +0.310 C 
ATOM     10  H   UNL     1      33.630 -17.799 -22.605  0.00  0.00    +0.158 HD
ATOM     11  H   UNL     1      33.005 -16.244 -23.715  0.00  0.00    +0.156 HD
ENDROOT
BRANCH   5  12
ATOM     12  C   UNL     1      33.715 -14.413 -24.293  0.00  0.00    +0.052 C 
ATOM     13  C   UNL     1      33.601 -12.017 -24.215  0.00  0.00    +0.073 C 
ATOM     14  C   UNL     1      33.673 -13.243 -23.552  0.00  0.00    +0.019 C 
ATOM     15  C   UNL     1      33.690 -14.392 -25.677  0.00  0.00    +0.015 C 
ATOM     16  C   UNL     1      33.575 -11.979 -25.609  0.00  0.00    +0.004 C 
ATOM     17  C   UNL     1      33.619 -13.166 -26.340  0.00  0.00    +0.001 C 
BRANCH  13  21
ATOM     18  F   UNL     1      32.729  -9.802 -23.973  0.00  0.00    -0.166 F 
ATOM     19  F   UNL     1      33.119 -10.911 -22.150  0.00  0.00    -0.166 F 
ATOM     20  F   UNL     1      34.777 -10.149 -23.332  0.00  0.00    -0.166 F 
ATOM     21  C   UNL     1      33.555 -10.747 -23.434  0.00  0.00    +0.419 C 
ENDBRANCH  13  21
ENDBRANCH   5  12
BRANCH   6  22
ATOM     22  C   UNL     1      36.111 -21.414 -19.500  0.00  0.00    +0.056 C 
BRANCH  22  23
ATOM     23  C   UNL     1      34.808 -21.829 -18.817  0.00  0.00    +0.093 C 
BRANCH  23  24
ATOM     24  N   UNL     1      35.058 -22.354 -17.507  0.00  0.00    -0.320 N 
ATOM     25  N   UNL     1      35.446 -23.505 -14.676  0.00  0.00    -0.220 N 
ATOM     26  N   UNL     1      35.236 -24.031 -13.455  0.00  0.00    -0.178 NA
ATOM     27  N   UNL     1      32.744 -22.741 -17.048  0.00  0.00    -0.232 NA
ATOM     28  N   UNL     1      31.970 -23.686 -14.938  0.00  0.00    -0.245 NA
ATOM     29  C   UNL     1      34.303 -23.301 -15.393  0.00  0.00    +0.185 C 
ATOM     30  C   UNL     1      34.035 -22.798 -16.652  0.00  0.00    +0.128 C 
ATOM     31  C   UNL     1      33.272 -23.730 -14.572  0.00  0.00    +0.103 C 
ATOM     32  C   UNL     1      33.906 -24.167 -13.396  0.00  0.00    +0.134 C 
ATOM     33  C   UNL     1      36.801 -23.220 -15.086  0.00  0.00    +0.135 C 
ATOM     34  C   UNL     1      31.804 -23.182 -16.179  0.00  0.00    +0.251 C 
ATOM     35  H   UNL     1      35.989 -22.407 -17.192  0.00  0.00    +0.148 HD
ENDBRANCH  23  24
ENDBRANCH  22  23
ENDBRANCH   6  22
TORSDOF 5
ENDMDL
