MODEL 1
REMARK VINA RESULT:     -12.8      0.000      0.000
REMARK  Name = 11167602
REMARK  6 active torsions:
REMARK  status: ('A' for Active; 'I' for Inactive)
REMARK    1  A    between atoms: C_2  and  N_10
REMARK    2  A    between atoms: C_3  and  O_25
REMARK    3  A    between atoms: N_9  and  C_15
REMARK    4  A    between atoms: C_16  and  C_24
REMARK    5  A    between atoms: O_25  and  C_27
REMARK    6  A    between atoms: C_29  and  C_34
REMARK                            x       y       z     vdW  Elec       q    Type
REMARK                         _______ _______ _______ _____ _____    ______ ____
ROOT
ATOM      1  F   UNL     1      37.084 -21.433 -17.263  0.00  0.00    -0.203 F 
ATOM      2  C   UNL     1      34.990 -21.870 -18.294  0.00  0.00    +0.079 C 
ATOM      3  C   UNL     1      34.225 -23.332 -16.069  0.00  0.00    +0.148 C 
ATOM      4  C   UNL     1      35.871 -22.001 -17.233  0.00  0.00    +0.157 C 
ATOM      5  C   UNL     1      33.734 -22.455 -18.265  0.00  0.00    +0.020 C 
ATOM      6  C   UNL     1      35.485 -22.737 -16.113  0.00  0.00    +0.068 C 
ATOM      7  C   UNL     1      33.349 -23.191 -17.146  0.00  0.00    +0.039 C 
ENDROOT
BRANCH   2  10
ATOM      8  O   UNL     1      33.443 -19.910 -19.932  0.00  0.00    -0.252 OA
ATOM      9  N   UNL     1      35.376 -19.681 -21.236  0.00  0.00    -0.268 N 
ATOM     10  N   UNL     1      35.378 -21.123 -19.431  0.00  0.00    -0.266 N 
ATOM     11  C   UNL     1      34.608 -20.211 -20.170  0.00  0.00    +0.308 C 
ATOM     12  H   UNL     1      36.300 -20.015 -21.303  0.00  0.00    +0.156 HD
ATOM     13  H   UNL     1      36.301 -21.262 -19.744  0.00  0.00    +0.156 HD
BRANCH   9  15
ATOM     14 CL   UNL     1      33.769 -15.763 -25.360  0.00  0.00    -0.082 Cl
ATOM     15  C   UNL     1      34.998 -18.749 -22.202  0.00  0.00    +0.052 C 
ATOM     16  C   UNL     1      34.620 -16.457 -22.865  0.00  0.00    +0.083 C 
ATOM     17  C   UNL     1      34.999 -17.388 -21.897  0.00  0.00    +0.019 C 
ATOM     18  C   UNL     1      34.617 -19.179 -23.473  0.00  0.00    +0.016 C 
ATOM     19  C   UNL     1      34.242 -16.887 -24.136  0.00  0.00    +0.062 C 
ATOM     20  C   UNL     1      34.239 -18.248 -24.440  0.00  0.00    +0.013 C 
BRANCH  16  24
ATOM     21  F   UNL     1      35.153 -14.765 -21.260  0.00  0.00    -0.166 F 
ATOM     22  F   UNL     1      35.377 -14.240 -23.353  0.00  0.00    -0.166 F 
ATOM     23  F   UNL     1      33.391 -14.457 -22.495  0.00  0.00    -0.166 F 
ATOM     24  C   UNL     1      34.638 -15.008 -22.500  0.00  0.00    +0.419 C 
ENDBRANCH  16  24
ENDBRANCH   9  15
ENDBRANCH   2  10
BRANCH   3  25
ATOM     25  O   UNL     1      33.848 -24.051 -14.976  0.00  0.00    -0.453 OA
BRANCH  25  27
ATOM     26  N   UNL     1      36.774 -24.975 -12.173  0.00  0.00    -0.239 NA
ATOM     27  C   UNL     1      34.823 -24.360 -14.042  0.00  0.00    +0.149 C 
ATOM     28  C   UNL     1      35.935 -25.069 -14.439  0.00  0.00    +0.061 C 
ATOM     29  C   UNL     1      36.883 -25.352 -13.467  0.00  0.00    +0.137 C 
ATOM     30  C   UNL     1      34.658 -23.949 -12.736  0.00  0.00    +0.058 C 
ATOM     31  C   UNL     1      35.662 -24.282 -11.841  0.00  0.00    +0.102 C 
BRANCH  29  34
ATOM     32  O   UNL     1      38.002 -27.247 -14.276  0.00  0.00    -0.268 OA
ATOM     33  N   UNL     1      39.310 -25.452 -13.608  0.00  0.00    -0.298 N 
ATOM     34  C   UNL     1      38.083 -26.096 -13.808  0.00  0.00    +0.264 C 
ATOM     35  C   UNL     1      40.588 -26.050 -13.920  0.00  0.00    +0.111 C 
ATOM     36  H   UNL     1      39.302 -24.542 -13.233  0.00  0.00    +0.150 HD
ENDBRANCH  29  34
ENDBRANCH  25  27
ENDBRANCH   3  25
TORSDOF 6
ENDMDL
MODEL 2
REMARK VINA RESULT:     -12.7      4.404     11.660
REMARK  Name = 11167602
REMARK  6 active torsions:
REMARK  status: ('A' for Active; 'I' for Inactive)
REMARK    1  A    between atoms: C_2  and  N_10
REMARK    2  A    between atoms: C_3  and  O_25
REMARK    3  A    between atoms: N_9  and  C_15
REMARK    4  A    between atoms: C_16  and  C_24
REMARK    5  A    between atoms: O_25  and  C_27
REMARK    6  A    between atoms: C_29  and  C_34
REMARK                            x       y       z     vdW  Elec       q    Type
REMARK                         _______ _______ _______ _____ _____    ______ ____
ROOT
ATOM      1  F   UNL     1      36.183 -16.863 -21.711  0.00  0.00    -0.203 F 
ATOM      2  C   UNL     1      34.923 -18.580 -22.761  0.00  0.00    +0.079 C 
ATOM      3  C   UNL     1      34.114 -16.772 -24.698  0.00  0.00    +0.148 C 
ATOM      4  C   UNL     1      35.369 -17.270 -22.694  0.00  0.00    +0.157 C 
ATOM      5  C   UNL     1      34.082 -19.005 -23.777  0.00  0.00    +0.020 C 
ATOM      6  C   UNL     1      34.962 -16.360 -23.669  0.00  0.00    +0.068 C 
ATOM      7  C   UNL     1      33.674 -18.094 -24.751  0.00  0.00    +0.039 C 
ENDROOT
BRANCH   2  10
ATOM      8  O   UNL     1      33.464 -19.638 -20.379  0.00  0.00    -0.252 OA
ATOM      9  N   UNL     1      35.390 -20.894 -19.928  0.00  0.00    -0.268 N 
ATOM     10  N   UNL     1      35.336 -19.506 -21.774  0.00  0.00    -0.266 N 
ATOM     11  C   UNL     1      34.608 -19.973 -20.668  0.00  0.00    +0.308 C 
ATOM     12  H   UNL     1      36.292 -21.067 -20.281  0.00  0.00    +0.156 HD
ATOM     13  H   UNL     1      36.246 -19.867 -21.876  0.00  0.00    +0.156 HD
BRANCH   9  15
ATOM     14 CL   UNL     1      33.911 -23.838 -15.021  0.00  0.00    -0.082 Cl
ATOM     15  C   UNL     1      35.050 -21.588 -18.767  0.00  0.00    +0.052 C 
ATOM     16  C   UNL     1      35.646 -22.432 -16.583  0.00  0.00    +0.083 C 
ATOM     17  C   UNL     1      35.987 -21.738 -17.745  0.00  0.00    +0.019 C 
ATOM     18  C   UNL     1      33.773 -22.132 -18.629  0.00  0.00    +0.016 C 
ATOM     19  C   UNL     1      34.369 -22.975 -16.445  0.00  0.00    +0.062 C 
ATOM     20  C   UNL     1      33.433 -22.825 -17.467  0.00  0.00    +0.013 C 
BRANCH  16  24
ATOM     21  F   UNL     1      36.261 -22.112 -14.294  0.00  0.00    -0.166 F 
ATOM     22  F   UNL     1      37.072 -23.857 -15.295  0.00  0.00    -0.166 F 
ATOM     23  F   UNL     1      37.818 -21.876 -15.793  0.00  0.00    -0.166 F 
ATOM     24  C   UNL     1      36.677 -22.568 -15.510  0.00  0.00    +0.419 C 
ENDBRANCH  16  24
ENDBRANCH   9  15
ENDBRANCH   2  10
BRANCH   3  25
ATOM     25  O   UNL     1      33.716 -15.884 -25.650  0.00  0.00    -0.453 OA
BRANCH  25  27
ATOM     26  N   UNL     1      33.368 -11.893 -24.542  0.00  0.00    -0.239 NA
ATOM     27  C   UNL     1      33.599 -14.554 -25.280  0.00  0.00    +0.149 C 
ATOM     28  C   UNL     1      33.252 -14.243 -23.983  0.00  0.00    +0.061 C 
ATOM     29  C   UNL     1      33.150 -12.898 -23.663  0.00  0.00    +0.137 C 
ATOM     30  C   UNL     1      33.833 -13.572 -26.219  0.00  0.00    +0.058 C 
ATOM     31  C   UNL     1      33.704 -12.258 -25.800  0.00  0.00    +0.102 C 
BRANCH  29  34
ATOM     32  O   UNL     1      32.620 -11.288 -22.044  0.00  0.00    -0.268 OA
ATOM     33  N   UNL     1      32.623 -13.506 -21.367  0.00  0.00    -0.298 N 
ATOM     34  C   UNL     1      32.789 -12.491 -22.317  0.00  0.00    +0.264 C 
ATOM     35  C   UNL     1      32.243 -13.263 -19.994  0.00  0.00    +0.111 C 
ATOM     36  H   UNL     1      32.774 -14.437 -21.650  0.00  0.00    +0.150 HD
ENDBRANCH  29  34
ENDBRANCH  25  27
ENDBRANCH   3  25
TORSDOF 6
ENDMDL
MODEL 3
REMARK VINA RESULT:     -12.6      4.239      7.353
REMARK  Name = 11167602
REMARK  6 active torsions:
REMARK  status: ('A' for Active; 'I' for Inactive)
REMARK    1  A    between atoms: C_2  and  N_10
REMARK    2  A    between atoms: C_3  and  O_25
REMARK    3  A    between atoms: N_9  and  C_15
REMARK    4  A    between atoms: C_16  and  C_24
REMARK    5  A    between atoms: O_25  and  C_27
REMARK    6  A    between atoms: C_29  and  C_34
REMARK                            x       y       z     vdW  Elec       q    Type
REMARK                         _______ _______ _______ _____ _____    ______ ____
ROOT
ATOM      1  F   UNL     1      34.477 -17.451 -24.618  0.00  0.00    -0.203 F 
ATOM      2  C   UNL     1      34.889 -16.281 -22.593  0.00  0.00    +0.079 C 
ATOM      3  C   UNL     1      35.508 -18.681 -21.357  0.00  0.00    +0.148 C 
ATOM      4  C   UNL     1      34.829 -17.456 -23.325  0.00  0.00    +0.157 C 
ATOM      5  C   UNL     1      35.254 -16.281 -21.256  0.00  0.00    +0.020 C 
ATOM      6  C   UNL     1      35.140 -18.664 -22.702  0.00  0.00    +0.068 C 
ATOM      7  C   UNL     1      35.564 -17.490 -20.634  0.00  0.00    +0.039 C 
ENDROOT
BRANCH   2  10
ATOM      8  O   UNL     1      34.634 -13.536 -21.444  0.00  0.00    -0.252 OA
ATOM      9  N   UNL     1      34.134 -12.821 -23.618  0.00  0.00    -0.268 N 
ATOM     10  N   UNL     1      34.575 -15.053 -23.222  0.00  0.00    -0.266 N 
ATOM     11  C   UNL     1      34.466 -13.783 -22.634  0.00  0.00    +0.308 C 
ATOM     12  H   UNL     1      34.031 -13.166 -24.534  0.00  0.00    +0.156 HD
ATOM     13  H   UNL     1      34.412 -15.095 -24.192  0.00  0.00    +0.156 HD
BRANCH   9  15
ATOM     14 CL   UNL     1      33.319  -7.002 -22.974  0.00  0.00    -0.082 Cl
ATOM     15  C   UNL     1      33.933 -11.449 -23.461  0.00  0.00    +0.052 C 
ATOM     16  C   UNL     1      32.647  -9.611 -22.565  0.00  0.00    +0.083 C 
ATOM     17  C   UNL     1      32.847 -10.983 -22.721  0.00  0.00    +0.019 C 
ATOM     18  C   UNL     1      34.819 -10.544 -24.046  0.00  0.00    +0.016 C 
ATOM     19  C   UNL     1      33.533  -8.707 -23.148  0.00  0.00    +0.062 C 
ATOM     20  C   UNL     1      34.619  -9.172 -23.889  0.00  0.00    +0.013 C 
BRANCH  16  24
ATOM     21  F   UNL     1      30.655  -8.293 -22.435  0.00  0.00    -0.166 F 
ATOM     22  F   UNL     1      30.663 -10.172 -21.351  0.00  0.00    -0.166 F 
ATOM     23  F   UNL     1      31.843  -8.495 -20.626  0.00  0.00    -0.166 F 
ATOM     24  C   UNL     1      31.473  -9.153 -21.762  0.00  0.00    +0.419 C 
ENDBRANCH  16  24
ENDBRANCH   9  15
ENDBRANCH   2  10
BRANCH   3  25
ATOM     25  O   UNL     1      35.812 -19.861 -20.749  0.00  0.00    -0.453 OA
BRANCH  25  27
ATOM     26  N   UNL     1      32.830 -21.705 -18.517  0.00  0.00    -0.239 NA
ATOM     27  C   UNL     1      34.819 -20.476 -20.005  0.00  0.00    +0.149 C 
ATOM     28  C   UNL     1      35.173 -21.326 -18.980  0.00  0.00    +0.061 C 
ATOM     29  C   UNL     1      34.142 -21.915 -18.265  0.00  0.00    +0.137 C 
ATOM     30  C   UNL     1      33.498 -20.224 -20.308  0.00  0.00    +0.058 C 
ATOM     31  C   UNL     1      32.542 -20.863 -19.535  0.00  0.00    +0.102 C 
BRANCH  29  34
ATOM     32  O   UNL     1      33.756 -23.852 -17.002  0.00  0.00    -0.268 OA
ATOM     33  N   UNL     1      35.517 -22.494 -16.342  0.00  0.00    -0.298 N 
ATOM     34  C   UNL     1      34.435 -22.823 -17.169  0.00  0.00    +0.264 C 
ATOM     35  C   UNL     1      35.947 -23.306 -15.227  0.00  0.00    +0.111 C 
ATOM     36  H   UNL     1      36.010 -21.664 -16.530  0.00  0.00    +0.150 HD
ENDBRANCH  29  34
ENDBRANCH  25  27
ENDBRANCH   3  25
TORSDOF 6
ENDMDL
MODEL 4
REMARK VINA RESULT:     -12.4      4.493     11.736
REMARK  Name = 11167602
REMARK  6 active torsions:
REMARK  status: ('A' for Active; 'I' for Inactive)
REMARK    1  A    between atoms: C_2  and  N_10
REMARK    2  A    between atoms: C_3  and  O_25
REMARK    3  A    between atoms: N_9  and  C_15
REMARK    4  A    between atoms: C_16  and  C_24
REMARK    5  A    between atoms: O_25  and  C_27
REMARK    6  A    between atoms: C_29  and  C_34
REMARK                            x       y       z     vdW  Elec       q    Type
REMARK                         _______ _______ _______ _____ _____    ______ ____
ROOT
ATOM      1  F   UNL     1      32.934 -20.722 -20.134  0.00  0.00    -0.203 F 
ATOM      2  C   UNL     1      35.195 -20.798 -19.415  0.00  0.00    +0.079 C 
ATOM      3  C   UNL     1      35.869 -18.999 -21.411  0.00  0.00    +0.148 C 
ATOM      4  C   UNL     1      34.207 -20.326 -20.263  0.00  0.00    +0.157 C 
ATOM      5  C   UNL     1      36.513 -20.389 -19.543  0.00  0.00    +0.020 C 
ATOM      6  C   UNL     1      34.546 -19.420 -21.268  0.00  0.00    +0.068 C 
ATOM      7  C   UNL     1      36.852 -19.484 -20.549  0.00  0.00    +0.039 C 
ENDROOT
BRANCH   2  10
ATOM      8  O   UNL     1      36.482 -21.302 -16.767  0.00  0.00    -0.252 OA
ATOM      9  N   UNL     1      34.835 -22.933 -16.430  0.00  0.00    -0.268 N 
ATOM     10  N   UNL     1      34.855 -21.716 -18.393  0.00  0.00    -0.266 N 
ATOM     11  C   UNL     1      35.496 -21.915 -17.161  0.00  0.00    +0.308 C 
ATOM     12  H   UNL     1      34.054 -23.337 -16.873  0.00  0.00    +0.156 HD
ATOM     13  H   UNL     1      34.071 -22.286 -18.570  0.00  0.00    +0.156 HD
BRANCH   9  15
ATOM     14 CL   UNL     1      36.103 -25.062 -11.064  0.00  0.00    -0.082 Cl
ATOM     15  C   UNL     1      35.143 -23.438 -15.167  0.00  0.00    +0.052 C 
ATOM     16  C   UNL     1      36.743 -24.387 -13.625  0.00  0.00    +0.083 C 
ATOM     17  C   UNL     1      36.436 -23.882 -14.890  0.00  0.00    +0.019 C 
ATOM     18  C   UNL     1      34.158 -23.498 -14.181  0.00  0.00    +0.016 C 
ATOM     19  C   UNL     1      35.759 -24.446 -12.640  0.00  0.00    +0.062 C 
ATOM     20  C   UNL     1      34.466 -24.002 -12.917  0.00  0.00    +0.013 C 
BRANCH  16  24
ATOM     21  F   UNL     1      38.723 -24.250 -12.291  0.00  0.00    -0.166 F 
ATOM     22  F   UNL     1      38.234 -26.190 -13.127  0.00  0.00    -0.166 F 
ATOM     23  F   UNL     1      38.972 -24.606 -14.421  0.00  0.00    -0.166 F 
ATOM     24  C   UNL     1      38.140 -24.850 -13.368  0.00  0.00    +0.419 C 
ENDBRANCH  16  24
ENDBRANCH   9  15
ENDBRANCH   2  10
BRANCH   3  25
ATOM     25  O   UNL     1      36.200 -18.115 -22.392  0.00  0.00    -0.453 OA
BRANCH  25  27
ATOM     26  N   UNL     1      34.079 -14.546 -22.566  0.00  0.00    -0.239 NA
ATOM     27  C   UNL     1      35.494 -16.926 -22.451  0.00  0.00    +0.149 C 
ATOM     28  C   UNL     1      35.026 -16.479 -23.667  0.00  0.00    +0.061 C 
ATOM     29  C   UNL     1      34.324 -15.284 -23.673  0.00  0.00    +0.137 C 
ATOM     30  C   UNL     1      35.275 -16.215 -21.290  0.00  0.00    +0.058 C 
ATOM     31  C   UNL     1      34.563 -15.032 -21.401  0.00  0.00    +0.102 C 
BRANCH  29  34
ATOM     32  O   UNL     1      33.614 -15.492 -25.897  0.00  0.00    -0.268 OA
ATOM     33  N   UNL     1      33.495 -13.381 -24.944  0.00  0.00    -0.298 N 
ATOM     34  C   UNL     1      33.798 -14.748 -24.917  0.00  0.00    +0.264 C 
ATOM     35  C   UNL     1      32.945 -12.707 -26.097  0.00  0.00    +0.111 C 
ATOM     36  H   UNL     1      33.667 -12.851 -24.133  0.00  0.00    +0.150 HD
ENDBRANCH  29  34
ENDBRANCH  25  27
ENDBRANCH   3  25
TORSDOF 6
ENDMDL
MODEL 5
REMARK VINA RESULT:     -12.3      5.402      9.465
REMARK  Name = 11167602
REMARK  6 active torsions:
REMARK  status: ('A' for Active; 'I' for Inactive)
REMARK    1  A    between atoms: C_2  and  N_10
REMARK    2  A    between atoms: C_3  and  O_25
REMARK    3  A    between atoms: N_9  and  C_15
REMARK    4  A    between atoms: C_16  and  C_24
REMARK    5  A    between atoms: O_25  and  C_27
REMARK    6  A    between atoms: C_29  and  C_34
REMARK                            x       y       z     vdW  Elec       q    Type
REMARK                         _______ _______ _______ _____ _____    ______ ____
ROOT
ATOM      1  F   UNL     1      35.123 -13.906 -21.577  0.00  0.00    -0.203 F 
ATOM      2  C   UNL     1      34.204 -14.142 -23.754  0.00  0.00    +0.079 C 
ATOM      3  C   UNL     1      34.538 -16.886 -23.575  0.00  0.00    +0.148 C 
ATOM      4  C   UNL     1      34.753 -14.684 -22.603  0.00  0.00    +0.157 C 
ATOM      5  C   UNL     1      33.818 -14.942 -24.816  0.00  0.00    +0.020 C 
ATOM      6  C   UNL     1      34.921 -16.066 -22.514  0.00  0.00    +0.068 C 
ATOM      7  C   UNL     1      33.987 -16.324 -24.727  0.00  0.00    +0.039 C 
ENDROOT
BRANCH   2  10
ATOM      8  O   UNL     1      32.593 -12.280 -22.062  0.00  0.00    -0.252 OA
ATOM      9  N   UNL     1      33.356 -10.565 -23.463  0.00  0.00    -0.268 N 
ATOM     10  N   UNL     1      34.030 -12.740 -23.847  0.00  0.00    -0.266 N 
ATOM     11  C   UNL     1      33.258 -11.908 -23.023  0.00  0.00    +0.308 C 
ATOM     12  H   UNL     1      33.929 -10.415 -24.249  0.00  0.00    +0.156 HD
ATOM     13  H   UNL     1      34.511 -12.295 -24.582  0.00  0.00    +0.156 HD
BRANCH   9  15
ATOM     14 CL   UNL     1      30.780  -5.733 -21.237  0.00  0.00    -0.082 Cl
ATOM     15  C   UNL     1      32.751  -9.427 -22.928  0.00  0.00    +0.052 C 
ATOM     16  C   UNL     1      32.281  -7.998 -21.038  0.00  0.00    +0.083 C 
ATOM     17  C   UNL     1      32.887  -9.137 -21.571  0.00  0.00    +0.019 C 
ATOM     18  C   UNL     1      32.010  -8.580 -23.752  0.00  0.00    +0.016 C 
ATOM     19  C   UNL     1      31.542  -7.151 -21.862  0.00  0.00    +0.062 C 
ATOM     20  C   UNL     1      31.405  -7.442 -23.219  0.00  0.00    +0.013 C 
BRANCH  16  24
ATOM     21  F   UNL     1      33.284  -6.671 -19.319  0.00  0.00    -0.166 F 
ATOM     22  F   UNL     1      31.285  -7.423 -18.940  0.00  0.00    -0.166 F 
ATOM     23  F   UNL     1      32.981  -8.784 -18.906  0.00  0.00    -0.166 F 
ATOM     24  C   UNL     1      32.454  -7.721 -19.579  0.00  0.00    +0.419 C 
ENDBRANCH  16  24
ENDBRANCH   9  15
ENDBRANCH   2  10
BRANCH   3  25
ATOM     25  O   UNL     1      34.703 -18.234 -23.488  0.00  0.00    -0.453 OA
BRANCH  25  27
ATOM     26  N   UNL     1      35.869 -19.805 -19.822  0.00  0.00    -0.239 NA
ATOM     27  C   UNL     1      35.090 -18.757 -22.266  0.00  0.00    +0.149 C 
ATOM     28  C   UNL     1      34.193 -19.507 -21.538  0.00  0.00    +0.061 C 
ATOM     29  C   UNL     1      34.630 -20.010 -20.323  0.00  0.00    +0.137 C 
ATOM     30  C   UNL     1      36.368 -18.516 -21.806  0.00  0.00    +0.058 C 
ATOM     31  C   UNL     1      36.707 -19.062 -20.579  0.00  0.00    +0.102 C 
BRANCH  29  34
ATOM     32  O   UNL     1      32.514 -20.602 -19.505  0.00  0.00    -0.268 OA
ATOM     33  N   UNL     1      34.326 -21.822 -18.728  0.00  0.00    -0.298 N 
ATOM     34  C   UNL     1      33.741 -20.810 -19.498  0.00  0.00    +0.264 C 
ATOM     35  C   UNL     1      33.574 -22.716 -17.876  0.00  0.00    +0.111 C 
ATOM     36  H   UNL     1      35.304 -21.932 -18.768  0.00  0.00    +0.150 HD
ENDBRANCH  29  34
ENDBRANCH  25  27
ENDBRANCH   3  25
TORSDOF 6
ENDMDL
MODEL 6
REMARK VINA RESULT:     -12.3      5.773      9.821
REMARK  Name = 11167602
REMARK  6 active torsions:
REMARK  status: ('A' for Active; 'I' for Inactive)
REMARK    1  A    between atoms: C_2  and  N_10
REMARK    2  A    between atoms: C_3  and  O_25
REMARK    3  A    between atoms: N_9  and  C_15
REMARK    4  A    between atoms: C_16  and  C_24
REMARK    5  A    between atoms: O_25  and  C_27
REMARK    6  A    between atoms: C_29  and  C_34
REMARK                            x       y       z     vdW  Elec       q    Type
REMARK                         _______ _______ _______ _____ _____    ______ ____
ROOT
ATOM      1  F   UNL     1      33.287 -14.190 -25.712  0.00  0.00    -0.203 F 
ATOM      2  C   UNL     1      34.307 -14.008 -23.576  0.00  0.00    +0.079 C 
ATOM      3  C   UNL     1      34.553 -16.765 -23.480  0.00  0.00    +0.148 C 
ATOM      4  C   UNL     1      33.847 -14.766 -24.640  0.00  0.00    +0.157 C 
ATOM      5  C   UNL     1      34.888 -14.599 -22.466  0.00  0.00    +0.020 C 
ATOM      6  C   UNL     1      33.971 -16.154 -24.592  0.00  0.00    +0.068 C 
ATOM      7  C   UNL     1      35.011 -15.987 -22.417  0.00  0.00    +0.039 C 
ENDROOT
BRANCH   2  10
ATOM      8  O   UNL     1      32.507 -12.177 -22.048  0.00  0.00    -0.252 OA
ATOM      9  N   UNL     1      33.514 -10.423 -23.230  0.00  0.00    -0.268 N 
ATOM     10  N   UNL     1      34.184 -12.599 -23.622  0.00  0.00    -0.266 N 
ATOM     11  C   UNL     1      33.317 -11.781 -22.879  0.00  0.00    +0.308 C 
ATOM     12  H   UNL     1      34.201 -10.254 -23.914  0.00  0.00    +0.156 HD
ATOM     13  H   UNL     1      34.780 -12.135 -24.254  0.00  0.00    +0.156 HD
BRANCH   9  15
ATOM     14 CL   UNL     1      30.743  -5.658 -21.095  0.00  0.00    -0.082 Cl
ATOM     15  C   UNL     1      32.864  -9.293 -22.733  0.00  0.00    +0.052 C 
ATOM     16  C   UNL     1      32.294  -6.953 -22.924  0.00  0.00    +0.083 C 
ATOM     17  C   UNL     1      32.945  -8.083 -23.422  0.00  0.00    +0.019 C 
ATOM     18  C   UNL     1      32.134  -9.374 -21.547  0.00  0.00    +0.016 C 
ATOM     19  C   UNL     1      31.563  -7.035 -21.740  0.00  0.00    +0.062 C 
ATOM     20  C   UNL     1      31.483  -8.244 -21.051  0.00  0.00    +0.013 C 
BRANCH  16  24
ATOM     21  F   UNL     1      31.214  -5.248 -24.208  0.00  0.00    -0.166 F 
ATOM     22  F   UNL     1      32.870  -4.631 -22.951  0.00  0.00    -0.166 F 
ATOM     23  F   UNL     1      33.249  -5.780 -24.758  0.00  0.00    -0.166 F 
ATOM     24  C   UNL     1      32.402  -5.676 -23.694  0.00  0.00    +0.419 C 
ENDBRANCH  16  24
ENDBRANCH   9  15
ENDBRANCH   2  10
BRANCH   3  25
ATOM     25  O   UNL     1      34.674 -18.120 -23.433  0.00  0.00    -0.453 OA
BRANCH  25  27
ATOM     26  N   UNL     1      35.897 -19.828 -19.847  0.00  0.00    -0.239 NA
ATOM     27  C   UNL     1      35.080 -18.689 -22.238  0.00  0.00    +0.149 C 
ATOM     28  C   UNL     1      34.185 -19.442 -21.510  0.00  0.00    +0.061 C 
ATOM     29  C   UNL     1      34.641 -19.991 -20.322  0.00  0.00    +0.137 C 
ATOM     30  C   UNL     1      36.373 -18.488 -21.803  0.00  0.00    +0.058 C 
ATOM     31  C   UNL     1      36.732 -19.078 -20.602  0.00  0.00    +0.102 C 
BRANCH  29  34
ATOM     32  O   UNL     1      32.528 -20.596 -19.508  0.00  0.00    -0.268 OA
ATOM     33  N   UNL     1      34.346 -21.808 -18.731  0.00  0.00    -0.298 N 
ATOM     34  C   UNL     1      33.757 -20.797 -19.500  0.00  0.00    +0.264 C 
ATOM     35  C   UNL     1      33.599 -22.707 -17.882  0.00  0.00    +0.111 C 
ATOM     36  H   UNL     1      35.325 -21.911 -18.770  0.00  0.00    +0.150 HD
ENDBRANCH  29  34
ENDBRANCH  25  27
ENDBRANCH   3  25
TORSDOF 6
ENDMDL
MODEL 7
REMARK VINA RESULT:     -12.3      2.869      4.507
REMARK  Name = 11167602
REMARK  6 active torsions:
REMARK  status: ('A' for Active; 'I' for Inactive)
REMARK    1  A    between atoms: C_2  and  N_10
REMARK    2  A    between atoms: C_3  and  O_25
REMARK    3  A    between atoms: N_9  and  C_15
REMARK    4  A    between atoms: C_16  and  C_24
REMARK    5  A    between atoms: O_25  and  C_27
REMARK    6  A    between atoms: C_29  and  C_34
REMARK                            x       y       z     vdW  Elec       q    Type
REMARK                         _______ _______ _______ _____ _____    ______ ____
ROOT
ATOM      1  F   UNL     1      37.126 -20.944 -17.570  0.00  0.00    -0.203 F 
ATOM      2  C   UNL     1      35.134 -21.608 -18.677  0.00  0.00    +0.079 C 
ATOM      3  C   UNL     1      34.453 -23.152 -16.480  0.00  0.00    +0.148 C 
ATOM      4  C   UNL     1      35.983 -21.643 -17.584  0.00  0.00    +0.157 C 
ATOM      5  C   UNL     1      33.950 -22.328 -18.694  0.00  0.00    +0.020 C 
ATOM      6  C   UNL     1      35.641 -22.420 -16.478  0.00  0.00    +0.068 C 
ATOM      7  C   UNL     1      33.608 -23.107 -17.589  0.00  0.00    +0.039 C 
ENDROOT
BRANCH   2  10
ATOM      8  O   UNL     1      33.551 -19.537 -20.136  0.00  0.00    -0.252 OA
ATOM      9  N   UNL     1      35.415 -19.296 -21.535  0.00  0.00    -0.268 N 
ATOM     10  N   UNL     1      35.477 -20.819 -19.800  0.00  0.00    -0.266 N 
ATOM     11  C   UNL     1      34.693 -19.855 -20.452  0.00  0.00    +0.308 C 
ATOM     12  H   UNL     1      36.324 -19.649 -21.669  0.00  0.00    +0.156 HD
ATOM     13  H   UNL     1      36.378 -20.966 -20.170  0.00  0.00    +0.156 HD
BRANCH   9  15
ATOM     14 CL   UNL     1      33.692 -15.153 -25.384  0.00  0.00    -0.082 Cl
ATOM     15  C   UNL     1      35.008 -18.311 -22.436  0.00  0.00    +0.052 C 
ATOM     16  C   UNL     1      34.526 -15.996 -22.930  0.00  0.00    +0.083 C 
ATOM     17  C   UNL     1      34.933 -16.980 -22.028  0.00  0.00    +0.019 C 
ATOM     18  C   UNL     1      34.678 -18.659 -23.746  0.00  0.00    +0.016 C 
ATOM     19  C   UNL     1      34.197 -16.344 -24.239  0.00  0.00    +0.062 C 
ATOM     20  C   UNL     1      34.272 -17.675 -24.647  0.00  0.00    +0.013 C 
BRANCH  16  24
ATOM     21  F   UNL     1      34.985 -14.401 -21.207  0.00  0.00    -0.166 F 
ATOM     22  F   UNL     1      35.133 -13.705 -23.256  0.00  0.00    -0.166 F 
ATOM     23  F   UNL     1      33.182 -14.112 -22.387  0.00  0.00    -0.166 F 
ATOM     24  C   UNL     1      34.461 -14.581 -22.454  0.00  0.00    +0.419 C 
ENDBRANCH  16  24
ENDBRANCH   9  15
ENDBRANCH   2  10
BRANCH   3  25
ATOM     25  O   UNL     1      34.119 -23.912 -15.401  0.00  0.00    -0.453 OA
BRANCH  25  27
ATOM     26  N   UNL     1      30.505 -23.106 -13.514  0.00  0.00    -0.239 NA
ATOM     27  C   UNL     1      32.915 -23.642 -14.773  0.00  0.00    +0.149 C 
ATOM     28  C   UNL     1      31.816 -23.310 -15.535  0.00  0.00    +0.061 C 
ATOM     29  C   UNL     1      30.634 -23.051 -14.859  0.00  0.00    +0.137 C 
ATOM     30  C   UNL     1      32.842 -23.713 -13.398  0.00  0.00    +0.058 C 
ATOM     31  C   UNL     1      31.615 -23.435 -12.817  0.00  0.00    +0.102 C 
BRANCH  29  34
ATOM     32  O   UNL     1      29.481 -22.479 -16.819  0.00  0.00    -0.268 OA
ATOM     33  N   UNL     1      28.237 -22.633 -14.868  0.00  0.00    -0.298 N 
ATOM     34  C   UNL     1      29.432 -22.696 -15.594  0.00  0.00    +0.264 C 
ATOM     35  C   UNL     1      26.957 -22.316 -15.459  0.00  0.00    +0.111 C 
ATOM     36  H   UNL     1      28.270 -22.813 -13.901  0.00  0.00    +0.150 HD
ENDBRANCH  29  34
ENDBRANCH  25  27
ENDBRANCH   3  25
TORSDOF 6
ENDMDL
MODEL 8
REMARK VINA RESULT:     -12.2      4.735     11.725
REMARK  Name = 11167602
REMARK  6 active torsions:
REMARK  status: ('A' for Active; 'I' for Inactive)
REMARK    1  A    between atoms: C_2  and  N_10
REMARK    2  A    between atoms: C_3  and  O_25
REMARK    3  A    between atoms: N_9  and  C_15
REMARK    4  A    between atoms: C_16  and  C_24
REMARK    5  A    between atoms: O_25  and  C_27
REMARK    6  A    between atoms: C_29  and  C_34
REMARK                            x       y       z     vdW  Elec       q    Type
REMARK                         _______ _______ _______ _____ _____    ______ ____
ROOT
ATOM      1  F   UNL     1      33.291 -20.871 -19.875  0.00  0.00    -0.203 F 
ATOM      2  C   UNL     1      35.616 -20.569 -19.496  0.00  0.00    +0.079 C 
ATOM      3  C   UNL     1      35.658 -18.607 -21.451  0.00  0.00    +0.148 C 
ATOM      4  C   UNL     1      34.443 -20.249 -20.161  0.00  0.00    +0.157 C 
ATOM      5  C   UNL     1      36.809 -19.927 -19.788  0.00  0.00    +0.020 C 
ATOM      6  C   UNL     1      34.464 -19.261 -21.145  0.00  0.00    +0.068 C 
ATOM      7  C   UNL     1      36.830 -18.940 -20.773  0.00  0.00    +0.039 C 
ENDROOT
BRANCH   2  10
ATOM      8  O   UNL     1      37.081 -20.726 -16.898  0.00  0.00    -0.252 OA
ATOM      9  N   UNL     1      36.005 -22.782 -16.573  0.00  0.00    -0.268 N 
ATOM     10  N   UNL     1      35.597 -21.570 -18.496  0.00  0.00    -0.266 N 
ATOM     11  C   UNL     1      36.309 -21.597 -17.287  0.00  0.00    +0.308 C 
ATOM     12  H   UNL     1      35.366 -23.390 -17.009  0.00  0.00    +0.156 HD
ATOM     13  H   UNL     1      35.013 -22.343 -18.671  0.00  0.00    +0.156 HD
BRANCH   9  15
ATOM     14 CL   UNL     1      38.103 -24.564 -11.342  0.00  0.00    -0.082 Cl
ATOM     15  C   UNL     1      36.492 -23.201 -15.334  0.00  0.00    +0.052 C 
ATOM     16  C   UNL     1      36.112 -23.735 -13.009  0.00  0.00    +0.083 C 
ATOM     17  C   UNL     1      35.625 -23.316 -14.247  0.00  0.00    +0.019 C 
ATOM     18  C   UNL     1      37.844 -23.504 -15.183  0.00  0.00    +0.016 C 
ATOM     19  C   UNL     1      37.465 -24.040 -12.859  0.00  0.00    +0.062 C 
ATOM     20  C   UNL     1      38.331 -23.924 -13.945  0.00  0.00    +0.013 C 
BRANCH  16  24
ATOM     21  F   UNL     1      33.863 -23.560 -12.215  0.00  0.00    -0.166 F 
ATOM     22  F   UNL     1      35.105 -25.096 -11.318  0.00  0.00    -0.166 F 
ATOM     23  F   UNL     1      35.456 -23.002 -10.845  0.00  0.00    -0.166 F 
ATOM     24  C   UNL     1      35.151 -23.848 -11.870  0.00  0.00    +0.419 C 
ENDBRANCH  16  24
ENDBRANCH   9  15
ENDBRANCH   2  10
BRANCH   3  25
ATOM     25  O   UNL     1      35.679 -17.642 -22.412  0.00  0.00    -0.453 OA
BRANCH  25  27
ATOM     26  N   UNL     1      34.325 -13.854 -21.370  0.00  0.00    -0.239 NA
ATOM     27  C   UNL     1      35.228 -16.379 -22.065  0.00  0.00    +0.149 C 
ATOM     28  C   UNL     1      34.912 -15.480 -23.060  0.00  0.00    +0.061 C 
ATOM     29  C   UNL     1      34.464 -14.230 -22.662  0.00  0.00    +0.137 C 
ATOM     30  C   UNL     1      35.106 -16.051 -20.732  0.00  0.00    +0.058 C 
ATOM     31  C   UNL     1      34.651 -14.776 -20.437  0.00  0.00    +0.102 C 
BRANCH  29  34
ATOM     32  O   UNL     1      33.553 -13.559 -24.715  0.00  0.00    -0.268 OA
ATOM     33  N   UNL     1      34.404 -11.895 -23.342  0.00  0.00    -0.298 N 
ATOM     34  C   UNL     1      34.111 -13.228 -23.652  0.00  0.00    +0.264 C 
ATOM     35  C   UNL     1      34.094 -10.784 -24.212  0.00  0.00    +0.111 C 
ATOM     36  H   UNL     1      34.847 -11.703 -22.484  0.00  0.00    +0.150 HD
ENDBRANCH  29  34
ENDBRANCH  25  27
ENDBRANCH   3  25
TORSDOF 6
ENDMDL
MODEL 9
REMARK VINA RESULT:     -11.9      4.665     11.745
REMARK  Name = 11167602
REMARK  6 active torsions:
REMARK  status: ('A' for Active; 'I' for Inactive)
REMARK    1  A    between atoms: C_2  and  N_10
REMARK    2  A    between atoms: C_3  and  O_25
REMARK    3  A    between atoms: N_9  and  C_15
REMARK    4  A    between atoms: C_16  and  C_24
REMARK    5  A    between atoms: O_25  and  C_27
REMARK    6  A    between atoms: C_29  and  C_34
REMARK                            x       y       z     vdW  Elec       q    Type
REMARK                         _______ _______ _______ _____ _____    ______ ____
ROOT
ATOM      1  F   UNL     1      36.217 -16.827 -21.930  0.00  0.00    -0.203 F 
ATOM      2  C   UNL     1      34.849 -18.444 -23.003  0.00  0.00    +0.079 C 
ATOM      3  C   UNL     1      33.906 -16.480 -24.713  0.00  0.00    +0.148 C 
ATOM      4  C   UNL     1      35.317 -17.147 -22.869  0.00  0.00    +0.157 C 
ATOM      5  C   UNL     1      33.920 -18.779 -23.974  0.00  0.00    +0.020 C 
ATOM      6  C   UNL     1      34.843 -16.158 -23.731  0.00  0.00    +0.068 C 
ATOM      7  C   UNL     1      33.444 -17.790 -24.835  0.00  0.00    +0.039 C 
ENDROOT
BRANCH   2  10
ATOM      8  O   UNL     1      34.194 -18.990 -20.140  0.00  0.00    -0.252 OA
ATOM      9  N   UNL     1      35.699 -20.780 -20.280  0.00  0.00    -0.268 N 
ATOM     10  N   UNL     1      35.329 -19.450 -22.132  0.00  0.00    -0.266 N 
ATOM     11  C   UNL     1      34.989 -19.664 -20.787  0.00  0.00    +0.308 C 
ATOM     12  H   UNL     1      36.303 -21.227 -20.916  0.00  0.00    +0.156 HD
ATOM     13  H   UNL     1      35.984 -20.076 -22.517  0.00  0.00    +0.156 HD
BRANCH   9  15
ATOM     14 CL   UNL     1      35.553 -23.109 -14.849  0.00  0.00    -0.082 Cl
ATOM     15  C   UNL     1      35.654 -21.332 -18.999  0.00  0.00    +0.052 C 
ATOM     16  C   UNL     1      34.429 -22.450 -17.243  0.00  0.00    +0.083 C 
ATOM     17  C   UNL     1      34.472 -21.899 -18.524  0.00  0.00    +0.019 C 
ATOM     18  C   UNL     1      36.793 -21.315 -18.194  0.00  0.00    +0.016 C 
ATOM     19  C   UNL     1      35.568 -22.434 -16.439  0.00  0.00    +0.062 C 
ATOM     20  C   UNL     1      36.750 -21.866 -16.913  0.00  0.00    +0.013 C 
BRANCH  16  24
ATOM     21  F   UNL     1      32.038 -22.469 -17.320  0.00  0.00    -0.166 F 
ATOM     22  F   UNL     1      33.029 -24.381 -17.056  0.00  0.00    -0.166 F 
ATOM     23  F   UNL     1      32.984 -22.947 -15.422  0.00  0.00    -0.166 F 
ATOM     24  C   UNL     1      33.144 -23.051 -16.772  0.00  0.00    +0.419 C 
ENDBRANCH  16  24
ENDBRANCH   9  15
ENDBRANCH   2  10
BRANCH   3  25
ATOM     25  O   UNL     1      33.442 -15.514 -25.554  0.00  0.00    -0.453 OA
BRANCH  25  27
ATOM     26  N   UNL     1      33.304 -11.614 -24.126  0.00  0.00    -0.239 NA
ATOM     27  C   UNL     1      33.395 -14.215 -25.078  0.00  0.00    +0.149 C 
ATOM     28  C   UNL     1      33.073 -13.992 -23.757  0.00  0.00    +0.061 C 
ATOM     29  C   UNL     1      33.041 -12.674 -23.329  0.00  0.00    +0.137 C 
ATOM     30  C   UNL     1      33.673 -13.173 -25.937  0.00  0.00    +0.058 C 
ATOM     31  C   UNL     1      33.613 -11.892 -25.413  0.00  0.00    +0.102 C 
BRANCH  29  34
ATOM     32  O   UNL     1      32.946 -13.176 -21.041  0.00  0.00    -0.268 OA
ATOM     33  N   UNL     1      32.144 -11.102 -21.702  0.00  0.00    -0.298 N 
ATOM     34  C   UNL     1      32.710 -12.359 -21.950  0.00  0.00    +0.264 C 
ATOM     35  C   UNL     1      31.782 -10.634 -20.384  0.00  0.00    +0.111 C 
ATOM     36  H   UNL     1      31.983 -10.506 -22.468  0.00  0.00    +0.150 HD
ENDBRANCH  29  34
ENDBRANCH  25  27
ENDBRANCH   3  25
TORSDOF 6
ENDMDL
