MODEL 1
REMARK VINA RESULT:     -12.7      0.000      0.000
REMARK  Name = 66555680
REMARK  4 active torsions:
REMARK  status: ('A' for Active; 'I' for Inactive)
REMARK    1  A    between atoms: N_1  and  C_8
REMARK    2  A    between atoms: C_3  and  C_22
REMARK    3  A    between atoms: C_4  and  N_18
REMARK    4  A    between atoms: C_22  and  C_24
REMARK                            x       y       z     vdW  Elec       q    Type
REMARK                         _______ _______ _______ _____ _____    ______ ____
ROOT
ATOM      1  N   UNL     1      34.350 -15.002 -22.438  0.00  0.00    -0.177 N 
ATOM      2  N   UNL     1      34.399 -15.477 -23.695  0.00  0.00    -0.171 NA
ATOM      3  C   UNL     1      35.434 -16.887 -22.226  0.00  0.00    +0.090 C 
ATOM      4  C   UNL     1      34.956 -15.810 -21.520  0.00  0.00    +0.122 C 
ATOM      5  C   UNL     1      35.063 -16.628 -23.559  0.00  0.00    +0.124 C 
ENDROOT
BRANCH   1   8
ATOM      6  N   UNL     1      33.333 -10.263 -23.316  0.00  0.00    -0.318 N 
ATOM      7  N   UNL     1      31.925 -10.085 -21.604  0.00  0.00    -0.318 N 
ATOM      8  C   UNL     1      33.715 -13.784 -22.189  0.00  0.00    +0.077 C 
ATOM      9  C   UNL     1      33.315 -11.501 -22.726  0.00  0.00    +0.060 C 
ATOM     10  C   UNL     1      33.977 -12.692 -23.023  0.00  0.00    +0.032 C 
ATOM     11  C   UNL     1      32.430 -11.364 -21.661  0.00  0.00    +0.059 C 
ATOM     12  C   UNL     1      32.832 -13.677 -21.112  0.00  0.00    +0.018 C 
ATOM     13  C   UNL     1      32.179 -12.471 -20.832  0.00  0.00    +0.017 C 
ATOM     14  C   UNL     1      32.487  -9.453 -22.610  0.00  0.00    +0.144 C 
ATOM     15  C   UNL     1      32.280  -8.044 -22.993  0.00  0.00    +0.044 C 
ATOM     16  H   UNL     1      33.859 -10.005 -24.107  0.00  0.00    +0.148 HD
ATOM     17  H   UNL     1      31.283  -9.722 -20.952  0.00  0.00    +0.148 HD
ENDBRANCH   1   8
BRANCH   4  18
ATOM     18  N   UNL     1      35.003 -15.494 -20.208  0.00  0.00    -0.344 N 
ATOM     19  H   UNL     1      34.194 -15.174 -19.748  0.00  0.00    +0.144 HD
ATOM     20  H   UNL     1      35.848 -15.584 -19.711  0.00  0.00    +0.144 HD
ENDBRANCH   4  18
BRANCH   3  22
ATOM     21  O   UNL     1      37.403 -18.120 -21.954  0.00  0.00    -0.285 OA
ATOM     22  C   UNL     1      36.186 -18.066 -21.661  0.00  0.00    +0.213 C 
BRANCH  22  24
ATOM     23  N   UNL     1      36.270 -19.891 -20.002  0.00  0.00    -0.310 N 
ATOM     24  C   UNL     1      35.574 -19.067 -20.846  0.00  0.00    +0.088 C 
ATOM     25  C   UNL     1      35.406 -20.747 -19.356  0.00  0.00    +0.048 C 
ATOM     26  C   UNL     1      34.119 -20.451 -19.808  0.00  0.00    +0.015 C 
ATOM     27  C   UNL     1      34.240 -19.389 -20.748  0.00  0.00    +0.019 C 
ATOM     28  C   UNL     1      35.664 -21.749 -18.415  0.00  0.00    +0.015 C 
ATOM     29  C   UNL     1      33.034 -21.191 -19.297  0.00  0.00    +0.001 C 
ATOM     30  C   UNL     1      34.573 -22.470 -17.922  0.00  0.00    +0.001 C 
ATOM     31  C   UNL     1      33.277 -22.196 -18.355  0.00  0.00    +0.000 C 
ATOM     32  H   UNL     1      37.246 -19.874 -19.877  0.00  0.00    +0.152 HD
ENDBRANCH  22  24
ENDBRANCH   3  22
TORSDOF 4
ENDMDL
MODEL 2
REMARK VINA RESULT:     -12.4      3.534      5.886
REMARK  Name = 66555680
REMARK  4 active torsions:
REMARK  status: ('A' for Active; 'I' for Inactive)
REMARK    1  A    between atoms: N_1  and  C_8
REMARK    2  A    between atoms: C_3  and  C_22
REMARK    3  A    between atoms: C_4  and  N_18
REMARK    4  A    between atoms: C_22  and  C_24
REMARK                            x       y       z     vdW  Elec       q    Type
REMARK                         _______ _______ _______ _____ _____    ______ ____
ROOT
ATOM      1  N   UNL     1      35.213 -19.761 -20.219  0.00  0.00    -0.177 N 
ATOM      2  N   UNL     1      36.409 -20.122 -19.722  0.00  0.00    -0.171 NA
ATOM      3  C   UNL     1      34.800 -21.671 -19.242  0.00  0.00    +0.090 C 
ATOM      4  C   UNL     1      34.216 -20.655 -19.959  0.00  0.00    +0.122 C 
ATOM      5  C   UNL     1      36.150 -21.290 -19.127  0.00  0.00    +0.124 C 
ENDROOT
BRANCH   1   8
ATOM      6  N   UNL     1      34.359 -17.032 -24.230  0.00  0.00    -0.318 N 
ATOM      7  N   UNL     1      34.708 -15.102 -23.184  0.00  0.00    -0.318 N 
ATOM      8  C   UNL     1      35.097 -18.562 -20.924  0.00  0.00    +0.077 C 
ATOM      9  C   UNL     1      34.661 -17.367 -22.935  0.00  0.00    +0.060 C 
ATOM     10  C   UNL     1      34.762 -18.595 -22.282  0.00  0.00    +0.032 C 
ATOM     11  C   UNL     1      34.874 -16.146 -22.303  0.00  0.00    +0.059 C 
ATOM     12  C   UNL     1      35.317 -17.351 -20.263  0.00  0.00    +0.018 C 
ATOM     13  C   UNL     1      35.210 -16.130 -20.938  0.00  0.00    +0.017 C 
ATOM     14  C   UNL     1      34.399 -15.669 -24.329  0.00  0.00    +0.144 C 
ATOM     15  C   UNL     1      34.118 -14.986 -25.605  0.00  0.00    +0.044 C 
ATOM     16  H   UNL     1      34.149 -17.661 -24.958  0.00  0.00    +0.148 HD
ATOM     17  H   UNL     1      34.800 -14.140 -22.998  0.00  0.00    +0.148 HD
ENDBRANCH   1   8
BRANCH   4  18
ATOM     18  N   UNL     1      32.948 -20.458 -20.381  0.00  0.00    -0.344 N 
ATOM     19  H   UNL     1      32.608 -20.947 -21.165  0.00  0.00    +0.144 HD
ATOM     20  H   UNL     1      32.363 -19.825 -19.905  0.00  0.00    +0.144 HD
ENDBRANCH   4  18
BRANCH   3  22
ATOM     21  O   UNL     1      34.167 -23.912 -19.459  0.00  0.00    -0.285 OA
ATOM     22  C   UNL     1      34.113 -22.905 -18.715  0.00  0.00    +0.213 C 
BRANCH  22  24
ATOM     23  N   UNL     1      32.086 -22.784 -17.313  0.00  0.00    -0.310 N 
ATOM     24  C   UNL     1      33.437 -22.948 -17.456  0.00  0.00    +0.088 C 
ATOM     25  C   UNL     1      31.735 -22.876 -15.984  0.00  0.00    +0.048 C 
ATOM     26  C   UNL     1      32.909 -23.106 -15.264  0.00  0.00    +0.015 C 
ATOM     27  C   UNL     1      33.975 -23.149 -16.206  0.00  0.00    +0.019 C 
ATOM     28  C   UNL     1      30.481 -22.774 -15.372  0.00  0.00    +0.015 C 
ATOM     29  C   UNL     1      32.830 -23.242 -13.865  0.00  0.00    +0.001 C 
ATOM     30  C   UNL     1      30.428 -22.912 -13.982  0.00  0.00    +0.001 C 
ATOM     31  C   UNL     1      31.583 -23.143 -13.238  0.00  0.00    +0.000 C 
ATOM     32  H   UNL     1      31.456 -22.624 -18.052  0.00  0.00    +0.152 HD
ENDBRANCH  22  24
ENDBRANCH   3  22
TORSDOF 4
ENDMDL
MODEL 3
REMARK VINA RESULT:     -12.2      2.962      5.700
REMARK  Name = 66555680
REMARK  4 active torsions:
REMARK  status: ('A' for Active; 'I' for Inactive)
REMARK    1  A    between atoms: N_1  and  C_8
REMARK    2  A    between atoms: C_3  and  C_22
REMARK    3  A    between atoms: C_4  and  N_18
REMARK    4  A    between atoms: C_22  and  C_24
REMARK                            x       y       z     vdW  Elec       q    Type
REMARK                         _______ _______ _______ _____ _____    ______ ____
ROOT
ATOM      1  N   UNL     1      35.437 -19.563 -20.342  0.00  0.00    -0.177 N 
ATOM      2  N   UNL     1      36.676 -19.827 -19.892  0.00  0.00    -0.171 NA
ATOM      3  C   UNL     1      35.149 -21.311 -19.065  0.00  0.00    +0.090 C 
ATOM      4  C   UNL     1      34.486 -20.422 -19.876  0.00  0.00    +0.122 C 
ATOM      5  C   UNL     1      36.493 -20.897 -19.113  0.00  0.00    +0.124 C 
ENDROOT
BRANCH   1   8
ATOM      6  N   UNL     1      34.753 -14.805 -21.421  0.00  0.00    -0.318 N 
ATOM      7  N   UNL     1      34.635 -15.157 -23.613  0.00  0.00    -0.318 N 
ATOM      8  C   UNL     1      35.237 -18.484 -21.206  0.00  0.00    +0.077 C 
ATOM      9  C   UNL     1      34.913 -16.158 -21.585  0.00  0.00    +0.060 C 
ATOM     10  C   UNL     1      35.113 -17.196 -20.675  0.00  0.00    +0.032 C 
ATOM     11  C   UNL     1      34.835 -16.351 -22.961  0.00  0.00    +0.059 C 
ATOM     12  C   UNL     1      35.163 -18.710 -22.582  0.00  0.00    +0.018 C 
ATOM     13  C   UNL     1      34.962 -17.652 -23.477  0.00  0.00    +0.017 C 
ATOM     14  C   UNL     1      34.591 -14.252 -22.661  0.00  0.00    +0.144 C 
ATOM     15  C   UNL     1      34.394 -12.801 -22.832  0.00  0.00    +0.044 C 
ATOM     16  H   UNL     1      34.756 -14.320 -20.565  0.00  0.00    +0.148 HD
ATOM     17  H   UNL     1      34.544 -15.011 -24.583  0.00  0.00    +0.148 HD
ENDBRANCH   1   8
BRANCH   4  18
ATOM     18  N   UNL     1      33.186 -20.310 -20.223  0.00  0.00    -0.344 N 
ATOM     19  H   UNL     1      32.603 -21.104 -20.217  0.00  0.00    +0.144 HD
ATOM     20  H   UNL     1      32.819 -19.434 -20.483  0.00  0.00    +0.144 HD
ENDBRANCH   4  18
BRANCH   3  22
ATOM     21  O   UNL     1      33.763 -23.193 -18.972  0.00  0.00    -0.285 OA
ATOM     22  C   UNL     1      34.536 -22.463 -18.309  0.00  0.00    +0.213 C 
BRANCH  22  24
ATOM     23  N   UNL     1      33.896 -23.293 -16.075  0.00  0.00    -0.310 N 
ATOM     24  C   UNL     1      34.802 -22.724 -16.929  0.00  0.00    +0.088 C 
ATOM     25  C   UNL     1      34.442 -23.414 -14.817  0.00  0.00    +0.048 C 
ATOM     26  C   UNL     1      35.740 -22.903 -14.880  0.00  0.00    +0.015 C 
ATOM     27  C   UNL     1      35.953 -22.471 -16.220  0.00  0.00    +0.019 C 
ATOM     28  C   UNL     1      33.892 -23.932 -13.639  0.00  0.00    +0.015 C 
ATOM     29  C   UNL     1      36.528 -22.908 -13.714  0.00  0.00    +0.001 C 
ATOM     30  C   UNL     1      34.693 -23.927 -12.494  0.00  0.00    +0.001 C 
ATOM     31  C   UNL     1      35.992 -23.423 -12.529  0.00  0.00    +0.000 C 
ATOM     32  H   UNL     1      32.986 -23.574 -16.324  0.00  0.00    +0.152 HD
ENDBRANCH  22  24
ENDBRANCH   3  22
TORSDOF 4
ENDMDL
MODEL 4
REMARK VINA RESULT:     -12.1      1.952      8.803
REMARK  Name = 66555680
REMARK  4 active torsions:
REMARK  status: ('A' for Active; 'I' for Inactive)
REMARK    1  A    between atoms: N_1  and  C_8
REMARK    2  A    between atoms: C_3  and  C_22
REMARK    3  A    between atoms: C_4  and  N_18
REMARK    4  A    between atoms: C_22  and  C_24
REMARK                            x       y       z     vdW  Elec       q    Type
REMARK                         _______ _______ _______ _____ _____    ______ ____
ROOT
ATOM      1  N   UNL     1      34.633 -18.866 -21.616  0.00  0.00    -0.177 N 
ATOM      2  N   UNL     1      34.258 -19.219 -22.857  0.00  0.00    -0.171 NA
ATOM      3  C   UNL     1      34.827 -17.009 -22.750  0.00  0.00    +0.090 C 
ATOM      4  C   UNL     1      34.983 -17.552 -21.498  0.00  0.00    +0.122 C 
ATOM      5  C   UNL     1      34.380 -18.080 -23.546  0.00  0.00    +0.124 C 
ENDROOT
BRANCH   1   8
ATOM      6  N   UNL     1      32.502 -21.812 -18.293  0.00  0.00    -0.318 N 
ATOM      7  N   UNL     1      34.428 -22.658 -17.574  0.00  0.00    -0.318 N 
ATOM      8  C   UNL     1      34.631 -19.824 -20.600  0.00  0.00    +0.077 C 
ATOM      9  C   UNL     1      33.473 -21.195 -19.038  0.00  0.00    +0.060 C 
ATOM     10  C   UNL     1      33.413 -20.236 -20.050  0.00  0.00    +0.032 C 
ATOM     11  C   UNL     1      34.666 -21.739 -18.571  0.00  0.00    +0.059 C 
ATOM     12  C   UNL     1      35.844 -20.352 -20.152  0.00  0.00    +0.018 C 
ATOM     13  C   UNL     1      35.880 -21.313 -19.135  0.00  0.00    +0.017 C 
ATOM     14  C   UNL     1      33.121 -22.677 -17.433  0.00  0.00    +0.144 C 
ATOM     15  C   UNL     1      32.348 -23.501 -16.487  0.00  0.00    +0.044 C 
ATOM     16  H   UNL     1      31.531 -21.661 -18.365  0.00  0.00    +0.148 HD
ATOM     17  H   UNL     1      35.092 -23.186 -17.075  0.00  0.00    +0.148 HD
ENDBRANCH   1   8
BRANCH   4  18
ATOM     18  N   UNL     1      35.386 -17.020 -20.324  0.00  0.00    -0.344 N 
ATOM     19  H   UNL     1      34.734 -16.579 -19.733  0.00  0.00    +0.144 HD
ATOM     20  H   UNL     1      36.333 -17.071 -20.060  0.00  0.00    +0.144 HD
ENDBRANCH   4  18
BRANCH   3  22
ATOM     21  O   UNL     1      36.037 -15.403 -23.945  0.00  0.00    -0.285 OA
ATOM     22  C   UNL     1      35.089 -15.577 -23.144  0.00  0.00    +0.213 C 
BRANCH  22  24
ATOM     23  N   UNL     1      33.655 -14.491 -21.456  0.00  0.00    -0.310 N 
ATOM     24  C   UNL     1      34.323 -14.476 -22.650  0.00  0.00    +0.088 C 
ATOM     25  C   UNL     1      33.011 -13.290 -21.258  0.00  0.00    +0.048 C 
ATOM     26  C   UNL     1      33.284 -12.489 -22.369  0.00  0.00    +0.015 C 
ATOM     27  C   UNL     1      34.113 -13.251 -23.240  0.00  0.00    +0.019 C 
ATOM     28  C   UNL     1      32.216 -12.855 -20.192  0.00  0.00    +0.015 C 
ATOM     29  C   UNL     1      32.739 -11.191 -22.420  0.00  0.00    +0.001 C 
ATOM     30  C   UNL     1      31.686 -11.565 -20.264  0.00  0.00    +0.001 C 
ATOM     31  C   UNL     1      31.942 -10.743 -21.361  0.00  0.00    +0.000 C 
ATOM     32  H   UNL     1      33.637 -15.249 -20.829  0.00  0.00    +0.152 HD
ENDBRANCH  22  24
ENDBRANCH   3  22
TORSDOF 4
ENDMDL
MODEL 5
REMARK VINA RESULT:     -12.0      2.908      5.743
REMARK  Name = 66555680
REMARK  4 active torsions:
REMARK  status: ('A' for Active; 'I' for Inactive)
REMARK    1  A    between atoms: N_1  and  C_8
REMARK    2  A    between atoms: C_3  and  C_22
REMARK    3  A    between atoms: C_4  and  N_18
REMARK    4  A    between atoms: C_22  and  C_24
REMARK                            x       y       z     vdW  Elec       q    Type
REMARK                         _______ _______ _______ _____ _____    ______ ____
ROOT
ATOM      1  N   UNL     1      35.287 -19.783 -20.230  0.00  0.00    -0.177 N 
ATOM      2  N   UNL     1      36.450 -20.109 -19.639  0.00  0.00    -0.171 NA
ATOM      3  C   UNL     1      34.833 -21.668 -19.222  0.00  0.00    +0.090 C 
ATOM      4  C   UNL     1      34.286 -20.684 -20.011  0.00  0.00    +0.122 C 
ATOM      5  C   UNL     1      36.166 -21.261 -19.026  0.00  0.00    +0.124 C 
ENDROOT
BRANCH   1   8
ATOM      6  N   UNL     1      34.641 -14.938 -20.836  0.00  0.00    -0.318 N 
ATOM      7  N   UNL     1      34.917 -15.017 -23.041  0.00  0.00    -0.318 N 
ATOM      8  C   UNL     1      35.203 -18.609 -20.980  0.00  0.00    +0.077 C 
ATOM      9  C   UNL     1      34.872 -16.257 -21.129  0.00  0.00    +0.060 C 
ATOM     10  C   UNL     1      34.945 -17.398 -20.329  0.00  0.00    +0.032 C 
ATOM     11  C   UNL     1      35.041 -16.281 -22.510  0.00  0.00    +0.059 C 
ATOM     12  C   UNL     1      35.377 -18.664 -22.364  0.00  0.00    +0.018 C 
ATOM     13  C   UNL     1      35.299 -17.506 -23.148  0.00  0.00    +0.017 C 
ATOM     14  C   UNL     1      34.678 -14.237 -22.010  0.00  0.00    +0.144 C 
ATOM     15  C   UNL     1      34.465 -12.779 -22.038  0.00  0.00    +0.044 C 
ATOM     16  H   UNL     1      34.479 -14.562 -19.941  0.00  0.00    +0.148 HD
ATOM     17  H   UNL     1      34.991 -14.754 -23.986  0.00  0.00    +0.148 HD
ENDBRANCH   1   8
BRANCH   4  18
ATOM     18  N   UNL     1      33.048 -20.522 -20.526  0.00  0.00    -0.344 N 
ATOM     19  H   UNL     1      32.878 -20.727 -21.474  0.00  0.00    +0.144 HD
ATOM     20  H   UNL     1      32.316 -20.198 -19.954  0.00  0.00    +0.144 HD
ENDBRANCH   4  18
BRANCH   3  22
ATOM     21  O   UNL     1      34.172 -23.900 -19.453  0.00  0.00    -0.285 OA
ATOM     22  C   UNL     1      34.128 -22.896 -18.704  0.00  0.00    +0.213 C 
BRANCH  22  24
ATOM     23  N   UNL     1      32.095 -22.773 -17.311  0.00  0.00    -0.310 N 
ATOM     24  C   UNL     1      33.448 -22.937 -17.448  0.00  0.00    +0.088 C 
ATOM     25  C   UNL     1      31.739 -22.863 -15.983  0.00  0.00    +0.048 C 
ATOM     26  C   UNL     1      32.910 -23.092 -15.258  0.00  0.00    +0.015 C 
ATOM     27  C   UNL     1      33.980 -23.136 -16.195  0.00  0.00    +0.019 C 
ATOM     28  C   UNL     1      30.483 -22.760 -15.376  0.00  0.00    +0.015 C 
ATOM     29  C   UNL     1      32.825 -23.225 -13.859  0.00  0.00    +0.001 C 
ATOM     30  C   UNL     1      30.423 -22.896 -13.987  0.00  0.00    +0.001 C 
ATOM     31  C   UNL     1      31.575 -23.125 -13.237  0.00  0.00    +0.000 C 
ATOM     32  H   UNL     1      31.469 -22.614 -18.053  0.00  0.00    +0.152 HD
ENDBRANCH  22  24
ENDBRANCH   3  22
TORSDOF 4
ENDMDL
MODEL 6
REMARK VINA RESULT:     -11.8      1.918      2.695
REMARK  Name = 66555680
REMARK  4 active torsions:
REMARK  status: ('A' for Active; 'I' for Inactive)
REMARK    1  A    between atoms: N_1  and  C_8
REMARK    2  A    between atoms: C_3  and  C_22
REMARK    3  A    between atoms: C_4  and  N_18
REMARK    4  A    between atoms: C_22  and  C_24
REMARK                            x       y       z     vdW  Elec       q    Type
REMARK                         _______ _______ _______ _____ _____    ______ ____
ROOT
ATOM      1  N   UNL     1      33.116 -13.371 -23.319  0.00  0.00    -0.177 N 
ATOM      2  N   UNL     1      32.637 -13.412 -24.574  0.00  0.00    -0.171 NA
ATOM      3  C   UNL     1      34.015 -15.182 -24.145  0.00  0.00    +0.090 C 
ATOM      4  C   UNL     1      33.947 -14.409 -23.011  0.00  0.00    +0.122 C 
ATOM      5  C   UNL     1      33.190 -14.521 -25.073  0.00  0.00    +0.124 C 
ENDROOT
BRANCH   1   8
ATOM      6  N   UNL     1      32.809  -8.639 -21.986  0.00  0.00    -0.318 N 
ATOM      7  N   UNL     1      31.721  -9.078 -20.097  0.00  0.00    -0.318 N 
ATOM      8  C   UNL     1      32.744 -12.323 -22.475  0.00  0.00    +0.077 C 
ATOM      9  C   UNL     1      32.666 -10.003 -21.953  0.00  0.00    +0.060 C 
ATOM     10  C   UNL     1      33.063 -11.009 -22.834  0.00  0.00    +0.032 C 
ATOM     11  C   UNL     1      31.984 -10.251 -20.766  0.00  0.00    +0.059 C 
ATOM     12  C   UNL     1      32.061 -12.603 -21.290  0.00  0.00    +0.018 C 
ATOM     13  C   UNL     1      31.672 -11.577 -20.421  0.00  0.00    +0.017 C 
ATOM     14  C   UNL     1      32.228  -8.132 -20.856  0.00  0.00    +0.144 C 
ATOM     15  C   UNL     1      32.212  -6.683 -20.588  0.00  0.00    +0.044 C 
ATOM     16  H   UNL     1      33.249  -8.118 -22.695  0.00  0.00    +0.148 HD
ATOM     17  H   UNL     1      31.254  -8.970 -19.237  0.00  0.00    +0.148 HD
ENDBRANCH   1   8
BRANCH   4  18
ATOM     18  N   UNL     1      34.522 -14.533 -21.796  0.00  0.00    -0.344 N 
ATOM     19  H   UNL     1      34.996 -15.362 -21.557  0.00  0.00    +0.144 HD
ATOM     20  H   UNL     1      34.466 -13.794 -21.147  0.00  0.00    +0.144 HD
ENDBRANCH   4  18
BRANCH   3  22
ATOM     21  O   UNL     1      35.269 -16.650 -25.466  0.00  0.00    -0.285 OA
ATOM     22  C   UNL     1      34.810 -16.453 -24.316  0.00  0.00    +0.213 C 
BRANCH  22  24
ATOM     23  N   UNL     1      36.198 -17.447 -22.535  0.00  0.00    -0.310 N 
ATOM     24  C   UNL     1      35.036 -17.384 -23.257  0.00  0.00    +0.088 C 
ATOM     25  C   UNL     1      36.114 -18.443 -21.587  0.00  0.00    +0.048 C 
ATOM     26  C   UNL     1      34.854 -19.029 -21.717  0.00  0.00    +0.015 C 
ATOM     27  C   UNL     1      34.184 -18.350 -22.774  0.00  0.00    +0.019 C 
ATOM     28  C   UNL     1      37.049 -18.865 -20.636  0.00  0.00    +0.015 C 
ATOM     29  C   UNL     1      34.506 -20.087 -20.855  0.00  0.00    +0.001 C 
ATOM     30  C   UNL     1      36.682 -19.916 -19.792  0.00  0.00    +0.001 C 
ATOM     31  C   UNL     1      35.431 -20.520 -19.898  0.00  0.00    +0.000 C 
ATOM     32  H   UNL     1      36.979 -16.865 -22.673  0.00  0.00    +0.152 HD
ENDBRANCH  22  24
ENDBRANCH   3  22
TORSDOF 4
ENDMDL
MODEL 7
REMARK VINA RESULT:     -11.7      1.294      2.397
REMARK  Name = 66555680
REMARK  4 active torsions:
REMARK  status: ('A' for Active; 'I' for Inactive)
REMARK    1  A    between atoms: N_1  and  C_8
REMARK    2  A    between atoms: C_3  and  C_22
REMARK    3  A    between atoms: C_4  and  N_18
REMARK    4  A    between atoms: C_22  and  C_24
REMARK                            x       y       z     vdW  Elec       q    Type
REMARK                         _______ _______ _______ _____ _____    ______ ____
ROOT
ATOM      1  N   UNL     1      34.211 -13.761 -22.103  0.00  0.00    -0.177 N 
ATOM      2  N   UNL     1      34.564 -13.989 -20.826  0.00  0.00    -0.171 NA
ATOM      3  C   UNL     1      34.741 -15.880 -22.095  0.00  0.00    +0.090 C 
ATOM      4  C   UNL     1      34.299 -14.862 -22.904  0.00  0.00    +0.122 C 
ATOM      5  C   UNL     1      34.887 -15.285 -20.828  0.00  0.00    +0.124 C 
ENDROOT
BRANCH   1   8
ATOM      6  N   UNL     1      31.570  -9.626 -21.667  0.00  0.00    -0.318 N 
ATOM      7  N   UNL     1      32.467  -8.676 -23.465  0.00  0.00    -0.318 N 
ATOM      8  C   UNL     1      33.804 -12.481 -22.485  0.00  0.00    +0.077 C 
ATOM      9  C   UNL     1      32.466 -10.542 -22.156  0.00  0.00    +0.060 C 
ATOM     10  C   UNL     1      32.835 -11.817 -21.727  0.00  0.00    +0.032 C 
ATOM     11  C   UNL     1      33.013  -9.925 -23.278  0.00  0.00    +0.059 C 
ATOM     12  C   UNL     1      34.370 -11.889 -23.616  0.00  0.00    +0.018 C 
ATOM     13  C   UNL     1      33.985 -10.608 -24.029  0.00  0.00    +0.017 C 
ATOM     14  C   UNL     1      31.607  -8.529 -22.482  0.00  0.00    +0.144 C 
ATOM     15  C   UNL     1      30.753  -7.355 -22.226  0.00  0.00    +0.044 C 
ATOM     16  H   UNL     1      31.003  -9.739 -20.870  0.00  0.00    +0.148 HD
ATOM     17  H   UNL     1      32.675  -8.032 -24.180  0.00  0.00    +0.148 HD
ENDBRANCH   1   8
BRANCH   4  18
ATOM     18  N   UNL     1      33.985 -14.822 -24.217  0.00  0.00    -0.344 N 
ATOM     19  H   UNL     1      33.555 -15.596 -24.645  0.00  0.00    +0.144 HD
ATOM     20  H   UNL     1      34.187 -14.017 -24.747  0.00  0.00    +0.144 HD
ENDBRANCH   4  18
BRANCH   3  22
ATOM     21  O   UNL     1      35.179 -17.487 -23.737  0.00  0.00    -0.285 OA
ATOM     22  C   UNL     1      35.000 -17.307 -22.510  0.00  0.00    +0.213 C 
BRANCH  22  24
ATOM     23  N   UNL     1      33.929 -19.060 -21.142  0.00  0.00    -0.310 N 
ATOM     24  C   UNL     1      35.041 -18.396 -21.586  0.00  0.00    +0.088 C 
ATOM     25  C   UNL     1      34.290 -20.056 -20.262  0.00  0.00    +0.048 C 
ATOM     26  C   UNL     1      35.681 -20.018 -20.147  0.00  0.00    +0.015 C 
ATOM     27  C   UNL     1      36.142 -18.966 -20.988  0.00  0.00    +0.019 C 
ATOM     28  C   UNL     1      33.500 -20.977 -19.567  0.00  0.00    +0.015 C 
ATOM     29  C   UNL     1      36.316 -20.945 -19.298  0.00  0.00    +0.001 C 
ATOM     30  C   UNL     1      34.151 -21.886 -18.730  0.00  0.00    +0.001 C 
ATOM     31  C   UNL     1      35.539 -21.872 -18.596  0.00  0.00    +0.000 C 
ATOM     32  H   UNL     1      33.005 -18.855 -21.413  0.00  0.00    +0.152 HD
ENDBRANCH  22  24
ENDBRANCH   3  22
TORSDOF 4
ENDMDL
MODEL 8
REMARK VINA RESULT:     -11.7      2.386      9.182
REMARK  Name = 66555680
REMARK  4 active torsions:
REMARK  status: ('A' for Active; 'I' for Inactive)
REMARK    1  A    between atoms: N_1  and  C_8
REMARK    2  A    between atoms: C_3  and  C_22
REMARK    3  A    between atoms: C_4  and  N_18
REMARK    4  A    between atoms: C_22  and  C_24
REMARK                            x       y       z     vdW  Elec       q    Type
REMARK                         _______ _______ _______ _____ _____    ______ ____
ROOT
ATOM      1  N   UNL     1      35.197 -19.322 -21.149  0.00  0.00    -0.177 N 
ATOM      2  N   UNL     1      36.360 -18.653 -21.236  0.00  0.00    -0.171 NA
ATOM      3  C   UNL     1      34.931 -18.073 -22.921  0.00  0.00    +0.090 C 
ATOM      4  C   UNL     1      34.307 -19.011 -22.135  0.00  0.00    +0.122 C 
ATOM      5  C   UNL     1      36.190 -17.892 -22.320  0.00  0.00    +0.124 C 
ENDROOT
BRANCH   1   8
ATOM      6  N   UNL     1      32.480 -22.012 -18.042  0.00  0.00    -0.318 N 
ATOM      7  N   UNL     1      34.243 -22.923 -17.040  0.00  0.00    -0.318 N 
ATOM      8  C   UNL     1      35.007 -20.235 -20.109  0.00  0.00    +0.077 C 
ATOM      9  C   UNL     1      33.576 -21.477 -18.671  0.00  0.00    +0.060 C 
ATOM     10  C   UNL     1      33.705 -20.561 -19.715  0.00  0.00    +0.032 C 
ATOM     11  C   UNL     1      34.663 -22.061 -18.027  0.00  0.00    +0.059 C 
ATOM     12  C   UNL     1      36.117 -20.804 -19.483  0.00  0.00    +0.018 C 
ATOM     13  C   UNL     1      35.964 -21.722 -18.437  0.00  0.00    +0.017 C 
ATOM     14  C   UNL     1      32.931 -22.869 -17.077  0.00  0.00    +0.144 C 
ATOM     15  C   UNL     1      31.993 -23.612 -16.215  0.00  0.00    +0.044 C 
ATOM     16  H   UNL     1      31.539 -21.814 -18.250  0.00  0.00    +0.148 HD
ATOM     17  H   UNL     1      34.804 -23.463 -16.437  0.00  0.00    +0.148 HD
ENDBRANCH   1   8
BRANCH   4  18
ATOM     18  N   UNL     1      33.086 -19.585 -22.207  0.00  0.00    -0.344 N 
ATOM     19  H   UNL     1      32.277 -19.025 -22.205  0.00  0.00    +0.144 HD
ATOM     20  H   UNL     1      33.006 -20.565 -22.261  0.00  0.00    +0.144 HD
ENDBRANCH   4  18
BRANCH   3  22
ATOM     21  O   UNL     1      34.053 -18.181 -25.087  0.00  0.00    -0.285 OA
ATOM     22  C   UNL     1      34.358 -17.409 -24.148  0.00  0.00    +0.213 C 
BRANCH  22  24
ATOM     23  N   UNL     1      34.345 -15.123 -23.217  0.00  0.00    -0.310 N 
ATOM     24  C   UNL     1      34.168 -15.997 -24.257  0.00  0.00    +0.088 C 
ATOM     25  C   UNL     1      34.087 -13.835 -23.630  0.00  0.00    +0.048 C 
ATOM     26  C   UNL     1      33.735 -13.899 -24.980  0.00  0.00    +0.015 C 
ATOM     27  C   UNL     1      33.790 -15.270 -25.362  0.00  0.00    +0.019 C 
ATOM     28  C   UNL     1      34.139 -12.631 -22.920  0.00  0.00    +0.015 C 
ATOM     29  C   UNL     1      33.418 -12.705 -25.656  0.00  0.00    +0.001 C 
ATOM     30  C   UNL     1      33.821 -11.459 -23.611  0.00  0.00    +0.001 C 
ATOM     31  C   UNL     1      33.465 -11.493 -24.958  0.00  0.00    +0.000 C 
ATOM     32  H   UNL     1      34.617 -15.379 -22.306  0.00  0.00    +0.152 HD
ENDBRANCH  22  24
ENDBRANCH   3  22
TORSDOF 4
ENDMDL
MODEL 9
REMARK VINA RESULT:     -11.6      2.904     10.329
REMARK  Name = 66555680
REMARK  4 active torsions:
REMARK  status: ('A' for Active; 'I' for Inactive)
REMARK    1  A    between atoms: N_1  and  C_8
REMARK    2  A    between atoms: C_3  and  C_22
REMARK    3  A    between atoms: C_4  and  N_18
REMARK    4  A    between atoms: C_22  and  C_24
REMARK                            x       y       z     vdW  Elec       q    Type
REMARK                         _______ _______ _______ _____ _____    ______ ____
ROOT
ATOM      1  N   UNL     1      33.679 -13.105 -22.405  0.00  0.00    -0.177 N 
ATOM      2  N   UNL     1      34.127 -12.197 -23.290  0.00  0.00    -0.171 NA
ATOM      3  C   UNL     1      32.519 -11.317 -21.927  0.00  0.00    +0.090 C 
ATOM      4  C   UNL     1      32.715 -12.628 -21.566  0.00  0.00    +0.122 C 
ATOM      5  C   UNL     1      33.415 -11.107 -22.992  0.00  0.00    +0.124 C 
ENDROOT
BRANCH   1   8
ATOM      6  N   UNL     1      35.633 -17.124 -20.334  0.00  0.00    -0.318 N 
ATOM      7  N   UNL     1      35.815 -18.221 -22.259  0.00  0.00    -0.318 N 
ATOM      8  C   UNL     1      34.210 -14.396 -22.418  0.00  0.00    +0.077 C 
ATOM      9  C   UNL     1      35.145 -16.270 -21.289  0.00  0.00    +0.060 C 
ATOM     10  C   UNL     1      34.621 -14.979 -21.215  0.00  0.00    +0.032 C 
ATOM     11  C   UNL     1      35.269 -16.978 -22.481  0.00  0.00    +0.059 C 
ATOM     12  C   UNL     1      34.323 -15.081 -23.630  0.00  0.00    +0.018 C 
ATOM     13  C   UNL     1      34.851 -16.376 -23.681  0.00  0.00    +0.017 C 
ATOM     14  C   UNL     1      36.020 -18.276 -20.962  0.00  0.00    +0.144 C 
ATOM     15  C   UNL     1      36.594 -19.404 -20.206  0.00  0.00    +0.044 C 
ATOM     16  H   UNL     1      35.693 -16.941 -19.368  0.00  0.00    +0.148 HD
ATOM     17  H   UNL     1      36.009 -18.919 -22.926  0.00  0.00    +0.148 HD
ENDBRANCH   1   8
BRANCH   4  18
ATOM     18  N   UNL     1      32.148 -13.399 -20.613  0.00  0.00    -0.344 N 
ATOM     19  H   UNL     1      32.678 -14.096 -20.163  0.00  0.00    +0.144 HD
ATOM     20  H   UNL     1      31.204 -13.264 -20.368  0.00  0.00    +0.144 HD
ENDBRANCH   4  18
BRANCH   3  22
ATOM     21  O   UNL     1      30.672 -10.865 -20.565  0.00  0.00    -0.285 OA
ATOM     22  C   UNL     1      31.549 -10.350 -21.296  0.00  0.00    +0.213 C 
BRANCH  22  24
ATOM     23  N   UNL     1      31.068  -8.307 -22.594  0.00  0.00    -0.310 N 
ATOM     24  C   UNL     1      31.606  -8.937 -21.504  0.00  0.00    +0.088 C 
ATOM     25  C   UNL     1      31.283  -6.949 -22.511  0.00  0.00    +0.048 C 
ATOM     26  C   UNL     1      31.982  -6.715 -21.325  0.00  0.00    +0.015 C 
ATOM     27  C   UNL     1      32.179  -7.979 -20.700  0.00  0.00    +0.019 C 
ATOM     28  C   UNL     1      30.916  -5.921 -23.386  0.00  0.00    +0.015 C 
ATOM     29  C   UNL     1      32.332  -5.392 -20.994  0.00  0.00    +0.001 C 
ATOM     30  C   UNL     1      31.273  -4.616 -23.037  0.00  0.00    +0.001 C 
ATOM     31  C   UNL     1      31.971  -4.353 -21.860  0.00  0.00    +0.000 C 
ATOM     32  H   UNL     1      30.596  -8.759 -23.330  0.00  0.00    +0.152 HD
ENDBRANCH  22  24
ENDBRANCH   3  22
TORSDOF 4
ENDMDL
