MODEL 1
REMARK VINA RESULT:     -11.9      0.000      0.000
REMARK  Name = 16045418
REMARK  6 active torsions:
REMARK  status: ('A' for Active; 'I' for Inactive)
REMARK    1  A    between atoms: C_2  and  O_8
REMARK    2  A    between atoms: C_4  and  O_23
REMARK    3  A    between atoms: O_8  and  C_9
REMARK    4  A    between atoms: C_9  and  C_14
REMARK    5  A    between atoms: O_23  and  C_25
REMARK    6  A    between atoms: C_28  and  C_32
REMARK                            x       y       z     vdW  Elec       q    Type
REMARK                         _______ _______ _______ _____ _____    ______ ____
ROOT
ATOM      1 CL   UNL     1      33.759 -15.042 -25.620  0.00  0.00    -0.079 Cl
ATOM      2  C   UNL     1      34.936 -18.370 -22.816  0.00  0.00    +0.142 C 
ATOM      3  C   UNL     1      35.333 -17.066 -22.533  0.00  0.00    +0.075 C 
ATOM      4  C   UNL     1      34.973 -16.030 -23.396  0.00  0.00    +0.159 C 
ATOM      5  C   UNL     1      34.183 -18.647 -23.952  0.00  0.00    +0.038 C 
ATOM      6  C   UNL     1      34.218 -16.303 -24.536  0.00  0.00    +0.092 C 
ATOM      7  C   UNL     1      33.823 -17.611 -24.815  0.00  0.00    +0.018 C 
ENDROOT
BRANCH   2   8
ATOM      8  O   UNL     1      35.290 -19.385 -21.970  0.00  0.00    -0.469 OA
BRANCH   8   9
ATOM      9  C   UNL     1      34.305 -19.797 -21.021  0.00  0.00    +0.249 C 
BRANCH   9  14
ATOM     10  N   UNL     1      36.286 -20.349 -19.628  0.00  0.00    -0.227 N 
ATOM     11  N   UNL     1      36.721 -21.041 -18.554  0.00  0.00    -0.115 NA
ATOM     12  N   UNL     1      35.498 -22.472 -17.025  0.00  0.00    -0.335 NA
ATOM     13  N   UNL     1      33.957 -23.782 -15.763  0.00  0.00    -0.332 N 
ATOM     14  C   UNL     1      34.949 -20.481 -19.888  0.00  0.00    +0.097 C 
ATOM     15  C   UNL     1      34.485 -21.318 -18.910  0.00  0.00    +0.090 C 
ATOM     16  C   UNL     1      35.616 -21.644 -18.101  0.00  0.00    +0.105 C 
ATOM     17  C   UNL     1      33.176 -21.748 -18.758  0.00  0.00    +0.016 C 
ATOM     18  C   UNL     1      33.076 -22.594 -17.649  0.00  0.00    +0.049 C 
ATOM     19  C   UNL     1      34.209 -22.907 -16.858  0.00  0.00    +0.189 C 
ATOM     20  H   UNL     1      36.883 -19.794 -20.181  0.00  0.00    +0.175 HD
ATOM     21  H   UNL     1      34.694 -24.047 -15.166  0.00  0.00    +0.145 HD
ATOM     22  H   UNL     1      33.047 -24.123 -15.603  0.00  0.00    +0.145 HD
ENDBRANCH   9  14
ENDBRANCH   8   9
ENDBRANCH   2   8
BRANCH   4  23
ATOM     23  O   UNL     1      35.371 -14.761 -23.098  0.00  0.00    -0.452 OA
BRANCH  23  25
ATOM     24 CL   UNL     1      31.953 -14.012 -19.404  0.00  0.00    -0.082 Cl
ATOM     25  C   UNL     1      34.444 -13.918 -22.511  0.00  0.00    +0.147 C 
ATOM     26  C   UNL     1      34.227 -12.666 -23.060  0.00  0.00    +0.048 C 
ATOM     27  C   UNL     1      33.755 -14.347 -21.391  0.00  0.00    +0.049 C 
ATOM     28  C   UNL     1      33.292 -11.817 -22.469  0.00  0.00    +0.072 C 
ATOM     29  C   UNL     1      32.820 -13.498 -20.799  0.00  0.00    +0.061 C 
ATOM     30  C   UNL     1      32.589 -12.233 -21.338  0.00  0.00    +0.022 C 
BRANCH  28  32
ATOM     31  N   UNL     1      32.864  -9.463 -23.470  0.00  0.00    -0.191 NA
ATOM     32  C   UNL     1      33.056 -10.520 -23.021  0.00  0.00    +0.101 C 
ENDBRANCH  28  32
ENDBRANCH  23  25
ENDBRANCH   4  23
TORSDOF 6
ENDMDL
MODEL 2
REMARK VINA RESULT:     -11.8      2.042      3.954
REMARK  Name = 16045418
REMARK  6 active torsions:
REMARK  status: ('A' for Active; 'I' for Inactive)
REMARK    1  A    between atoms: C_2  and  O_8
REMARK    2  A    between atoms: C_4  and  O_23
REMARK    3  A    between atoms: O_8  and  C_9
REMARK    4  A    between atoms: C_9  and  C_14
REMARK    5  A    between atoms: O_23  and  C_25
REMARK    6  A    between atoms: C_28  and  C_32
REMARK                            x       y       z     vdW  Elec       q    Type
REMARK                         _______ _______ _______ _____ _____    ______ ____
ROOT
ATOM      1 CL   UNL     1      32.291 -12.514 -19.839  0.00  0.00    -0.079 Cl
ATOM      2  C   UNL     1      34.828 -15.356 -22.249  0.00  0.00    +0.142 C 
ATOM      3  C   UNL     1      34.051 -14.408 -22.908  0.00  0.00    +0.075 C 
ATOM      4  C   UNL     1      33.263 -13.524 -22.170  0.00  0.00    +0.159 C 
ATOM      5  C   UNL     1      34.824 -15.429 -20.859  0.00  0.00    +0.038 C 
ATOM      6  C   UNL     1      33.255 -13.593 -20.777  0.00  0.00    +0.092 C 
ATOM      7  C   UNL     1      34.035 -14.546 -20.122  0.00  0.00    +0.018 C 
ENDROOT
BRANCH   2   8
ATOM      8  O   UNL     1      35.600 -16.223 -22.973  0.00  0.00    -0.469 OA
BRANCH   8   9
ATOM      9  C   UNL     1      35.185 -17.590 -22.983  0.00  0.00    +0.249 C 
BRANCH   9  14
ATOM     10  N   UNL     1      37.212 -18.172 -21.671  0.00  0.00    -0.227 N 
ATOM     11  N   UNL     1      37.695 -18.930 -20.664  0.00  0.00    -0.115 NA
ATOM     12  N   UNL     1      36.558 -20.528 -19.237  0.00  0.00    -0.335 NA
ATOM     13  N   UNL     1      35.094 -21.997 -18.061  0.00  0.00    -0.332 N 
ATOM     14  C   UNL     1      35.877 -18.337 -21.919  0.00  0.00    +0.097 C 
ATOM     15  C   UNL     1      35.465 -19.268 -21.006  0.00  0.00    +0.090 C 
ATOM     16  C   UNL     1      36.623 -19.612 -20.244  0.00  0.00    +0.105 C 
ATOM     17  C   UNL     1      34.177 -19.762 -20.869  0.00  0.00    +0.016 C 
ATOM     18  C   UNL     1      34.131 -20.698 -19.831  0.00  0.00    +0.049 C 
ATOM     19  C   UNL     1      35.290 -21.027 -19.086  0.00  0.00    +0.189 C 
ATOM     20  H   UNL     1      37.777 -17.551 -22.187  0.00  0.00    +0.175 HD
ATOM     21  H   UNL     1      35.851 -22.279 -17.499  0.00  0.00    +0.145 HD
ATOM     22  H   UNL     1      34.201 -22.386 -17.915  0.00  0.00    +0.145 HD
ENDBRANCH   9  14
ENDBRANCH   8   9
ENDBRANCH   2   8
BRANCH   4  23
ATOM     23  O   UNL     1      32.512 -12.603 -22.837  0.00  0.00    -0.452 OA
BRANCH  23  25
ATOM     24 CL   UNL     1      35.851  -9.832 -25.494  0.00  0.00    -0.082 Cl
ATOM     25  C   UNL     1      33.080 -11.364 -23.078  0.00  0.00    +0.147 C 
ATOM     26  C   UNL     1      32.656 -10.272 -22.341  0.00  0.00    +0.048 C 
ATOM     27  C   UNL     1      34.059 -11.247 -24.048  0.00  0.00    +0.049 C 
ATOM     28  C   UNL     1      33.229  -9.024 -22.583  0.00  0.00    +0.072 C 
ATOM     29  C   UNL     1      34.632  -9.999 -24.291  0.00  0.00    +0.061 C 
ATOM     30  C   UNL     1      34.217  -8.887 -23.558  0.00  0.00    +0.022 C 
BRANCH  28  32
ATOM     31  N   UNL     1      32.454  -6.957 -21.220  0.00  0.00    -0.191 NA
ATOM     32  C   UNL     1      32.803  -7.885 -21.832  0.00  0.00    +0.101 C 
ENDBRANCH  28  32
ENDBRANCH  23  25
ENDBRANCH   4  23
TORSDOF 6
ENDMDL
MODEL 3
REMARK VINA RESULT:     -11.4      1.405      1.996
REMARK  Name = 16045418
REMARK  6 active torsions:
REMARK  status: ('A' for Active; 'I' for Inactive)
REMARK    1  A    between atoms: C_2  and  O_8
REMARK    2  A    between atoms: C_4  and  O_23
REMARK    3  A    between atoms: O_8  and  C_9
REMARK    4  A    between atoms: C_9  and  C_14
REMARK    5  A    between atoms: O_23  and  C_25
REMARK    6  A    between atoms: C_28  and  C_32
REMARK                            x       y       z     vdW  Elec       q    Type
REMARK                         _______ _______ _______ _____ _____    ______ ____
ROOT
ATOM      1 CL   UNL     1      34.264 -16.676 -24.910  0.00  0.00    -0.079 Cl
ATOM      2  C   UNL     1      35.228 -18.759 -21.029  0.00  0.00    +0.142 C 
ATOM      3  C   UNL     1      35.603 -17.430 -21.203  0.00  0.00    +0.075 C 
ATOM      4  C   UNL     1      35.308 -16.777 -22.400  0.00  0.00    +0.159 C 
ATOM      5  C   UNL     1      34.561 -19.441 -22.043  0.00  0.00    +0.038 C 
ATOM      6  C   UNL     1      34.640 -17.457 -23.419  0.00  0.00    +0.092 C 
ATOM      7  C   UNL     1      34.267 -18.789 -23.240  0.00  0.00    +0.018 C 
ENDROOT
BRANCH   2   8
ATOM      8  O   UNL     1      35.517 -19.398 -19.856  0.00  0.00    -0.469 OA
BRANCH   8   9
ATOM      9  C   UNL     1      35.894 -20.773 -19.955  0.00  0.00    +0.249 C 
BRANCH   9  14
ATOM     10  N   UNL     1      33.925 -22.048 -19.141  0.00  0.00    -0.227 N 
ATOM     11  N   UNL     1      33.418 -22.757 -18.110  0.00  0.00    -0.115 NA
ATOM     12  N   UNL     1      34.405 -23.300 -15.962  0.00  0.00    -0.335 NA
ATOM     13  N   UNL     1      35.712 -23.614 -13.992  0.00  0.00    -0.332 N 
ATOM     14  C   UNL     1      35.189 -21.566 -18.935  0.00  0.00    +0.097 C 
ATOM     15  C   UNL     1      35.525 -21.994 -17.680  0.00  0.00    +0.090 C 
ATOM     16  C   UNL     1      34.399 -22.730 -17.200  0.00  0.00    +0.105 C 
ATOM     17  C   UNL     1      36.724 -21.748 -17.029  0.00  0.00    +0.016 C 
ATOM     18  C   UNL     1      36.711 -22.341 -15.762  0.00  0.00    +0.049 C 
ATOM     19  C   UNL     1      35.585 -23.068 -15.302  0.00  0.00    +0.189 C 
ATOM     20  H   UNL     1      33.424 -21.891 -19.975  0.00  0.00    +0.175 HD
ATOM     21  H   UNL     1      34.972 -24.132 -13.601  0.00  0.00    +0.145 HD
ATOM     22  H   UNL     1      36.540 -23.472 -13.478  0.00  0.00    +0.145 HD
ENDBRANCH   9  14
ENDBRANCH   8   9
ENDBRANCH   2   8
BRANCH   4  23
ATOM     23  O   UNL     1      35.684 -15.475 -22.547  0.00  0.00    -0.452 OA
BRANCH  23  25
ATOM     24 CL   UNL     1      31.968 -13.766 -19.520  0.00  0.00    -0.082 Cl
ATOM     25  C   UNL     1      34.736 -14.501 -22.289  0.00  0.00    +0.147 C 
ATOM     26  C   UNL     1      34.614 -13.430 -23.158  0.00  0.00    +0.048 C 
ATOM     27  C   UNL     1      33.933 -14.620 -21.168  0.00  0.00    +0.049 C 
ATOM     28  C   UNL     1      33.658 -12.449 -22.898  0.00  0.00    +0.072 C 
ATOM     29  C   UNL     1      32.977 -13.638 -20.909  0.00  0.00    +0.061 C 
ATOM     30  C   UNL     1      32.840 -12.552 -21.773  0.00  0.00    +0.022 C 
BRANCH  28  32
ATOM     31  N   UNL     1      33.403 -10.431 -24.507  0.00  0.00    -0.191 NA
ATOM     32  C   UNL     1      33.518 -11.336 -23.784  0.00  0.00    +0.101 C 
ENDBRANCH  28  32
ENDBRANCH  23  25
ENDBRANCH   4  23
TORSDOF 6
ENDMDL
MODEL 4
REMARK VINA RESULT:     -11.4      5.885     10.855
REMARK  Name = 16045418
REMARK  6 active torsions:
REMARK  status: ('A' for Active; 'I' for Inactive)
REMARK    1  A    between atoms: C_2  and  O_8
REMARK    2  A    between atoms: C_4  and  O_23
REMARK    3  A    between atoms: O_8  and  C_9
REMARK    4  A    between atoms: C_9  and  C_14
REMARK    5  A    between atoms: O_23  and  C_25
REMARK    6  A    between atoms: C_28  and  C_32
REMARK                            x       y       z     vdW  Elec       q    Type
REMARK                         _______ _______ _______ _____ _____    ______ ____
ROOT
ATOM      1 CL   UNL     1      30.722 -23.955 -12.273  0.00  0.00    -0.079 Cl
ATOM      2  C   UNL     1      31.747 -22.826 -16.516  0.00  0.00    +0.142 C 
ATOM      3  C   UNL     1      32.769 -23.164 -15.633  0.00  0.00    +0.075 C 
ATOM      4  C   UNL     1      32.460 -23.515 -14.318  0.00  0.00    +0.159 C 
ATOM      5  C   UNL     1      30.420 -22.836 -16.096  0.00  0.00    +0.038 C 
ATOM      6  C   UNL     1      31.132 -23.526 -13.893  0.00  0.00    +0.092 C 
ATOM      7  C   UNL     1      30.113 -23.186 -14.781  0.00  0.00    +0.018 C 
ENDROOT
BRANCH   2   8
ATOM      8  O   UNL     1      32.050 -22.481 -17.804  0.00  0.00    -0.469 OA
BRANCH   8   9
ATOM      9  C   UNL     1      33.436 -22.327 -18.114  0.00  0.00    +0.249 C 
BRANCH   9  14
ATOM     10  N   UNL     1      32.555 -20.804 -19.866  0.00  0.00    -0.227 N 
ATOM     11  N   UNL     1      32.883 -19.867 -20.781  0.00  0.00    -0.115 NA
ATOM     12  N   UNL     1      35.050 -18.934 -21.343  0.00  0.00    -0.335 NA
ATOM     13  N   UNL     1      37.329 -18.280 -21.595  0.00  0.00    -0.332 N 
ATOM     14  C   UNL     1      33.612 -21.299 -19.152  0.00  0.00    +0.097 C 
ATOM     15  C   UNL     1      34.703 -20.633 -19.638  0.00  0.00    +0.090 C 
ATOM     16  C   UNL     1      34.209 -19.752 -20.649  0.00  0.00    +0.105 C 
ATOM     17  C   UNL     1      36.014 -20.799 -19.218  0.00  0.00    +0.016 C 
ATOM     18  C   UNL     1      36.859 -19.951 -19.941  0.00  0.00    +0.049 C 
ATOM     19  C   UNL     1      36.352 -19.084 -20.940  0.00  0.00    +0.189 C 
ATOM     20  H   UNL     1      31.628 -21.108 -19.725  0.00  0.00    +0.175 HD
ATOM     21  H   UNL     1      37.055 -17.651 -22.302  0.00  0.00    +0.145 HD
ATOM     22  H   UNL     1      38.277 -18.353 -21.341  0.00  0.00    +0.145 HD
ENDBRANCH   9  14
ENDBRANCH   8   9
ENDBRANCH   2   8
BRANCH   4  23
ATOM     23  O   UNL     1      33.477 -23.843 -13.472  0.00  0.00    -0.452 OA
BRANCH  23  25
ATOM     24 CL   UNL     1      37.153 -21.295 -15.898  0.00  0.00    -0.082 Cl
ATOM     25  C   UNL     1      34.763 -23.842 -13.983  0.00  0.00    +0.147 C 
ATOM     26  C   UNL     1      35.539 -24.982 -13.861  0.00  0.00    +0.048 C 
ATOM     27  C   UNL     1      35.242 -22.703 -14.605  0.00  0.00    +0.049 C 
ATOM     28  C   UNL     1      36.835 -24.981 -14.377  0.00  0.00    +0.072 C 
ATOM     29  C   UNL     1      36.537 -22.702 -15.122  0.00  0.00    +0.061 C 
ATOM     30  C   UNL     1      37.334 -23.841 -15.007  0.00  0.00    +0.022 C 
BRANCH  28  32
ATOM     31  N   UNL     1      38.317 -27.098 -14.163  0.00  0.00    -0.191 NA
ATOM     32  C   UNL     1      37.651 -26.148 -14.258  0.00  0.00    +0.101 C 
ENDBRANCH  28  32
ENDBRANCH  23  25
ENDBRANCH   4  23
TORSDOF 6
ENDMDL
MODEL 5
REMARK VINA RESULT:     -11.3      2.203      3.856
REMARK  Name = 16045418
REMARK  6 active torsions:
REMARK  status: ('A' for Active; 'I' for Inactive)
REMARK    1  A    between atoms: C_2  and  O_8
REMARK    2  A    between atoms: C_4  and  O_23
REMARK    3  A    between atoms: O_8  and  C_9
REMARK    4  A    between atoms: C_9  and  C_14
REMARK    5  A    between atoms: O_23  and  C_25
REMARK    6  A    between atoms: C_28  and  C_32
REMARK                            x       y       z     vdW  Elec       q    Type
REMARK                         _______ _______ _______ _____ _____    ______ ____
ROOT
ATOM      1 CL   UNL     1      32.221 -12.711 -19.633  0.00  0.00    -0.079 Cl
ATOM      2  C   UNL     1      34.837 -15.353 -22.182  0.00  0.00    +0.142 C 
ATOM      3  C   UNL     1      34.010 -14.416 -22.794  0.00  0.00    +0.075 C 
ATOM      4  C   UNL     1      33.197 -13.594 -22.013  0.00  0.00    +0.159 C 
ATOM      5  C   UNL     1      34.858 -15.476 -20.796  0.00  0.00    +0.038 C 
ATOM      6  C   UNL     1      33.215 -13.713 -20.624  0.00  0.00    +0.092 C 
ATOM      7  C   UNL     1      34.045 -14.654 -20.015  0.00  0.00    +0.018 C 
ENDROOT
BRANCH   2   8
ATOM      8  O   UNL     1      35.633 -16.160 -22.948  0.00  0.00    -0.469 OA
BRANCH   8   9
ATOM      9  C   UNL     1      35.255 -17.535 -23.031  0.00  0.00    +0.249 C 
BRANCH   9  14
ATOM     10  N   UNL     1      37.250 -18.175 -21.696  0.00  0.00    -0.227 N 
ATOM     11  N   UNL     1      37.700 -18.951 -20.689  0.00  0.00    -0.115 NA
ATOM     12  N   UNL     1      36.507 -20.535 -19.292  0.00  0.00    -0.335 NA
ATOM     13  N   UNL     1      34.993 -21.980 -18.149  0.00  0.00    -0.332 N 
ATOM     14  C   UNL     1      35.914 -18.306 -21.965  0.00  0.00    +0.097 C 
ATOM     15  C   UNL     1      35.468 -19.235 -21.065  0.00  0.00    +0.090 C 
ATOM     16  C   UNL     1      36.607 -19.612 -20.290  0.00  0.00    +0.105 C 
ATOM     17  C   UNL     1      34.167 -19.700 -20.950  0.00  0.00    +0.016 C 
ATOM     18  C   UNL     1      34.085 -20.644 -19.921  0.00  0.00    +0.049 C 
ATOM     19  C   UNL     1      35.225 -21.006 -19.163  0.00  0.00    +0.189 C 
ATOM     20  H   UNL     1      37.836 -17.562 -22.198  0.00  0.00    +0.175 HD
ATOM     21  H   UNL     1      35.736 -22.283 -17.579  0.00  0.00    +0.145 HD
ATOM     22  H   UNL     1      34.089 -22.349 -18.019  0.00  0.00    +0.145 HD
ENDBRANCH   9  14
ENDBRANCH   8   9
ENDBRANCH   2   8
BRANCH   4  23
ATOM     23  O   UNL     1      32.397 -12.682 -22.635  0.00  0.00    -0.452 OA
BRANCH  23  25
ATOM     24 CL   UNL     1      32.448  -7.719 -21.515  0.00  0.00    -0.082 Cl
ATOM     25  C   UNL     1      32.926 -11.428 -22.885  0.00  0.00    +0.147 C 
ATOM     26  C   UNL     1      33.900 -11.289 -23.859  0.00  0.00    +0.048 C 
ATOM     27  C   UNL     1      32.469 -10.344 -22.157  0.00  0.00    +0.049 C 
ATOM     28  C   UNL     1      34.433 -10.025 -24.112  0.00  0.00    +0.072 C 
ATOM     29  C   UNL     1      33.002  -9.081 -22.410  0.00  0.00    +0.061 C 
ATOM     30  C   UNL     1      33.984  -8.921 -23.387  0.00  0.00    +0.022 C 
BRANCH  28  32
ATOM     31  N   UNL     1      36.262  -9.730 -25.927  0.00  0.00    -0.191 NA
ATOM     32  C   UNL     1      35.440  -9.862 -25.112  0.00  0.00    +0.101 C 
ENDBRANCH  28  32
ENDBRANCH  23  25
ENDBRANCH   4  23
TORSDOF 6
ENDMDL
MODEL 6
REMARK VINA RESULT:     -11.2      5.310     11.055
REMARK  Name = 16045418
REMARK  6 active torsions:
REMARK  status: ('A' for Active; 'I' for Inactive)
REMARK    1  A    between atoms: C_2  and  O_8
REMARK    2  A    between atoms: C_4  and  O_23
REMARK    3  A    between atoms: O_8  and  C_9
REMARK    4  A    between atoms: C_9  and  C_14
REMARK    5  A    between atoms: O_23  and  C_25
REMARK    6  A    between atoms: C_28  and  C_32
REMARK                            x       y       z     vdW  Elec       q    Type
REMARK                         _______ _______ _______ _____ _____    ______ ____
ROOT
ATOM      1 CL   UNL     1      30.881 -23.631 -13.878  0.00  0.00    -0.079 Cl
ATOM      2  C   UNL     1      33.938 -22.707 -17.059  0.00  0.00    +0.142 C 
ATOM      3  C   UNL     1      34.366 -23.095 -15.793  0.00  0.00    +0.075 C 
ATOM      4  C   UNL     1      33.427 -23.384 -14.802  0.00  0.00    +0.159 C 
ATOM      5  C   UNL     1      32.580 -22.604 -17.344  0.00  0.00    +0.038 C 
ATOM      6  C   UNL     1      32.064 -23.282 -15.082  0.00  0.00    +0.092 C 
ATOM      7  C   UNL     1      31.641 -22.892 -16.353  0.00  0.00    +0.018 C 
ENDROOT
BRANCH   2   8
ATOM      8  O   UNL     1      34.860 -22.424 -18.030  0.00  0.00    -0.469 OA
BRANCH   8   9
ATOM      9  C   UNL     1      34.359 -21.835 -19.231  0.00  0.00    +0.249 C 
BRANCH   9  14
ATOM     10  N   UNL     1      36.431 -20.479 -19.038  0.00  0.00    -0.227 N 
ATOM     11  N   UNL     1      37.124 -19.444 -19.557  0.00  0.00    -0.115 NA
ATOM     12  N   UNL     1      36.584 -17.987 -21.420  0.00  0.00    -0.335 NA
ATOM     13  N   UNL     1      35.698 -16.789 -23.281  0.00  0.00    -0.332 N 
ATOM     14  C   UNL     1      35.243 -20.741 -19.665  0.00  0.00    +0.097 C 
ATOM     15  C   UNL     1      35.162 -19.808 -20.662  0.00  0.00    +0.090 C 
ATOM     16  C   UNL     1      36.349 -19.020 -20.562  0.00  0.00    +0.105 C 
ATOM     17  C   UNL     1      34.124 -19.675 -21.572  0.00  0.00    +0.016 C 
ATOM     18  C   UNL     1      34.385 -18.611 -22.442  0.00  0.00    +0.049 C 
ATOM     19  C   UNL     1      35.568 -17.841 -22.328  0.00  0.00    +0.189 C 
ATOM     20  H   UNL     1      36.754 -21.004 -18.270  0.00  0.00    +0.175 HD
ATOM     21  H   UNL     1      36.493 -16.209 -23.267  0.00  0.00    +0.145 HD
ATOM     22  H   UNL     1      34.994 -16.644 -23.953  0.00  0.00    +0.145 HD
ENDBRANCH   9  14
ENDBRANCH   8   9
ENDBRANCH   2   8
BRANCH   4  23
ATOM     23  O   UNL     1      33.869 -23.763 -13.570  0.00  0.00    -0.452 OA
BRANCH  23  25
ATOM     24 CL   UNL     1      37.253 -27.285 -14.997  0.00  0.00    -0.082 Cl
ATOM     25  C   UNL     1      35.158 -24.258 -13.475  0.00  0.00    +0.147 C 
ATOM     26  C   UNL     1      36.070 -23.614 -12.657  0.00  0.00    +0.048 C 
ATOM     27  C   UNL     1      35.503 -25.385 -14.200  0.00  0.00    +0.049 C 
ATOM     28  C   UNL     1      37.368 -24.114 -12.561  0.00  0.00    +0.072 C 
ATOM     29  C   UNL     1      36.801 -25.885 -14.103  0.00  0.00    +0.061 C 
ATOM     30  C   UNL     1      37.734 -25.249 -13.284  0.00  0.00    +0.022 C 
BRANCH  28  32
ATOM     31  N   UNL     1      39.103 -22.930 -11.040  0.00  0.00    -0.191 NA
ATOM     32  C   UNL     1      38.324 -23.462 -11.722  0.00  0.00    +0.101 C 
ENDBRANCH  28  32
ENDBRANCH  23  25
ENDBRANCH   4  23
TORSDOF 6
ENDMDL
MODEL 7
REMARK VINA RESULT:     -11.2      1.985      3.284
REMARK  Name = 16045418
REMARK  6 active torsions:
REMARK  status: ('A' for Active; 'I' for Inactive)
REMARK    1  A    between atoms: C_2  and  O_8
REMARK    2  A    between atoms: C_4  and  O_23
REMARK    3  A    between atoms: O_8  and  C_9
REMARK    4  A    between atoms: C_9  and  C_14
REMARK    5  A    between atoms: O_23  and  C_25
REMARK    6  A    between atoms: C_28  and  C_32
REMARK                            x       y       z     vdW  Elec       q    Type
REMARK                         _______ _______ _______ _____ _____    ______ ____
ROOT
ATOM      1 CL   UNL     1      32.904 -11.970 -26.143  0.00  0.00    -0.079 Cl
ATOM      2  C   UNL     1      34.317 -15.099 -23.220  0.00  0.00    +0.142 C 
ATOM      3  C   UNL     1      34.599 -13.758 -22.975  0.00  0.00    +0.075 C 
ATOM      4  C   UNL     1      34.165 -12.783 -23.874  0.00  0.00    +0.159 C 
ATOM      5  C   UNL     1      33.606 -15.474 -24.356  0.00  0.00    +0.038 C 
ATOM      6  C   UNL     1      33.452 -13.153 -25.014  0.00  0.00    +0.092 C 
ATOM      7  C   UNL     1      33.173 -14.499 -25.255  0.00  0.00    +0.018 C 
ENDROOT
BRANCH   2   8
ATOM      8  O   UNL     1      34.743 -16.054 -22.339  0.00  0.00    -0.469 OA
BRANCH   8   9
ATOM      9  C   UNL     1      35.035 -17.342 -22.886  0.00  0.00    +0.249 C 
BRANCH   9  14
ATOM     10  N   UNL     1      37.101 -18.037 -21.698  0.00  0.00    -0.227 N 
ATOM     11  N   UNL     1      37.608 -18.860 -20.756  0.00  0.00    -0.115 NA
ATOM     12  N   UNL     1      36.497 -20.515 -19.374  0.00  0.00    -0.335 NA
ATOM     13  N   UNL     1      35.051 -22.020 -18.221  0.00  0.00    -0.332 N 
ATOM     14  C   UNL     1      35.753 -18.161 -21.897  0.00  0.00    +0.097 C 
ATOM     15  C   UNL     1      35.360 -19.134 -21.021  0.00  0.00    +0.090 C 
ATOM     16  C   UNL     1      36.540 -19.544 -20.330  0.00  0.00    +0.105 C 
ATOM     17  C   UNL     1      34.067 -19.610 -20.857  0.00  0.00    +0.016 C 
ATOM     18  C   UNL     1      34.044 -20.603 -19.873  0.00  0.00    +0.049 C 
ATOM     19  C   UNL     1      35.225 -20.997 -19.197  0.00  0.00    +0.189 C 
ATOM     20  H   UNL     1      37.658 -17.399 -22.201  0.00  0.00    +0.175 HD
ATOM     21  H   UNL     1      35.825 -22.348 -17.709  0.00  0.00    +0.145 HD
ATOM     22  H   UNL     1      34.157 -22.399 -18.060  0.00  0.00    +0.145 HD
ENDBRANCH   9  14
ENDBRANCH   8   9
ENDBRANCH   2   8
BRANCH   4  23
ATOM     23  O   UNL     1      34.452 -11.477 -23.613  0.00  0.00    -0.452 OA
BRANCH  23  25
ATOM     24 CL   UNL     1      30.672 -11.144 -20.222  0.00  0.00    -0.082 Cl
ATOM     25  C   UNL     1      33.459 -10.705 -23.034  0.00  0.00    +0.147 C 
ATOM     26  C   UNL     1      33.281  -9.401 -23.464  0.00  0.00    +0.048 C 
ATOM     27  C   UNL     1      32.668 -11.256 -22.042  0.00  0.00    +0.049 C 
ATOM     28  C   UNL     1      32.279  -8.625 -22.882  0.00  0.00    +0.072 C 
ATOM     29  C   UNL     1      31.667 -10.479 -21.459  0.00  0.00    +0.061 C 
ATOM     30  C   UNL     1      31.473  -9.163 -21.879  0.00  0.00    +0.022 C 
BRANCH  28  32
ATOM     31  N   UNL     1      31.922  -6.177 -23.663  0.00  0.00    -0.191 NA
ATOM     32  C   UNL     1      32.082  -7.276 -23.312  0.00  0.00    +0.101 C 
ENDBRANCH  28  32
ENDBRANCH  23  25
ENDBRANCH   4  23
TORSDOF 6
ENDMDL
MODEL 8
REMARK VINA RESULT:     -11.1      6.166     11.067
REMARK  Name = 16045418
REMARK  6 active torsions:
REMARK  status: ('A' for Active; 'I' for Inactive)
REMARK    1  A    between atoms: C_2  and  O_8
REMARK    2  A    between atoms: C_4  and  O_23
REMARK    3  A    between atoms: O_8  and  C_9
REMARK    4  A    between atoms: C_9  and  C_14
REMARK    5  A    between atoms: O_23  and  C_25
REMARK    6  A    between atoms: C_28  and  C_32
REMARK                            x       y       z     vdW  Elec       q    Type
REMARK                         _______ _______ _______ _____ _____    ______ ____
ROOT
ATOM      1 CL   UNL     1      30.674 -24.808 -12.463  0.00  0.00    -0.079 Cl
ATOM      2  C   UNL     1      31.564 -22.762 -16.380  0.00  0.00    +0.142 C 
ATOM      3  C   UNL     1      32.533 -23.576 -15.799  0.00  0.00    +0.075 C 
ATOM      4  C   UNL     1      32.265 -24.213 -14.587  0.00  0.00    +0.159 C 
ATOM      5  C   UNL     1      30.331 -22.580 -15.761  0.00  0.00    +0.038 C 
ATOM      6  C   UNL     1      31.031 -24.034 -13.962  0.00  0.00    +0.092 C 
ATOM      7  C   UNL     1      30.065 -23.217 -14.549  0.00  0.00    +0.018 C 
ENDROOT
BRANCH   2   8
ATOM      8  O   UNL     1      31.827 -22.137 -17.568  0.00  0.00    -0.469 OA
BRANCH   8   9
ATOM      9  C   UNL     1      33.089 -22.423 -18.174  0.00  0.00    +0.249 C 
BRANCH   9  14
ATOM     10  N   UNL     1      32.505 -20.694 -19.857  0.00  0.00    -0.227 N 
ATOM     11  N   UNL     1      32.997 -19.744 -20.680  0.00  0.00    -0.115 NA
ATOM     12  N   UNL     1      35.289 -19.040 -21.047  0.00  0.00    -0.335 NA
ATOM     13  N   UNL     1      37.640 -18.646 -21.119  0.00  0.00    -0.332 N 
ATOM     14  C   UNL     1      33.449 -21.356 -19.121  0.00  0.00    +0.097 C 
ATOM     15  C   UNL     1      34.639 -20.794 -19.494  0.00  0.00    +0.090 C 
ATOM     16  C   UNL     1      34.317 -19.796 -20.464  0.00  0.00    +0.105 C 
ATOM     17  C   UNL     1      35.892 -21.142 -19.013  0.00  0.00    +0.016 C 
ATOM     18  C   UNL     1      36.874 -20.355 -19.621  0.00  0.00    +0.049 C 
ATOM     19  C   UNL     1      36.536 -19.369 -20.581  0.00  0.00    +0.189 C 
ATOM     20  H   UNL     1      31.542 -20.894 -19.792  0.00  0.00    +0.175 HD
ATOM     21  H   UNL     1      37.487 -17.944 -21.791  0.00  0.00    +0.145 HD
ATOM     22  H   UNL     1      38.555 -18.847 -20.817  0.00  0.00    +0.145 HD
ENDBRANCH   9  14
ENDBRANCH   8   9
ENDBRANCH   2   8
BRANCH   4  23
ATOM     23  O   UNL     1      33.228 -25.006 -14.037  0.00  0.00    -0.452 OA
BRANCH  23  25
ATOM     24 CL   UNL     1      37.475 -22.607 -15.487  0.00  0.00    -0.082 Cl
ATOM     25  C   UNL     1      34.421 -24.406 -13.670  0.00  0.00    +0.147 C 
ATOM     26  C   UNL     1      34.765 -24.351 -12.331  0.00  0.00    +0.048 C 
ATOM     27  C   UNL     1      35.240 -23.876 -14.652  0.00  0.00    +0.049 C 
ATOM     28  C   UNL     1      35.967 -23.747 -11.962  0.00  0.00    +0.072 C 
ATOM     29  C   UNL     1      36.442 -23.273 -14.283  0.00  0.00    +0.061 C 
ATOM     30  C   UNL     1      36.805 -23.208 -12.938  0.00  0.00    +0.022 C 
BRANCH  28  32
ATOM     31  N   UNL     1      36.640 -23.627  -9.460  0.00  0.00    -0.191 NA
ATOM     32  C   UNL     1      36.338 -23.680 -10.584  0.00  0.00    +0.101 C 
ENDBRANCH  28  32
ENDBRANCH  23  25
ENDBRANCH   4  23
TORSDOF 6
ENDMDL
MODEL 9
REMARK VINA RESULT:     -11.1      6.179      9.487
REMARK  Name = 16045418
REMARK  6 active torsions:
REMARK  status: ('A' for Active; 'I' for Inactive)
REMARK    1  A    between atoms: C_2  and  O_8
REMARK    2  A    between atoms: C_4  and  O_23
REMARK    3  A    between atoms: O_8  and  C_9
REMARK    4  A    between atoms: C_9  and  C_14
REMARK    5  A    between atoms: O_23  and  C_25
REMARK    6  A    between atoms: C_28  and  C_32
REMARK                            x       y       z     vdW  Elec       q    Type
REMARK                         _______ _______ _______ _____ _____    ______ ____
ROOT
ATOM      1 CL   UNL     1      29.118 -22.524 -16.472  0.00  0.00    -0.079 Cl
ATOM      2  C   UNL     1      32.650 -23.736 -13.945  0.00  0.00    +0.142 C 
ATOM      3  C   UNL     1      32.831 -23.503 -15.306  0.00  0.00    +0.075 C 
ATOM      4  C   UNL     1      31.744 -23.127 -16.095  0.00  0.00    +0.159 C 
ATOM      5  C   UNL     1      31.392 -23.596 -13.367  0.00  0.00    +0.038 C 
ATOM      6  C   UNL     1      30.480 -22.986 -15.521  0.00  0.00    +0.092 C 
ATOM      7  C   UNL     1      30.305 -23.221 -14.157  0.00  0.00    +0.018 C 
ENDROOT
BRANCH   2   8
ATOM      8  O   UNL     1      33.716 -24.104 -13.172  0.00  0.00    -0.469 OA
BRANCH   8   9
ATOM      9  C   UNL     1      34.999 -23.630 -13.587  0.00  0.00    +0.249 C 
BRANCH   9  14
ATOM     10  N   UNL     1      35.376 -25.821 -14.693  0.00  0.00    -0.227 N 
ATOM     11  N   UNL     1      36.289 -26.777 -14.967  0.00  0.00    -0.115 NA
ATOM     12  N   UNL     1      38.638 -26.898 -14.375  0.00  0.00    -0.335 NA
ATOM     13  N   UNL     1      40.880 -26.641 -13.604  0.00  0.00    -0.332 N 
ATOM     14  C   UNL     1      35.857 -24.762 -13.972  0.00  0.00    +0.097 C 
ATOM     15  C   UNL     1      37.177 -25.053 -13.765  0.00  0.00    +0.090 C 
ATOM     16  C   UNL     1      37.407 -26.313 -14.397  0.00  0.00    +0.105 C 
ATOM     17  C   UNL     1      38.086 -24.267 -13.074  0.00  0.00    +0.016 C 
ATOM     18  C   UNL     1      39.342 -24.883 -13.064  0.00  0.00    +0.049 C 
ATOM     19  C   UNL     1      39.552 -26.133 -13.697  0.00  0.00    +0.189 C 
ATOM     20  H   UNL     1      34.438 -25.881 -14.990  0.00  0.00    +0.175 HD
ATOM     21  H   UNL     1      41.106 -27.505 -14.019  0.00  0.00    +0.145 HD
ATOM     22  H   UNL     1      41.571 -26.129 -13.126  0.00  0.00    +0.145 HD
ENDBRANCH   9  14
ENDBRANCH   8   9
ENDBRANCH   2   8
BRANCH   4  23
ATOM     23  O   UNL     1      31.945 -22.903 -17.424  0.00  0.00    -0.452 OA
BRANCH  23  25
ATOM     24 CL   UNL     1      36.922 -22.388 -16.496  0.00  0.00    -0.082 Cl
ATOM     25  C   UNL     1      33.161 -22.363 -17.807  0.00  0.00    +0.147 C 
ATOM     26  C   UNL     1      33.221 -21.575 -18.944  0.00  0.00    +0.048 C 
ATOM     27  C   UNL     1      34.285 -22.622 -17.044  0.00  0.00    +0.049 C 
ATOM     28  C   UNL     1      34.445 -21.030 -19.329  0.00  0.00    +0.072 C 
ATOM     29  C   UNL     1      35.510 -22.077 -17.429  0.00  0.00    +0.061 C 
ATOM     30  C   UNL     1      35.590 -21.281 -18.572  0.00  0.00    +0.022 C 
BRANCH  28  32
ATOM     31  N   UNL     1      34.593 -19.551 -21.455  0.00  0.00    -0.191 NA
ATOM     32  C   UNL     1      34.527 -20.215 -20.500  0.00  0.00    +0.101 C 
ENDBRANCH  28  32
ENDBRANCH  23  25
ENDBRANCH   4  23
TORSDOF 6
ENDMDL
