MODEL 1
REMARK VINA RESULT:     -12.4      0.000      0.000
REMARK  Name = 11633167
REMARK  7 active torsions:
REMARK  status: ('A' for Active; 'I' for Inactive)
REMARK    1  A    between atoms: C_1  and  C_8
REMARK    2  A    between atoms: C_2  and  C_25
REMARK    3  A    between atoms: C_4  and  O_17
REMARK    4  A    between atoms: O_17  and  C_18
REMARK    5  A    between atoms: C_18  and  C_20
REMARK    6  A    between atoms: C_25  and  N_26
REMARK    7  A    between atoms: N_26  and  C_29
REMARK                            x       y       z     vdW  Elec       q    Type
REMARK                         _______ _______ _______ _____ _____    ______ ____
ROOT
ATOM      1  C   UNL     1      35.324 -20.641 -19.499  0.00  0.00    -0.000 C 
ATOM      2  C   UNL     1      34.145 -22.126 -18.003  0.00  0.00    +0.031 C 
ATOM      3  C   UNL     1      34.140 -21.257 -19.095  0.00  0.00    +0.000 C 
ATOM      4  C   UNL     1      35.333 -22.379 -17.319  0.00  0.00    +0.137 C 
ATOM      5  C   UNL     1      36.512 -20.894 -18.816  0.00  0.00    +0.003 C 
ATOM      6  C   UNL     1      36.518 -21.764 -17.725  0.00  0.00    +0.037 C 
ENDROOT
BRANCH   1   8
ATOM      7  N   UNL     1      33.450 -18.780 -23.705  0.00  0.00    -0.312 N 
ATOM      8  C   UNL     1      35.320 -19.739 -20.632  0.00  0.00    +0.001 C 
ATOM      9  C   UNL     1      34.319 -18.929 -22.648  0.00  0.00    +0.048 C 
ATOM     10  C   UNL     1      35.332 -17.981 -22.812  0.00  0.00    +0.015 C 
ATOM     11  C   UNL     1      34.286 -19.820 -21.569  0.00  0.00    +0.015 C 
ATOM     12  C   UNL     1      36.343 -18.804 -20.770  0.00  0.00    +0.000 C 
ATOM     13  C   UNL     1      36.364 -17.919 -21.854  0.00  0.00    +0.001 C 
ATOM     14  C   UNL     1      35.040 -17.259 -24.003  0.00  0.00    +0.017 C 
ATOM     15  C   UNL     1      33.878 -17.774 -24.530  0.00  0.00    +0.062 C 
ATOM     16  H   UNL     1      32.639 -19.319 -23.849  0.00  0.00    +0.152 HD
ENDBRANCH   1   8
BRANCH   4  17
ATOM     17  O   UNL     1      35.357 -23.225 -16.252  0.00  0.00    -0.469 OA
BRANCH  17  18
ATOM     18  C   UNL     1      36.324 -22.963 -15.237  0.00  0.00    +0.251 C 
BRANCH  18  20
ATOM     19  N   UNL     1      36.137 -25.370 -15.057  0.00  0.00    -0.244 NA
ATOM     20  C   UNL     1      36.814 -24.267 -14.680  0.00  0.00    +0.103 C 
ATOM     21  C   UNL     1      37.906 -24.268 -13.833  0.00  0.00    +0.018 C 
ATOM     22  C   UNL     1      38.334 -25.492 -13.334  0.00  0.00    +0.003 C 
ATOM     23  C   UNL     1      36.582 -26.542 -14.552  0.00  0.00    +0.099 C 
ATOM     24  C   UNL     1      37.665 -26.657 -13.695  0.00  0.00    +0.021 C 
ENDBRANCH  18  20
ENDBRANCH  17  18
ENDBRANCH   4  17
BRANCH   2  25
ATOM     25  C   UNL     1      32.870 -22.777 -17.582  0.00  0.00    +0.117 C 
BRANCH  25  26
ATOM     26  N   UNL     1      32.620 -22.634 -16.147  0.00  0.00    -0.327 N 
ATOM     27  H   UNL     1      33.173 -22.000 -15.635  0.00  0.00    +0.147 HD
BRANCH  26  29
ATOM     28  N   UNL     1      30.998 -24.918 -13.724  0.00  0.00    -0.228 NA
ATOM     29  C   UNL     1      31.650 -23.345 -15.480  0.00  0.00    +0.077 C 
ATOM     30  C   UNL     1      31.923 -24.204 -14.404  0.00  0.00    +0.139 C 
ATOM     31  C   UNL     1      30.297 -23.244 -15.851  0.00  0.00    +0.019 C 
ATOM     32  C   UNL     1      29.316 -23.963 -15.175  0.00  0.00    +0.022 C 
ATOM     33  C   UNL     1      29.716 -24.778 -14.128  0.00  0.00    +0.100 C 
ATOM     34  N   UNL     1      33.277 -24.329 -14.004  0.00  0.00    -0.342 N 
ATOM     35  H   UNL     1      33.515 -24.921 -13.254  0.00  0.00    +0.144 HD
ATOM     36  H   UNL     1      33.979 -23.825 -14.476  0.00  0.00    +0.144 HD
ENDBRANCH  26  29
ENDBRANCH  25  26
ENDBRANCH   2  25
TORSDOF 7
ENDMDL
MODEL 2
REMARK VINA RESULT:     -12.3      1.261      4.765
REMARK  Name = 11633167
REMARK  7 active torsions:
REMARK  status: ('A' for Active; 'I' for Inactive)
REMARK    1  A    between atoms: C_1  and  C_8
REMARK    2  A    between atoms: C_2  and  C_25
REMARK    3  A    between atoms: C_4  and  O_17
REMARK    4  A    between atoms: O_17  and  C_18
REMARK    5  A    between atoms: C_18  and  C_20
REMARK    6  A    between atoms: C_25  and  N_26
REMARK    7  A    between atoms: N_26  and  C_29
REMARK                            x       y       z     vdW  Elec       q    Type
REMARK                         _______ _______ _______ _____ _____    ______ ____
ROOT
ATOM      1  C   UNL     1      35.166 -21.476 -18.423  0.00  0.00    -0.000 C 
ATOM      2  C   UNL     1      35.851 -22.511 -16.351  0.00  0.00    +0.031 C 
ATOM      3  C   UNL     1      36.112 -21.643 -17.412  0.00  0.00    +0.000 C 
ATOM      4  C   UNL     1      34.646 -23.210 -16.302  0.00  0.00    +0.137 C 
ATOM      5  C   UNL     1      33.961 -22.174 -18.374  0.00  0.00    +0.003 C 
ATOM      6  C   UNL     1      33.700 -23.041 -17.313  0.00  0.00    +0.037 C 
ENDROOT
BRANCH   1   8
ATOM      7  N   UNL     1      33.948 -18.993 -22.548  0.00  0.00    -0.312 N 
ATOM      8  C   UNL     1      35.436 -20.576 -19.524  0.00  0.00    +0.001 C 
ATOM      9  C   UNL     1      34.730 -19.433 -21.504  0.00  0.00    +0.048 C 
ATOM     10  C   UNL     1      35.982 -18.831 -21.646  0.00  0.00    +0.015 C 
ATOM     11  C   UNL     1      34.427 -20.309 -20.455  0.00  0.00    +0.015 C 
ATOM     12  C   UNL     1      36.694 -19.990 -19.641  0.00  0.00    +0.000 C 
ATOM     13  C   UNL     1      36.983 -19.116 -20.695  0.00  0.00    +0.001 C 
ATOM     14  C   UNL     1      35.924 -18.014 -22.809  0.00  0.00    +0.017 C 
ATOM     15  C   UNL     1      34.661 -18.136 -23.343  0.00  0.00    +0.062 C 
ATOM     16  H   UNL     1      33.012 -19.257 -22.702  0.00  0.00    +0.152 HD
ENDBRANCH   1   8
BRANCH   4  17
ATOM     17  O   UNL     1      34.375 -24.061 -15.274  0.00  0.00    -0.469 OA
BRANCH  17  18
ATOM     18  C   UNL     1      33.792 -23.496 -14.101  0.00  0.00    +0.251 C 
BRANCH  18  20
ATOM     19  N   UNL     1      31.952 -25.014 -13.687  0.00  0.00    -0.244 NA
ATOM     20  C   UNL     1      32.320 -23.784 -14.099  0.00  0.00    +0.103 C 
ATOM     21  C   UNL     1      31.442 -22.799 -14.507  0.00  0.00    +0.018 C 
ATOM     22  C   UNL     1      30.085 -23.097 -14.494  0.00  0.00    +0.003 C 
ATOM     23  C   UNL     1      30.624 -25.268 -13.687  0.00  0.00    +0.099 C 
ATOM     24  C   UNL     1      29.659 -24.353 -14.076  0.00  0.00    +0.021 C 
ENDBRANCH  18  20
ENDBRANCH  17  18
ENDBRANCH   4  17
BRANCH   2  25
ATOM     25  C   UNL     1      36.875 -22.679 -15.278  0.00  0.00    +0.117 C 
BRANCH  25  26
ATOM     26  N   UNL     1      37.298 -24.071 -15.127  0.00  0.00    -0.327 N 
ATOM     27  H   UNL     1      37.544 -24.578 -15.934  0.00  0.00    +0.147 HD
BRANCH  26  29
ATOM     28  N   UNL     1      36.920 -26.654 -12.499  0.00  0.00    -0.228 NA
ATOM     29  C   UNL     1      37.370 -24.707 -13.909  0.00  0.00    +0.077 C 
ATOM     30  C   UNL     1      36.870 -25.998 -13.680  0.00  0.00    +0.139 C 
ATOM     31  C   UNL     1      37.964 -24.078 -12.800  0.00  0.00    +0.019 C 
ATOM     32  C   UNL     1      38.036 -24.721 -11.568  0.00  0.00    +0.022 C 
ATOM     33  C   UNL     1      37.504 -25.997 -11.472  0.00  0.00    +0.100 C 
ATOM     34  N   UNL     1      36.263 -26.661 -14.776  0.00  0.00    -0.342 N 
ATOM     35  H   UNL     1      35.898 -27.568 -14.662  0.00  0.00    +0.144 HD
ATOM     36  H   UNL     1      36.207 -26.214 -15.652  0.00  0.00    +0.144 HD
ENDBRANCH  26  29
ENDBRANCH  25  26
ENDBRANCH   2  25
TORSDOF 7
ENDMDL
MODEL 3
REMARK VINA RESULT:     -12.2      0.918      1.483
REMARK  Name = 11633167
REMARK  7 active torsions:
REMARK  status: ('A' for Active; 'I' for Inactive)
REMARK    1  A    between atoms: C_1  and  C_8
REMARK    2  A    between atoms: C_2  and  C_25
REMARK    3  A    between atoms: C_4  and  O_17
REMARK    4  A    between atoms: O_17  and  C_18
REMARK    5  A    between atoms: C_18  and  C_20
REMARK    6  A    between atoms: C_25  and  N_26
REMARK    7  A    between atoms: N_26  and  C_29
REMARK                            x       y       z     vdW  Elec       q    Type
REMARK                         _______ _______ _______ _____ _____    ______ ____
ROOT
ATOM      1  C   UNL     1      35.319 -20.582 -19.542  0.00  0.00    -0.000 C 
ATOM      2  C   UNL     1      34.169 -22.144 -18.103  0.00  0.00    +0.031 C 
ATOM      3  C   UNL     1      34.151 -21.250 -19.174  0.00  0.00    +0.000 C 
ATOM      4  C   UNL     1      35.353 -22.368 -17.401  0.00  0.00    +0.137 C 
ATOM      5  C   UNL     1      36.503 -20.805 -18.841  0.00  0.00    +0.003 C 
ATOM      6  C   UNL     1      36.520 -21.700 -17.770  0.00  0.00    +0.037 C 
ENDROOT
BRANCH   1   8
ATOM      7  N   UNL     1      33.497 -18.740 -23.779  0.00  0.00    -0.312 N 
ATOM      8  C   UNL     1      35.301 -19.654 -20.653  0.00  0.00    +0.001 C 
ATOM      9  C   UNL     1      34.331 -18.860 -22.691  0.00  0.00    +0.048 C 
ATOM     10  C   UNL     1      35.287 -17.847 -22.793  0.00  0.00    +0.015 C 
ATOM     11  C   UNL     1      34.312 -19.777 -21.634  0.00  0.00    +0.015 C 
ATOM     12  C   UNL     1      36.267 -18.654 -20.729  0.00  0.00    +0.000 C 
ATOM     13  C   UNL     1      36.274 -17.743 -21.792  0.00  0.00    +0.001 C 
ATOM     14  C   UNL     1      34.997 -17.116 -23.978  0.00  0.00    +0.017 C 
ATOM     15  C   UNL     1      33.892 -17.690 -24.564  0.00  0.00    +0.062 C 
ATOM     16  H   UNL     1      32.728 -19.326 -23.967  0.00  0.00    +0.152 HD
ENDBRANCH   1   8
BRANCH   4  17
ATOM     17  O   UNL     1      35.388 -23.237 -16.353  0.00  0.00    -0.469 OA
BRANCH  17  18
ATOM     18  C   UNL     1      36.171 -22.858 -15.222  0.00  0.00    +0.251 C 
BRANCH  18  20
ATOM     19  N   UNL     1      38.197 -23.888 -14.389  0.00  0.00    -0.244 NA
ATOM     20  C   UNL     1      36.898 -24.064 -14.704  0.00  0.00    +0.103 C 
ATOM     21  C   UNL     1      36.216 -25.259 -14.581  0.00  0.00    +0.018 C 
ATOM     22  C   UNL     1      36.919 -26.356 -14.098  0.00  0.00    +0.003 C 
ATOM     23  C   UNL     1      38.848 -24.976 -13.922  0.00  0.00    +0.099 C 
ATOM     24  C   UNL     1      38.261 -26.221 -13.759  0.00  0.00    +0.021 C 
ENDBRANCH  18  20
ENDBRANCH  17  18
ENDBRANCH   4  17
BRANCH   2  25
ATOM     25  C   UNL     1      32.911 -22.851 -17.721  0.00  0.00    +0.117 C 
BRANCH  25  26
ATOM     26  N   UNL     1      32.370 -22.374 -16.449  0.00  0.00    -0.327 N 
ATOM     27  H   UNL     1      32.422 -21.412 -16.246  0.00  0.00    +0.147 HD
BRANCH  26  29
ATOM     28  N   UNL     1      29.806 -24.273 -14.566  0.00  0.00    -0.228 NA
ATOM     29  C   UNL     1      31.790 -23.208 -15.520  0.00  0.00    +0.077 C 
ATOM     30  C   UNL     1      30.412 -23.462 -15.463  0.00  0.00    +0.139 C 
ATOM     31  C   UNL     1      32.571 -23.866 -14.553  0.00  0.00    +0.019 C 
ATOM     32  C   UNL     1      31.985 -24.708 -13.614  0.00  0.00    +0.022 C 
ATOM     33  C   UNL     1      30.610 -24.876 -13.663  0.00  0.00    +0.100 C 
ATOM     34  N   UNL     1      29.594 -22.814 -16.423  0.00  0.00    -0.342 N 
ATOM     35  H   UNL     1      28.621 -22.964 -16.421  0.00  0.00    +0.144 HD
ATOM     36  H   UNL     1      29.999 -22.216 -17.092  0.00  0.00    +0.144 HD
ENDBRANCH  26  29
ENDBRANCH  25  26
ENDBRANCH   2  25
TORSDOF 7
ENDMDL
MODEL 4
REMARK VINA RESULT:     -11.8      1.394      5.389
REMARK  Name = 11633167
REMARK  7 active torsions:
REMARK  status: ('A' for Active; 'I' for Inactive)
REMARK    1  A    between atoms: C_1  and  C_8
REMARK    2  A    between atoms: C_2  and  C_25
REMARK    3  A    between atoms: C_4  and  O_17
REMARK    4  A    between atoms: O_17  and  C_18
REMARK    5  A    between atoms: C_18  and  C_20
REMARK    6  A    between atoms: C_25  and  N_26
REMARK    7  A    between atoms: N_26  and  C_29
REMARK                            x       y       z     vdW  Elec       q    Type
REMARK                         _______ _______ _______ _____ _____    ______ ____
ROOT
ATOM      1  C   UNL     1      34.902 -21.675 -18.199  0.00  0.00    -0.000 C 
ATOM      2  C   UNL     1      35.418 -22.733 -16.090  0.00  0.00    +0.031 C 
ATOM      3  C   UNL     1      35.776 -21.876 -17.131  0.00  0.00    +0.000 C 
ATOM      4  C   UNL     1      34.187 -23.388 -16.118  0.00  0.00    +0.137 C 
ATOM      5  C   UNL     1      33.671 -22.328 -18.227  0.00  0.00    +0.003 C 
ATOM      6  C   UNL     1      33.312 -23.185 -17.186  0.00  0.00    +0.037 C 
ENDROOT
BRANCH   1   8
ATOM      7  N   UNL     1      33.995 -19.035 -22.307  0.00  0.00    -0.312 N 
ATOM      8  C   UNL     1      35.273 -20.785 -19.279  0.00  0.00    +0.001 C 
ATOM      9  C   UNL     1      34.712 -19.557 -21.254  0.00  0.00    +0.048 C 
ATOM     10  C   UNL     1      36.015 -19.063 -21.360  0.00  0.00    +0.015 C 
ATOM     11  C   UNL     1      34.312 -20.418 -20.226  0.00  0.00    +0.015 C 
ATOM     12  C   UNL     1      36.579 -20.309 -19.360  0.00  0.00    +0.000 C 
ATOM     13  C   UNL     1      36.966 -19.448 -20.394  0.00  0.00    +0.001 C 
ATOM     14  C   UNL     1      36.053 -18.228 -22.510  0.00  0.00    +0.017 C 
ATOM     15  C   UNL     1      34.797 -18.231 -23.073  0.00  0.00    +0.062 C 
ATOM     16  H   UNL     1      33.044 -19.214 -22.484  0.00  0.00    +0.152 HD
ENDBRANCH   1   8
BRANCH   4  17
ATOM     17  O   UNL     1      33.821 -24.228 -15.111  0.00  0.00    -0.469 OA
BRANCH  17  18
ATOM     18  C   UNL     1      33.064 -23.667 -14.040  0.00  0.00    +0.251 C 
BRANCH  18  20
ATOM     19  N   UNL     1      31.232 -25.249 -14.023  0.00  0.00    -0.244 NA
ATOM     20  C   UNL     1      31.611 -23.976 -14.253  0.00  0.00    +0.103 C 
ATOM     21  C   UNL     1      30.762 -22.966 -14.661  0.00  0.00    +0.018 C 
ATOM     22  C   UNL     1      29.423 -23.286 -14.848  0.00  0.00    +0.003 C 
ATOM     23  C   UNL     1      29.923 -25.523 -14.216  0.00  0.00    +0.099 C 
ATOM     24  C   UNL     1      28.986 -24.587 -14.623  0.00  0.00    +0.021 C 
ENDBRANCH  18  20
ENDBRANCH  17  18
ENDBRANCH   4  17
BRANCH   2  25
ATOM     25  C   UNL     1      36.365 -22.939 -14.955  0.00  0.00    +0.117 C 
BRANCH  25  26
ATOM     26  N   UNL     1      36.592 -24.356 -14.670  0.00  0.00    -0.327 N 
ATOM     27  H   UNL     1      35.834 -24.979 -14.749  0.00  0.00    +0.147 HD
BRANCH  26  29
ATOM     28  N   UNL     1      39.180 -26.264 -12.831  0.00  0.00    -0.228 NA
ATOM     29  C   UNL     1      37.817 -24.859 -14.298  0.00  0.00    +0.077 C 
ATOM     30  C   UNL     1      37.994 -25.749 -13.227  0.00  0.00    +0.139 C 
ATOM     31  C   UNL     1      38.987 -24.499 -14.990  0.00  0.00    +0.019 C 
ATOM     32  C   UNL     1      40.226 -25.008 -14.613  0.00  0.00    +0.022 C 
ATOM     33  C   UNL     1      40.267 -25.880 -13.536  0.00  0.00    +0.100 C 
ATOM     34  N   UNL     1      36.835 -26.133 -12.507  0.00  0.00    -0.342 N 
ATOM     35  H   UNL     1      36.912 -26.755 -11.748  0.00  0.00    +0.144 HD
ATOM     36  H   UNL     1      35.954 -25.778 -12.766  0.00  0.00    +0.144 HD
ENDBRANCH  26  29
ENDBRANCH  25  26
ENDBRANCH   2  25
TORSDOF 7
ENDMDL
MODEL 5
REMARK VINA RESULT:     -11.2      1.198      1.731
REMARK  Name = 11633167
REMARK  7 active torsions:
REMARK  status: ('A' for Active; 'I' for Inactive)
REMARK    1  A    between atoms: C_1  and  C_8
REMARK    2  A    between atoms: C_2  and  C_25
REMARK    3  A    between atoms: C_4  and  O_17
REMARK    4  A    between atoms: O_17  and  C_18
REMARK    5  A    between atoms: C_18  and  C_20
REMARK    6  A    between atoms: C_25  and  N_26
REMARK    7  A    between atoms: N_26  and  C_29
REMARK                            x       y       z     vdW  Elec       q    Type
REMARK                         _______ _______ _______ _____ _____    ______ ____
ROOT
ATOM      1  C   UNL     1      35.648 -21.440 -18.120  0.00  0.00    -0.000 C 
ATOM      2  C   UNL     1      34.356 -22.986 -16.788  0.00  0.00    +0.031 C 
ATOM      3  C   UNL     1      34.480 -22.175 -17.916  0.00  0.00    +0.000 C 
ATOM      4  C   UNL     1      35.399 -23.063 -15.866  0.00  0.00    +0.137 C 
ATOM      5  C   UNL     1      36.691 -21.516 -17.198  0.00  0.00    +0.003 C 
ATOM      6  C   UNL     1      36.567 -22.328 -16.071  0.00  0.00    +0.037 C 
ENDROOT
BRANCH   1   8
ATOM      7  N   UNL     1      33.956 -19.259 -22.248  0.00  0.00    -0.312 N 
ATOM      8  C   UNL     1      35.778 -20.597 -19.290  0.00  0.00    +0.001 C 
ATOM      9  C   UNL     1      34.847 -19.604 -21.257  0.00  0.00    +0.048 C 
ATOM     10  C   UNL     1      36.053 -18.961 -21.547  0.00  0.00    +0.015 C 
ATOM     11  C   UNL     1      34.679 -20.427 -20.137  0.00  0.00    +0.015 C 
ATOM     12  C   UNL     1      36.992 -19.969 -19.553  0.00  0.00    +0.000 C 
ATOM     13  C   UNL     1      37.146 -19.149 -20.677  0.00  0.00    +0.001 C 
ATOM     14  C   UNL     1      35.854 -18.218 -22.743  0.00  0.00    +0.017 C 
ATOM     15  C   UNL     1      34.556 -18.422 -23.152  0.00  0.00    +0.062 C 
ATOM     16  H   UNL     1      33.023 -19.568 -22.301  0.00  0.00    +0.152 HD
ENDBRANCH   1   8
BRANCH   4  17
ATOM     17  O   UNL     1      35.295 -23.850 -14.759  0.00  0.00    -0.469 OA
BRANCH  17  18
ATOM     18  C   UNL     1      35.793 -25.182 -14.862  0.00  0.00    +0.251 C 
BRANCH  18  20
ATOM     19  N   UNL     1      38.068 -26.011 -14.817  0.00  0.00    -0.244 NA
ATOM     20  C   UNL     1      37.137 -25.255 -14.199  0.00  0.00    +0.103 C 
ATOM     21  C   UNL     1      37.345 -24.561 -13.023  0.00  0.00    +0.018 C 
ATOM     22  C   UNL     1      38.601 -24.650 -12.435  0.00  0.00    +0.003 C 
ATOM     23  C   UNL     1      39.276 -26.073 -14.216  0.00  0.00    +0.099 C 
ATOM     24  C   UNL     1      39.592 -25.418 -13.036  0.00  0.00    +0.021 C 
ENDBRANCH  18  20
ENDBRANCH  17  18
ENDBRANCH   4  17
BRANCH   2  25
ATOM     25  C   UNL     1      33.100 -23.766 -16.585  0.00  0.00    +0.117 C 
BRANCH  25  26
ATOM     26  N   UNL     1      32.300 -23.252 -15.473  0.00  0.00    -0.327 N 
ATOM     27  H   UNL     1      32.760 -22.774 -14.745  0.00  0.00    +0.147 HD
BRANCH  26  29
ATOM     28  N   UNL     1      28.971 -24.530 -14.472  0.00  0.00    -0.228 NA
ATOM     29  C   UNL     1      30.935 -23.403 -15.397  0.00  0.00    +0.077 C 
ATOM     30  C   UNL     1      30.307 -24.351 -14.574  0.00  0.00    +0.139 C 
ATOM     31  C   UNL     1      30.075 -22.594 -16.160  0.00  0.00    +0.019 C 
ATOM     32  C   UNL     1      28.694 -22.748 -16.083  0.00  0.00    +0.022 C 
ATOM     33  C   UNL     1      28.198 -23.722 -15.231  0.00  0.00    +0.100 C 
ATOM     34  N   UNL     1      31.145 -25.184 -13.791  0.00  0.00    -0.342 N 
ATOM     35  H   UNL     1      30.748 -25.863 -13.199  0.00  0.00    +0.144 HD
ATOM     36  H   UNL     1      32.124 -25.084 -13.839  0.00  0.00    +0.144 HD
ENDBRANCH  26  29
ENDBRANCH  25  26
ENDBRANCH   2  25
TORSDOF 7
ENDMDL
MODEL 6
REMARK VINA RESULT:     -10.2      1.968      5.234
REMARK  Name = 11633167
REMARK  7 active torsions:
REMARK  status: ('A' for Active; 'I' for Inactive)
REMARK    1  A    between atoms: C_1  and  C_8
REMARK    2  A    between atoms: C_2  and  C_25
REMARK    3  A    between atoms: C_4  and  O_17
REMARK    4  A    between atoms: O_17  and  C_18
REMARK    5  A    between atoms: C_18  and  C_20
REMARK    6  A    between atoms: C_25  and  N_26
REMARK    7  A    between atoms: N_26  and  C_29
REMARK                            x       y       z     vdW  Elec       q    Type
REMARK                         _______ _______ _______ _____ _____    ______ ____
ROOT
ATOM      1  C   UNL     1      34.376 -21.627 -18.278  0.00  0.00    -0.000 C 
ATOM      2  C   UNL     1      34.964 -22.848 -16.280  0.00  0.00    +0.031 C 
ATOM      3  C   UNL     1      35.330 -22.017 -17.340  0.00  0.00    +0.000 C 
ATOM      4  C   UNL     1      33.646 -23.286 -16.160  0.00  0.00    +0.137 C 
ATOM      5  C   UNL     1      33.058 -22.065 -18.160  0.00  0.00    +0.003 C 
ATOM      6  C   UNL     1      32.692 -22.894 -17.099  0.00  0.00    +0.037 C 
ENDROOT
BRANCH   1   8
ATOM      7  N   UNL     1      37.604 -18.929 -20.917  0.00  0.00    -0.312 N 
ATOM      8  C   UNL     1      34.754 -20.765 -19.379  0.00  0.00    +0.001 C 
ATOM      9  C   UNL     1      36.403 -19.499 -20.563  0.00  0.00    +0.048 C 
ATOM     10  C   UNL     1      35.463 -19.100 -21.517  0.00  0.00    +0.015 C 
ATOM     11  C   UNL     1      36.079 -20.330 -19.485  0.00  0.00    +0.015 C 
ATOM     12  C   UNL     1      33.796 -20.383 -20.314  0.00  0.00    +0.000 C 
ATOM     13  C   UNL     1      34.134 -19.551 -21.388  0.00  0.00    +0.001 C 
ATOM     14  C   UNL     1      36.142 -18.273 -22.453  0.00  0.00    +0.017 C 
ATOM     15  C   UNL     1      37.457 -18.184 -22.057  0.00  0.00    +0.062 C 
ATOM     16  H   UNL     1      38.448 -19.038 -20.421  0.00  0.00    +0.152 HD
ENDBRANCH   1   8
BRANCH   4  17
ATOM     17  O   UNL     1      33.272 -24.097 -15.132  0.00  0.00    -0.469 OA
BRANCH  17  18
ATOM     18  C   UNL     1      32.445 -23.524 -14.121  0.00  0.00    +0.251 C 
BRANCH  18  20
ATOM     19  N   UNL     1      30.236 -22.879 -14.874  0.00  0.00    -0.244 NA
ATOM     20  C   UNL     1      31.013 -23.875 -14.402  0.00  0.00    +0.103 C 
ATOM     21  C   UNL     1      30.580 -25.165 -14.171  0.00  0.00    +0.018 C 
ATOM     22  C   UNL     1      29.248 -25.457 -14.441  0.00  0.00    +0.003 C 
ATOM     23  C   UNL     1      28.947 -23.200 -15.125  0.00  0.00    +0.099 C 
ATOM     24  C   UNL     1      28.409 -24.462 -14.928  0.00  0.00    +0.021 C 
ENDBRANCH  18  20
ENDBRANCH  17  18
ENDBRANCH   4  17
BRANCH   2  25
ATOM     25  C   UNL     1      35.997 -23.257 -15.283  0.00  0.00    +0.117 C 
BRANCH  25  26
ATOM     26  N   UNL     1      35.619 -22.905 -13.914  0.00  0.00    -0.327 N 
ATOM     27  H   UNL     1      34.909 -22.236 -13.780  0.00  0.00    +0.147 HD
BRANCH  26  29
ATOM     28  N   UNL     1      36.133 -25.005 -10.906  0.00  0.00    -0.228 NA
ATOM     29  C   UNL     1      36.209 -23.464 -12.804  0.00  0.00    +0.077 C 
ATOM     30  C   UNL     1      35.587 -24.433 -12.003  0.00  0.00    +0.139 C 
ATOM     31  C   UNL     1      37.502 -23.082 -12.405  0.00  0.00    +0.019 C 
ATOM     32  C   UNL     1      38.099 -23.648 -11.282  0.00  0.00    +0.022 C 
ATOM     33  C   UNL     1      37.377 -24.597 -10.574  0.00  0.00    +0.100 C 
ATOM     34  N   UNL     1      34.281 -24.841 -12.377  0.00  0.00    -0.342 N 
ATOM     35  H   UNL     1      33.806 -25.519 -11.844  0.00  0.00    +0.144 HD
ATOM     36  H   UNL     1      33.850 -24.446 -13.170  0.00  0.00    +0.144 HD
ENDBRANCH  26  29
ENDBRANCH  25  26
ENDBRANCH   2  25
TORSDOF 7
ENDMDL
MODEL 7
REMARK VINA RESULT:     -10.2      1.956      8.289
REMARK  Name = 11633167
REMARK  7 active torsions:
REMARK  status: ('A' for Active; 'I' for Inactive)
REMARK    1  A    between atoms: C_1  and  C_8
REMARK    2  A    between atoms: C_2  and  C_25
REMARK    3  A    between atoms: C_4  and  O_17
REMARK    4  A    between atoms: O_17  and  C_18
REMARK    5  A    between atoms: C_18  and  C_20
REMARK    6  A    between atoms: C_25  and  N_26
REMARK    7  A    between atoms: N_26  and  C_29
REMARK                            x       y       z     vdW  Elec       q    Type
REMARK                         _______ _______ _______ _____ _____    ______ ____
ROOT
ATOM      1  C   UNL     1      33.801 -22.987 -16.419  0.00  0.00    -0.000 C 
ATOM      2  C   UNL     1      36.053 -22.181 -16.753  0.00  0.00    +0.031 C 
ATOM      3  C   UNL     1      35.075 -22.720 -15.917  0.00  0.00    +0.000 C 
ATOM      4  C   UNL     1      35.757 -21.911 -18.089  0.00  0.00    +0.137 C 
ATOM      5  C   UNL     1      33.505 -22.717 -17.754  0.00  0.00    +0.003 C 
ATOM      6  C   UNL     1      34.484 -22.179 -18.590  0.00  0.00    +0.037 C 
ENDROOT
BRANCH   1   8
ATOM      7  N   UNL     1      29.171 -24.410 -15.323  0.00  0.00    -0.312 N 
ATOM      8  C   UNL     1      32.785 -23.546 -15.552  0.00  0.00    +0.001 C 
ATOM      9  C   UNL     1      30.518 -24.192 -15.143  0.00  0.00    +0.048 C 
ATOM     10  C   UNL     1      30.838 -24.630 -13.856  0.00  0.00    +0.015 C 
ATOM     11  C   UNL     1      31.469 -23.646 -16.013  0.00  0.00    +0.015 C 
ATOM     12  C   UNL     1      33.133 -23.975 -14.273  0.00  0.00    +0.000 C 
ATOM     13  C   UNL     1      32.171 -24.518 -13.413  0.00  0.00    +0.001 C 
ATOM     14  C   UNL     1      29.637 -25.120 -13.271  0.00  0.00    +0.017 C 
ATOM     15  C   UNL     1      28.629 -24.970 -14.196  0.00  0.00    +0.062 C 
ATOM     16  H   UNL     1      28.669 -24.195 -16.142  0.00  0.00    +0.152 HD
ENDBRANCH   1   8
BRANCH   4  17
ATOM     17  O   UNL     1      36.701 -21.385 -18.919  0.00  0.00    -0.469 OA
BRANCH  17  18
ATOM     18  C   UNL     1      36.805 -19.964 -18.965  0.00  0.00    +0.251 C 
BRANCH  18  20
ATOM     19  N   UNL     1      35.009 -19.848 -20.585  0.00  0.00    -0.244 NA
ATOM     20  C   UNL     1      36.268 -19.476 -20.279  0.00  0.00    +0.103 C 
ATOM     21  C   UNL     1      37.072 -18.691 -21.083  0.00  0.00    +0.018 C 
ATOM     22  C   UNL     1      36.544 -18.256 -22.293  0.00  0.00    +0.003 C 
ATOM     23  C   UNL     1      34.530 -19.406 -21.769  0.00  0.00    +0.099 C 
ATOM     24  C   UNL     1      35.250 -18.615 -22.650  0.00  0.00    +0.021 C 
ENDBRANCH  18  20
ENDBRANCH  17  18
ENDBRANCH   4  17
BRANCH   2  25
ATOM     25  C   UNL     1      37.411 -21.901 -16.201  0.00  0.00    +0.117 C 
BRANCH  25  26
ATOM     26  N   UNL     1      38.115 -23.122 -15.809  0.00  0.00    -0.327 N 
ATOM     27  H   UNL     1      38.649 -23.596 -16.487  0.00  0.00    +0.147 HD
BRANCH  26  29
ATOM     28  N   UNL     1      38.821 -25.270 -12.875  0.00  0.00    -0.228 NA
ATOM     29  C   UNL     1      38.065 -23.642 -14.536  0.00  0.00    +0.077 C 
ATOM     30  C   UNL     1      38.842 -24.731 -14.115  0.00  0.00    +0.139 C 
ATOM     31  C   UNL     1      37.209 -23.093 -13.565  0.00  0.00    +0.019 C 
ATOM     32  C   UNL     1      37.159 -23.619 -12.278  0.00  0.00    +0.022 C 
ATOM     33  C   UNL     1      37.978 -24.698 -11.987  0.00  0.00    +0.100 C 
ATOM     34  N   UNL     1      39.717 -25.310 -15.070  0.00  0.00    -0.342 N 
ATOM     35  H   UNL     1      40.281 -26.076 -14.818  0.00  0.00    +0.144 HD
ATOM     36  H   UNL     1      39.759 -24.945 -15.983  0.00  0.00    +0.144 HD
ENDBRANCH  26  29
ENDBRANCH  25  26
ENDBRANCH   2  25
TORSDOF 7
ENDMDL
MODEL 8
REMARK VINA RESULT:     -10.0      1.742      8.371
REMARK  Name = 11633167
REMARK  7 active torsions:
REMARK  status: ('A' for Active; 'I' for Inactive)
REMARK    1  A    between atoms: C_1  and  C_8
REMARK    2  A    between atoms: C_2  and  C_25
REMARK    3  A    between atoms: C_4  and  O_17
REMARK    4  A    between atoms: O_17  and  C_18
REMARK    5  A    between atoms: C_18  and  C_20
REMARK    6  A    between atoms: C_25  and  N_26
REMARK    7  A    between atoms: N_26  and  C_29
REMARK                            x       y       z     vdW  Elec       q    Type
REMARK                         _______ _______ _______ _____ _____    ______ ____
ROOT
ATOM      1  C   UNL     1      33.379 -22.517 -17.101  0.00  0.00    -0.000 C 
ATOM      2  C   UNL     1      35.707 -22.025 -17.510  0.00  0.00    +0.031 C 
ATOM      3  C   UNL     1      34.702 -22.494 -16.663  0.00  0.00    +0.000 C 
ATOM      4  C   UNL     1      35.387 -21.580 -18.792  0.00  0.00    +0.137 C 
ATOM      5  C   UNL     1      33.058 -22.073 -18.383  0.00  0.00    +0.003 C 
ATOM      6  C   UNL     1      34.063 -21.605 -19.230  0.00  0.00    +0.037 C 
ENDROOT
BRANCH   1   8
ATOM      7  N   UNL     1      31.687 -24.893 -13.081  0.00  0.00    -0.312 N 
ATOM      8  C   UNL     1      32.335 -23.004 -16.223  0.00  0.00    +0.001 C 
ATOM      9  C   UNL     1      31.645 -24.174 -14.254  0.00  0.00    +0.048 C 
ATOM     10  C   UNL     1      30.298 -23.933 -14.540  0.00  0.00    +0.015 C 
ATOM     11  C   UNL     1      32.684 -23.722 -15.076  0.00  0.00    +0.015 C 
ATOM     12  C   UNL     1      31.001 -22.749 -16.533  0.00  0.00    +0.000 C 
ATOM     13  C   UNL     1      29.972 -23.207 -15.702  0.00  0.00    +0.001 C 
ATOM     14  C   UNL     1      29.537 -24.531 -13.498  0.00  0.00    +0.017 C 
ATOM     15  C   UNL     1      30.418 -25.114 -12.616  0.00  0.00    +0.062 C 
ATOM     16  H   UNL     1      32.511 -25.204 -12.640  0.00  0.00    +0.152 HD
ENDBRANCH   1   8
BRANCH   4  17
ATOM     17  O   UNL     1      36.356 -21.119 -19.632  0.00  0.00    -0.469 OA
BRANCH  17  18
ATOM     18  C   UNL     1      36.720 -19.746 -19.510  0.00  0.00    +0.251 C 
BRANCH  18  20
ATOM     19  N   UNL     1      35.988 -17.631 -20.434  0.00  0.00    -0.244 NA
ATOM     20  C   UNL     1      36.063 -18.965 -20.611  0.00  0.00    +0.103 C 
ATOM     21  C   UNL     1      35.585 -19.638 -21.718  0.00  0.00    +0.018 C 
ATOM     22  C   UNL     1      34.982 -18.886 -22.719  0.00  0.00    +0.003 C 
ATOM     23  C   UNL     1      35.396 -16.932 -21.427  0.00  0.00    +0.099 C 
ATOM     24  C   UNL     1      34.882 -17.506 -22.579  0.00  0.00    +0.021 C 
ENDBRANCH  18  20
ENDBRANCH  17  18
ENDBRANCH   4  17
BRANCH   2  25
ATOM     25  C   UNL     1      37.119 -22.007 -17.027  0.00  0.00    +0.117 C 
BRANCH  25  26
ATOM     26  N   UNL     1      37.207 -22.003 -15.566  0.00  0.00    -0.327 N 
ATOM     27  H   UNL     1      36.978 -21.177 -15.083  0.00  0.00    +0.147 HD
BRANCH  26  29
ATOM     28  N   UNL     1      37.238 -24.648 -12.973  0.00  0.00    -0.228 NA
ATOM     29  C   UNL     1      37.594 -23.102 -14.835  0.00  0.00    +0.077 C 
ATOM     30  C   UNL     1      36.890 -23.574 -13.716  0.00  0.00    +0.139 C 
ATOM     31  C   UNL     1      38.747 -23.830 -15.180  0.00  0.00    +0.019 C 
ATOM     32  C   UNL     1      39.138 -24.941 -14.439  0.00  0.00    +0.022 C 
ATOM     33  C   UNL     1      38.356 -25.305 -13.355  0.00  0.00    +0.100 C 
ATOM     34  N   UNL     1      35.722 -22.863 -13.340  0.00  0.00    -0.342 N 
ATOM     35  H   UNL     1      35.196 -23.158 -12.562  0.00  0.00    +0.144 HD
ATOM     36  H   UNL     1      35.436 -22.075 -13.858  0.00  0.00    +0.144 HD
ENDBRANCH  26  29
ENDBRANCH  25  26
ENDBRANCH   2  25
TORSDOF 7
ENDMDL
MODEL 9
REMARK VINA RESULT:     -10.0      2.269      4.665
REMARK  Name = 11633167
REMARK  7 active torsions:
REMARK  status: ('A' for Active; 'I' for Inactive)
REMARK    1  A    between atoms: C_1  and  C_8
REMARK    2  A    between atoms: C_2  and  C_25
REMARK    3  A    between atoms: C_4  and  O_17
REMARK    4  A    between atoms: O_17  and  C_18
REMARK    5  A    between atoms: C_18  and  C_20
REMARK    6  A    between atoms: C_25  and  N_26
REMARK    7  A    between atoms: N_26  and  C_29
REMARK                            x       y       z     vdW  Elec       q    Type
REMARK                         _______ _______ _______ _____ _____    ______ ____
ROOT
ATOM      1  C   UNL     1      35.345 -21.269 -18.642  0.00  0.00    -0.000 C 
ATOM      2  C   UNL     1      36.308 -22.398 -16.737  0.00  0.00    +0.031 C 
ATOM      3  C   UNL     1      36.442 -21.532 -17.823  0.00  0.00    +0.000 C 
ATOM      4  C   UNL     1      35.078 -23.001 -16.473  0.00  0.00    +0.137 C 
ATOM      5  C   UNL     1      34.115 -21.871 -18.379  0.00  0.00    +0.003 C 
ATOM      6  C   UNL     1      33.981 -22.736 -17.293  0.00  0.00    +0.037 C 
ENDROOT
BRANCH   1   8
ATOM      7  N   UNL     1      33.737 -19.012 -22.764  0.00  0.00    -0.312 N 
ATOM      8  C   UNL     1      35.483 -20.370 -19.769  0.00  0.00    +0.001 C 
ATOM      9  C   UNL     1      34.595 -19.348 -21.741  0.00  0.00    +0.048 C 
ATOM     10  C   UNL     1      35.774 -18.625 -21.940  0.00  0.00    +0.015 C 
ATOM     11  C   UNL     1      34.420 -20.227 -20.666  0.00  0.00    +0.015 C 
ATOM     12  C   UNL     1      36.669 -19.662 -19.942  0.00  0.00    +0.000 C 
ATOM     13  C   UNL     1      36.831 -18.787 -21.022  0.00  0.00    +0.001 C 
ATOM     14  C   UNL     1      35.592 -17.844 -23.115  0.00  0.00    +0.017 C 
ATOM     15  C   UNL     1      34.330 -18.104 -23.600  0.00  0.00    +0.062 C 
ATOM     16  H   UNL     1      32.828 -19.373 -22.878  0.00  0.00    +0.152 HD
ENDBRANCH   1   8
BRANCH   4  17
ATOM     17  O   UNL     1      34.930 -23.849 -15.418  0.00  0.00    -0.469 OA
BRANCH  17  18
ATOM     18  C   UNL     1      34.147 -23.387 -14.319  0.00  0.00    +0.251 C 
BRANCH  18  20
ATOM     19  N   UNL     1      35.976 -22.774 -12.857  0.00  0.00    -0.244 NA
ATOM     20  C   UNL     1      34.919 -23.588 -13.048  0.00  0.00    +0.103 C 
ATOM     21  C   UNL     1      34.515 -24.570 -12.165  0.00  0.00    +0.018 C 
ATOM     22  C   UNL     1      35.252 -24.730 -10.998  0.00  0.00    +0.003 C 
ATOM     23  C   UNL     1      36.668 -22.959 -11.711  0.00  0.00    +0.099 C 
ATOM     24  C   UNL     1      36.350 -23.913 -10.758  0.00  0.00    +0.021 C 
ENDBRANCH  18  20
ENDBRANCH  17  18
ENDBRANCH   4  17
BRANCH   2  25
ATOM     25  C   UNL     1      37.492 -22.669 -15.869  0.00  0.00    +0.117 C 
BRANCH  25  26
ATOM     26  N   UNL     1      37.295 -23.838 -15.011  0.00  0.00    -0.327 N 
ATOM     27  H   UNL     1      36.392 -24.021 -14.664  0.00  0.00    +0.147 HD
BRANCH  26  29
ATOM     28  N   UNL     1      39.082 -26.906 -13.954  0.00  0.00    -0.228 NA
ATOM     29  C   UNL     1      38.314 -24.695 -14.665  0.00  0.00    +0.077 C 
ATOM     30  C   UNL     1      38.109 -26.034 -14.301  0.00  0.00    +0.139 C 
ATOM     31  C   UNL     1      39.652 -24.261 -14.658  0.00  0.00    +0.019 C 
ATOM     32  C   UNL     1      40.683 -25.128 -14.308  0.00  0.00    +0.022 C 
ATOM     33  C   UNL     1      40.347 -26.429 -13.967  0.00  0.00    +0.100 C 
ATOM     34  N   UNL     1      36.771 -26.505 -14.296  0.00  0.00    -0.342 N 
ATOM     35  H   UNL     1      36.579 -27.438 -14.048  0.00  0.00    +0.144 HD
ATOM     36  H   UNL     1      36.035 -25.899 -14.543  0.00  0.00    +0.144 HD
ENDBRANCH  26  29
ENDBRANCH  25  26
ENDBRANCH   2  25
TORSDOF 7
ENDMDL
