MODEL 1
REMARK VINA RESULT:     -12.9      0.000      0.000
REMARK  Name = 46926973
REMARK  4 active torsions:
REMARK  status: ('A' for Active; 'I' for Inactive)
REMARK    1  A    between atoms: C_4  and  C_17
REMARK    2  A    between atoms: C_6  and  C_13
REMARK    3  A    between atoms: C_17  and  C_19
REMARK    4  A    between atoms: C_21  and  C_26
REMARK                            x       y       z     vdW  Elec       q    Type
REMARK                         _______ _______ _______ _____ _____    ______ ____
ROOT
ATOM      1  O   UNL     1      33.814 -19.560 -21.822  0.00  0.00    -0.274 OA
ATOM      2  N   UNL     1      35.901 -19.638 -20.741  0.00  0.00    -0.269 N 
ATOM      3  N   UNL     1      36.685 -20.719 -18.788  0.00  0.00    -0.229 NA
ATOM      4  C   UNL     1      34.997 -19.245 -21.738  0.00  0.00    +0.232 C 
ATOM      5  C   UNL     1      35.662 -20.464 -19.636  0.00  0.00    +0.134 C 
ATOM      6  C   UNL     1      35.161 -22.080 -17.495  0.00  0.00    +0.038 C 
ATOM      7  C   UNL     1      34.382 -20.972 -19.482  0.00  0.00    +0.035 C 
ATOM      8  C   UNL     1      34.135 -21.793 -18.389  0.00  0.00    +0.006 C 
ATOM      9  C   UNL     1      36.406 -21.522 -17.737  0.00  0.00    +0.102 C 
ATOM     10  H   UNL     1      36.818 -19.291 -20.830  0.00  0.00    +0.156 HD
ENDROOT
BRANCH   6  13
ATOM     11  N   UNL     1      36.041 -23.359 -15.707  0.00  0.00    -0.241 NA
ATOM     12  N   UNL     1      33.463 -24.074 -14.867  0.00  0.00    -0.239 NA
ATOM     13  C   UNL     1      34.936 -22.929 -16.350  0.00  0.00    +0.102 C 
ATOM     14  C   UNL     1      33.670 -23.281 -15.936  0.00  0.00    +0.118 C 
ATOM     15  C   UNL     1      35.833 -24.152 -14.638  0.00  0.00    +0.119 C 
ATOM     16  C   UNL     1      34.568 -24.504 -14.225  0.00  0.00    +0.120 C 
ENDBRANCH   6  13
BRANCH   4  17
ATOM     17  C   UNL     1      35.673 -18.343 -22.758  0.00  0.00    +0.113 C 
BRANCH  17  19
ATOM     18  N   UNL     1      34.713 -14.861 -21.622  0.00  0.00    -0.244 NA
ATOM     19  C   UNL     1      35.116 -16.943 -22.783  0.00  0.00    +0.006 C 
ATOM     20  C   UNL     1      34.001 -15.138 -23.917  0.00  0.00    -0.004 C 
ATOM     21  C   UNL     1      34.129 -14.400 -22.751  0.00  0.00    +0.077 C 
ATOM     22  C   UNL     1      34.508 -16.434 -23.924  0.00  0.00    -0.005 C 
ATOM     23  C   UNL     1      35.192 -16.124 -21.668  0.00  0.00    +0.095 C 
ATOM     24  C   UNL     1      33.349 -14.595 -25.141  0.00  0.00    +0.033 C 
BRANCH  21  26
ATOM     25  N   UNL     1      32.675 -10.427 -22.447  0.00  0.00    -0.248 NA
ATOM     26  C   UNL     1      33.633 -13.046 -22.647  0.00  0.00    +0.020 C 
ATOM     27  C   UNL     1      32.635 -12.736 -21.729  0.00  0.00    +0.016 C 
ATOM     28  C   UNL     1      34.152 -12.048 -23.465  0.00  0.00    +0.022 C 
ATOM     29  C   UNL     1      32.195 -11.423 -21.669  0.00  0.00    +0.059 C 
ATOM     30  C   UNL     1      33.643 -10.767 -23.327  0.00  0.00    +0.098 C 
ATOM     31  C   UNL     1      31.126 -11.054 -20.695  0.00  0.00    +0.052 C 
ENDBRANCH  21  26
ENDBRANCH  17  19
ENDBRANCH   4  17
TORSDOF 4
ENDMDL
MODEL 2
REMARK VINA RESULT:     -12.7      1.319      1.945
REMARK  Name = 46926973
REMARK  4 active torsions:
REMARK  status: ('A' for Active; 'I' for Inactive)
REMARK    1  A    between atoms: C_4  and  C_17
REMARK    2  A    between atoms: C_6  and  C_13
REMARK    3  A    between atoms: C_17  and  C_19
REMARK    4  A    between atoms: C_21  and  C_26
REMARK                            x       y       z     vdW  Elec       q    Type
REMARK                         _______ _______ _______ _____ _____    ______ ____
ROOT
ATOM      1  O   UNL     1      36.707 -18.646 -22.272  0.00  0.00    -0.274 OA
ATOM      2  N   UNL     1      34.444 -19.166 -21.899  0.00  0.00    -0.269 N 
ATOM      3  N   UNL     1      33.316 -20.452 -20.266  0.00  0.00    -0.229 NA
ATOM      4  C   UNL     1      35.519 -18.568 -22.570  0.00  0.00    +0.232 C 
ATOM      5  C   UNL     1      34.482 -19.973 -20.755  0.00  0.00    +0.134 C 
ATOM      6  C   UNL     1      34.593 -21.540 -18.524  0.00  0.00    +0.038 C 
ATOM      7  C   UNL     1      35.722 -20.229 -20.195  0.00  0.00    +0.035 C 
ATOM      8  C   UNL     1      35.771 -21.029 -19.058  0.00  0.00    +0.006 C 
ATOM      9  C   UNL     1      33.402 -21.226 -19.160  0.00  0.00    +0.102 C 
ATOM     10  H   UNL     1      33.551 -18.997 -22.278  0.00  0.00    +0.156 HD
ENDROOT
BRANCH   6  13
ATOM     11  N   UNL     1      35.790 -22.456 -16.699  0.00  0.00    -0.241 NA
ATOM     12  N   UNL     1      33.509 -23.822 -15.806  0.00  0.00    -0.239 NA
ATOM     13  C   UNL     1      34.610 -22.373 -17.345  0.00  0.00    +0.102 C 
ATOM     14  C   UNL     1      33.489 -23.044 -16.907  0.00  0.00    +0.118 C 
ATOM     15  C   UNL     1      35.809 -23.234 -15.598  0.00  0.00    +0.119 C 
ATOM     16  C   UNL     1      34.689 -23.905 -15.160  0.00  0.00    +0.120 C 
ENDBRANCH   6  13
BRANCH   4  17
ATOM     17  C   UNL     1      35.034 -17.769 -23.769  0.00  0.00    +0.113 C 
BRANCH  17  19
ATOM     18  N   UNL     1      33.455 -14.340 -24.067  0.00  0.00    -0.244 NA
ATOM     19  C   UNL     1      34.599 -16.369 -23.420  0.00  0.00    +0.006 C 
ATOM     20  C   UNL     1      34.500 -14.513 -21.893  0.00  0.00    -0.004 C 
ATOM     21  C   UNL     1      33.780 -13.828 -22.859  0.00  0.00    +0.077 C 
ATOM     22  C   UNL     1      34.914 -15.808 -22.188  0.00  0.00    -0.005 C 
ATOM     23  C   UNL     1      33.874 -15.600 -24.317  0.00  0.00    +0.095 C 
ATOM     24  C   UNL     1      34.839 -13.913 -20.572  0.00  0.00    +0.033 C 
BRANCH  21  26
ATOM     25  N   UNL     1      32.396  -9.868 -22.231  0.00  0.00    -0.248 NA
ATOM     26  C   UNL     1      33.308 -12.478 -22.645  0.00  0.00    +0.020 C 
ATOM     27  C   UNL     1      32.341 -12.221 -21.678  0.00  0.00    +0.016 C 
ATOM     28  C   UNL     1      33.819 -11.431 -23.404  0.00  0.00    +0.022 C 
ATOM     29  C   UNL     1      31.923 -10.910 -21.512  0.00  0.00    +0.059 C 
ATOM     30  C   UNL     1      33.334 -10.156 -23.161  0.00  0.00    +0.098 C 
ATOM     31  C   UNL     1      30.886 -10.598 -20.485  0.00  0.00    +0.052 C 
ENDBRANCH  21  26
ENDBRANCH  17  19
ENDBRANCH   4  17
TORSDOF 4
ENDMDL
MODEL 3
REMARK VINA RESULT:     -12.5      0.687      1.299
REMARK  Name = 46926973
REMARK  4 active torsions:
REMARK  status: ('A' for Active; 'I' for Inactive)
REMARK    1  A    between atoms: C_4  and  C_17
REMARK    2  A    between atoms: C_6  and  C_13
REMARK    3  A    between atoms: C_17  and  C_19
REMARK    4  A    between atoms: C_21  and  C_26
REMARK                            x       y       z     vdW  Elec       q    Type
REMARK                         _______ _______ _______ _____ _____    ______ ____
ROOT
ATOM      1  O   UNL     1      33.638 -19.625 -21.850  0.00  0.00    -0.274 OA
ATOM      2  N   UNL     1      35.766 -19.636 -20.850  0.00  0.00    -0.269 N 
ATOM      3  N   UNL     1      36.652 -20.672 -18.917  0.00  0.00    -0.229 NA
ATOM      4  C   UNL     1      34.814 -19.279 -21.815  0.00  0.00    +0.232 C 
ATOM      5  C   UNL     1      35.592 -20.454 -19.727  0.00  0.00    +0.134 C 
ATOM      6  C   UNL     1      35.216 -22.055 -17.550  0.00  0.00    +0.038 C 
ATOM      7  C   UNL     1      34.332 -20.993 -19.518  0.00  0.00    +0.035 C 
ATOM      8  C   UNL     1      34.149 -21.807 -18.406  0.00  0.00    +0.006 C 
ATOM      9  C   UNL     1      36.436 -21.469 -17.846  0.00  0.00    +0.102 C 
ATOM     10  H   UNL     1      36.670 -19.267 -20.978  0.00  0.00    +0.156 HD
ENDROOT
BRANCH   6  13
ATOM     11  N   UNL     1      36.196 -23.267 -15.767  0.00  0.00    -0.241 NA
ATOM     12  N   UNL     1      33.674 -24.081 -14.850  0.00  0.00    -0.239 NA
ATOM     13  C   UNL     1      35.057 -22.896 -16.387  0.00  0.00    +0.102 C 
ATOM     14  C   UNL     1      33.818 -23.296 -15.936  0.00  0.00    +0.118 C 
ATOM     15  C   UNL     1      36.050 -24.051 -14.681  0.00  0.00    +0.119 C 
ATOM     16  C   UNL     1      34.812 -24.452 -14.231  0.00  0.00    +0.120 C 
ENDBRANCH   6  13
BRANCH   4  17
ATOM     17  C   UNL     1      35.427 -18.373 -22.872  0.00  0.00    +0.113 C 
BRANCH  17  19
ATOM     18  N   UNL     1      34.003 -14.992 -23.811  0.00  0.00    -0.244 NA
ATOM     19  C   UNL     1      34.982 -16.937 -22.761  0.00  0.00    +0.006 C 
ATOM     20  C   UNL     1      34.703 -14.910 -21.497  0.00  0.00    -0.004 C 
ATOM     21  C   UNL     1      34.155 -14.341 -22.635  0.00  0.00    +0.077 C 
ATOM     22  C   UNL     1      35.121 -16.234 -21.570  0.00  0.00    -0.005 C 
ATOM     23  C   UNL     1      34.422 -16.277 -23.843  0.00  0.00    +0.095 C 
ATOM     24  C   UNL     1      34.854 -14.158 -20.220  0.00  0.00    +0.033 C 
BRANCH  21  26
ATOM     25  N   UNL     1      32.799 -10.322 -22.698  0.00  0.00    -0.248 NA
ATOM     26  C   UNL     1      33.693 -12.971 -22.657  0.00  0.00    +0.020 C 
ATOM     27  C   UNL     1      32.683 -12.561 -21.792  0.00  0.00    +0.016 C 
ATOM     28  C   UNL     1      34.255 -12.058 -23.542  0.00  0.00    +0.022 C 
ATOM     29  C   UNL     1      32.276 -11.237 -21.852  0.00  0.00    +0.059 C 
ATOM     30  C   UNL     1      33.777 -10.758 -23.524  0.00  0.00    +0.098 C 
ATOM     31  C   UNL     1      31.195 -10.762 -20.939  0.00  0.00    +0.052 C 
ENDBRANCH  21  26
ENDBRANCH  17  19
ENDBRANCH   4  17
TORSDOF 4
ENDMDL
MODEL 4
REMARK VINA RESULT:     -12.5      1.304      2.044
REMARK  Name = 46926973
REMARK  4 active torsions:
REMARK  status: ('A' for Active; 'I' for Inactive)
REMARK    1  A    between atoms: C_4  and  C_17
REMARK    2  A    between atoms: C_6  and  C_13
REMARK    3  A    between atoms: C_17  and  C_19
REMARK    4  A    between atoms: C_21  and  C_26
REMARK                            x       y       z     vdW  Elec       q    Type
REMARK                         _______ _______ _______ _____ _____    ______ ____
ROOT
ATOM      1  O   UNL     1      36.914 -18.527 -21.994  0.00  0.00    -0.274 OA
ATOM      2  N   UNL     1      34.796 -19.433 -21.518  0.00  0.00    -0.269 N 
ATOM      3  N   UNL     1      33.975 -20.842 -19.805  0.00  0.00    -0.229 NA
ATOM      4  C   UNL     1      35.722 -18.676 -22.248  0.00  0.00    +0.232 C 
ATOM      5  C   UNL     1      35.018 -20.179 -20.354  0.00  0.00    +0.134 C 
ATOM      6  C   UNL     1      35.486 -21.617 -18.083  0.00  0.00    +0.038 C 
ATOM      7  C   UNL     1      36.303 -20.186 -19.834  0.00  0.00    +0.035 C 
ATOM      8  C   UNL     1      36.533 -20.922 -18.678  0.00  0.00    +0.006 C 
ATOM      9  C   UNL     1      34.238 -21.547 -18.681  0.00  0.00    +0.102 C 
ATOM     10  H   UNL     1      33.876 -19.442 -21.867  0.00  0.00    +0.156 HD
ENDROOT
BRANCH   6  13
ATOM     11  N   UNL     1      34.648 -23.140 -16.475  0.00  0.00    -0.241 NA
ATOM     12  N   UNL     1      37.075 -23.089 -15.070  0.00  0.00    -0.239 NA
ATOM     13  C   UNL     1      35.693 -22.391 -16.882  0.00  0.00    +0.102 C 
ATOM     14  C   UNL     1      36.885 -22.366 -16.191  0.00  0.00    +0.118 C 
ATOM     15  C   UNL     1      34.839 -23.864 -15.354  0.00  0.00    +0.119 C 
ATOM     16  C   UNL     1      36.030 -23.839 -14.664  0.00  0.00    +0.120 C 
ENDBRANCH   6  13
BRANCH   4  17
ATOM     17  C   UNL     1      35.060 -18.021 -23.451  0.00  0.00    +0.113 C 
BRANCH  17  19
ATOM     18  N   UNL     1      33.654 -14.556 -24.045  0.00  0.00    -0.244 NA
ATOM     19  C   UNL     1      34.659 -16.589 -23.208  0.00  0.00    +0.006 C 
ATOM     20  C   UNL     1      34.521 -14.651 -21.790  0.00  0.00    -0.004 C 
ATOM     21  C   UNL     1      33.906 -13.993 -22.842  0.00  0.00    +0.077 C 
ATOM     22  C   UNL     1      34.902 -15.975 -21.985  0.00  0.00    -0.005 C 
ATOM     23  C   UNL     1      34.038 -15.843 -24.197  0.00  0.00    +0.095 C 
ATOM     24  C   UNL     1      34.783 -13.994 -20.478  0.00  0.00    +0.033 C 
BRANCH  21  26
ATOM     25  N   UNL     1      32.645  -9.955 -22.526  0.00  0.00    -0.248 NA
ATOM     26  C   UNL     1      33.476 -12.616 -22.734  0.00  0.00    +0.020 C 
ATOM     27  C   UNL     1      32.484 -12.264 -21.826  0.00  0.00    +0.016 C 
ATOM     28  C   UNL     1      34.053 -11.640 -23.539  0.00  0.00    +0.022 C 
ATOM     29  C   UNL     1      32.107 -10.931 -21.762  0.00  0.00    +0.059 C 
ATOM     30  C   UNL     1      33.606 -10.336 -23.398  0.00  0.00    +0.098 C 
ATOM     31  C   UNL     1      31.045 -10.516 -20.798  0.00  0.00    +0.052 C 
ENDBRANCH  21  26
ENDBRANCH  17  19
ENDBRANCH   4  17
TORSDOF 4
ENDMDL
MODEL 5
REMARK VINA RESULT:     -12.4      1.257      1.762
REMARK  Name = 46926973
REMARK  4 active torsions:
REMARK  status: ('A' for Active; 'I' for Inactive)
REMARK    1  A    between atoms: C_4  and  C_17
REMARK    2  A    between atoms: C_6  and  C_13
REMARK    3  A    between atoms: C_17  and  C_19
REMARK    4  A    between atoms: C_21  and  C_26
REMARK                            x       y       z     vdW  Elec       q    Type
REMARK                         _______ _______ _______ _____ _____    ______ ____
ROOT
ATOM      1  O   UNL     1      36.938 -18.305 -22.094  0.00  0.00    -0.274 OA
ATOM      2  N   UNL     1      34.946 -19.460 -21.617  0.00  0.00    -0.269 N 
ATOM      3  N   UNL     1      34.285 -20.919 -19.876  0.00  0.00    -0.229 NA
ATOM      4  C   UNL     1      35.779 -18.610 -22.357  0.00  0.00    +0.232 C 
ATOM      5  C   UNL     1      35.243 -20.143 -20.431  0.00  0.00    +0.134 C 
ATOM      6  C   UNL     1      35.856 -21.453 -18.118  0.00  0.00    +0.038 C 
ATOM      7  C   UNL     1      36.511 -19.974 -19.897  0.00  0.00    +0.035 C 
ATOM      8  C   UNL     1      36.815 -20.646 -18.719  0.00  0.00    +0.006 C 
ATOM      9  C   UNL     1      34.618 -21.556 -18.731  0.00  0.00    +0.102 C 
ATOM     10  H   UNL     1      34.039 -19.595 -21.976  0.00  0.00    +0.156 HD
ENDROOT
BRANCH   6  13
ATOM     11  N   UNL     1      35.142 -22.926 -16.407  0.00  0.00    -0.241 NA
ATOM     12  N   UNL     1      37.626 -22.735 -15.119  0.00  0.00    -0.239 NA
ATOM     13  C   UNL     1      36.142 -22.164 -16.894  0.00  0.00    +0.102 C 
ATOM     14  C   UNL     1      37.362 -22.071 -16.261  0.00  0.00    +0.118 C 
ATOM     15  C   UNL     1      35.407 -23.591 -15.266  0.00  0.00    +0.119 C 
ATOM     16  C   UNL     1      36.626 -23.497 -14.632  0.00  0.00    +0.120 C 
ENDBRANCH   6  13
BRANCH   4  17
ATOM     17  C   UNL     1      35.057 -18.075 -23.584  0.00  0.00    +0.113 C 
BRANCH  17  19
ATOM     18  N   UNL     1      34.448 -14.659 -22.068  0.00  0.00    -0.244 NA
ATOM     19  C   UNL     1      34.627 -16.637 -23.446  0.00  0.00    +0.006 C 
ATOM     20  C   UNL     1      33.645 -14.636 -24.349  0.00  0.00    -0.004 C 
ATOM     21  C   UNL     1      33.873 -14.036 -23.121  0.00  0.00    +0.077 C 
ATOM     22  C   UNL     1      34.033 -15.962 -24.506  0.00  0.00    -0.005 C 
ATOM     23  C   UNL     1      34.810 -15.947 -22.258  0.00  0.00    +0.095 C 
ATOM     24  C   UNL     1      33.008 -13.914 -25.486  0.00  0.00    +0.033 C 
BRANCH  21  26
ATOM     25  N   UNL     1      32.791 -10.005 -22.363  0.00  0.00    -0.248 NA
ATOM     26  C   UNL     1      33.504 -12.661 -22.863  0.00  0.00    +0.020 C 
ATOM     27  C   UNL     1      32.519 -12.367 -21.926  0.00  0.00    +0.016 C 
ATOM     28  C   UNL     1      34.133 -11.629 -23.550  0.00  0.00    +0.022 C 
ATOM     29  C   UNL     1      32.203 -11.034 -21.715  0.00  0.00    +0.059 C 
ATOM     30  C   UNL     1      33.744 -10.330 -23.267  0.00  0.00    +0.098 C 
ATOM     31  C   UNL     1      31.150 -10.681 -20.718  0.00  0.00    +0.052 C 
ENDBRANCH  21  26
ENDBRANCH  17  19
ENDBRANCH   4  17
TORSDOF 4
ENDMDL
MODEL 6
REMARK VINA RESULT:     -12.4      2.777     11.535
REMARK  Name = 46926973
REMARK  4 active torsions:
REMARK  status: ('A' for Active; 'I' for Inactive)
REMARK    1  A    between atoms: C_4  and  C_17
REMARK    2  A    between atoms: C_6  and  C_13
REMARK    3  A    between atoms: C_17  and  C_19
REMARK    4  A    between atoms: C_21  and  C_26
REMARK                            x       y       z     vdW  Elec       q    Type
REMARK                         _______ _______ _______ _____ _____    ______ ____
ROOT
ATOM      1  O   UNL     1      32.945 -13.800 -22.654  0.00  0.00    -0.274 OA
ATOM      2  N   UNL     1      34.403 -12.244 -23.647  0.00  0.00    -0.269 N 
ATOM      3  N   UNL     1      34.498  -9.880 -23.662  0.00  0.00    -0.229 NA
ATOM      4  C   UNL     1      33.926 -13.525 -23.339  0.00  0.00    +0.232 C 
ATOM      5  C   UNL     1      33.877 -11.008 -23.249  0.00  0.00    +0.134 C 
ATOM      6  C   UNL     1      32.827  -8.619 -22.452  0.00  0.00    +0.038 C 
ATOM      7  C   UNL     1      32.745 -11.023 -22.450  0.00  0.00    +0.035 C 
ATOM      8  C   UNL     1      32.216  -9.801 -22.049  0.00  0.00    +0.006 C 
ATOM      9  C   UNL     1      33.955  -8.712 -23.251  0.00  0.00    +0.102 C 
ATOM     10  H   UNL     1      35.208 -12.207 -24.212  0.00  0.00    +0.156 HD
ENDROOT
BRANCH   6  13
ATOM     11  N   UNL     1      31.003  -7.114 -22.340  0.00  0.00    -0.241 NA
ATOM     12  N   UNL     1      32.584  -5.194 -21.045  0.00  0.00    -0.239 NA
ATOM     13  C   UNL     1      32.301  -7.335 -22.052  0.00  0.00    +0.102 C 
ATOM     14  C   UNL     1      33.078  -6.392 -21.416  0.00  0.00    +0.118 C 
ATOM     15  C   UNL     1      30.509  -5.917 -21.968  0.00  0.00    +0.119 C 
ATOM     16  C   UNL     1      31.285  -4.973 -21.332  0.00  0.00    +0.120 C 
ENDBRANCH   6  13
BRANCH   4  17
ATOM     17  C   UNL     1      34.799 -14.596 -23.974  0.00  0.00    +0.113 C 
BRANCH  17  19
ATOM     18  N   UNL     1      35.267 -16.858 -20.974  0.00  0.00    -0.244 NA
ATOM     19  C   UNL     1      34.914 -15.847 -23.141  0.00  0.00    +0.006 C 
ATOM     20  C   UNL     1      34.898 -18.242 -22.923  0.00  0.00    -0.004 C 
ATOM     21  C   UNL     1      35.136 -18.065 -21.569  0.00  0.00    +0.077 C 
ATOM     22  C   UNL     1      34.786 -17.105 -23.716  0.00  0.00    -0.005 C 
ATOM     23  C   UNL     1      35.152 -15.778 -21.777  0.00  0.00    +0.095 C 
ATOM     24  C   UNL     1      34.761 -19.590 -23.542  0.00  0.00    +0.033 C 
BRANCH  21  26
ATOM     25  N   UNL     1      35.525 -21.352 -18.917  0.00  0.00    -0.248 NA
ATOM     26  C   UNL     1      35.269 -19.186 -20.665  0.00  0.00    +0.020 C 
ATOM     27  C   UNL     1      34.141 -19.885 -20.250  0.00  0.00    +0.016 C 
ATOM     28  C   UNL     1      36.525 -19.568 -20.207  0.00  0.00    +0.022 C 
ATOM     29  C   UNL     1      34.322 -20.951 -19.383  0.00  0.00    +0.059 C 
ATOM     30  C   UNL     1      36.599 -20.648 -19.342  0.00  0.00    +0.098 C 
ATOM     31  C   UNL     1      33.133 -21.725 -18.916  0.00  0.00    +0.052 C 
ENDBRANCH  21  26
ENDBRANCH  17  19
ENDBRANCH   4  17
TORSDOF 4
ENDMDL
MODEL 7
REMARK VINA RESULT:     -12.1      0.661      1.566
REMARK  Name = 46926973
REMARK  4 active torsions:
REMARK  status: ('A' for Active; 'I' for Inactive)
REMARK    1  A    between atoms: C_4  and  C_17
REMARK    2  A    between atoms: C_6  and  C_13
REMARK    3  A    between atoms: C_17  and  C_19
REMARK    4  A    between atoms: C_21  and  C_26
REMARK                            x       y       z     vdW  Elec       q    Type
REMARK                         _______ _______ _______ _____ _____    ______ ____
ROOT
ATOM      1  O   UNL     1      33.598 -19.783 -21.565  0.00  0.00    -0.274 OA
ATOM      2  N   UNL     1      35.729 -19.946 -20.585  0.00  0.00    -0.269 N 
ATOM      3  N   UNL     1      36.546 -20.994 -18.628  0.00  0.00    -0.229 NA
ATOM      4  C   UNL     1      34.800 -19.538 -21.552  0.00  0.00    +0.232 C 
ATOM      5  C   UNL     1      35.499 -20.711 -19.434  0.00  0.00    +0.134 C 
ATOM      6  C   UNL     1      35.013 -22.206 -17.204  0.00  0.00    +0.038 C 
ATOM      7  C   UNL     1      34.200 -21.133 -19.197  0.00  0.00    +0.035 C 
ATOM      8  C   UNL     1      33.961 -21.893 -18.058  0.00  0.00    +0.006 C 
ATOM      9  C   UNL     1      36.275 -21.736 -17.530  0.00  0.00    +0.102 C 
ATOM     10  H   UNL     1      36.659 -19.659 -20.732  0.00  0.00    +0.156 HD
ENDROOT
BRANCH   6  13
ATOM     11  N   UNL     1      33.510 -23.230 -15.689  0.00  0.00    -0.241 NA
ATOM     12  N   UNL     1      35.635 -24.211 -14.145  0.00  0.00    -0.239 NA
ATOM     13  C   UNL     1      34.797 -22.994 -16.014  0.00  0.00    +0.102 C 
ATOM     14  C   UNL     1      35.841 -23.476 -15.256  0.00  0.00    +0.118 C 
ATOM     15  C   UNL     1      33.305 -23.965 -14.578  0.00  0.00    +0.119 C 
ATOM     16  C   UNL     1      34.348 -24.447 -13.819  0.00  0.00    +0.120 C 
ENDBRANCH   6  13
BRANCH   4  17
ATOM     17  C   UNL     1      35.475 -18.721 -22.642  0.00  0.00    +0.113 C 
BRANCH  17  19
ATOM     18  N   UNL     1      34.690 -15.169 -21.589  0.00  0.00    -0.244 NA
ATOM     19  C   UNL     1      34.997 -17.293 -22.703  0.00  0.00    +0.006 C 
ATOM     20  C   UNL     1      34.005 -15.452 -23.891  0.00  0.00    -0.004 C 
ATOM     21  C   UNL     1      34.153 -14.699 -22.737  0.00  0.00    +0.077 C 
ATOM     22  C   UNL     1      34.439 -16.773 -23.864  0.00  0.00    -0.005 C 
ATOM     23  C   UNL     1      35.100 -16.457 -21.602  0.00  0.00    +0.095 C 
ATOM     24  C   UNL     1      33.406 -14.897 -25.137  0.00  0.00    +0.033 C 
BRANCH  21  26
ATOM     25  N   UNL     1      32.916 -10.647 -22.534  0.00  0.00    -0.248 NA
ATOM     26  C   UNL     1      33.731 -13.318 -22.668  0.00  0.00    +0.020 C 
ATOM     27  C   UNL     1      34.391 -12.348 -23.416  0.00  0.00    +0.016 C 
ATOM     28  C   UNL     1      32.664 -12.953 -21.854  0.00  0.00    +0.022 C 
ATOM     29  C   UNL     1      33.948 -11.038 -23.314  0.00  0.00    +0.059 C 
ATOM     30  C   UNL     1      32.299 -11.617 -21.822  0.00  0.00    +0.098 C 
ATOM     31  C   UNL     1      34.633  -9.971 -24.101  0.00  0.00    +0.052 C 
ENDBRANCH  21  26
ENDBRANCH  17  19
ENDBRANCH   4  17
TORSDOF 4
ENDMDL
MODEL 8
REMARK VINA RESULT:     -11.7      2.231     10.603
REMARK  Name = 46926973
REMARK  4 active torsions:
REMARK  status: ('A' for Active; 'I' for Inactive)
REMARK    1  A    between atoms: C_4  and  C_17
REMARK    2  A    between atoms: C_6  and  C_13
REMARK    3  A    between atoms: C_17  and  C_19
REMARK    4  A    between atoms: C_21  and  C_26
REMARK                            x       y       z     vdW  Elec       q    Type
REMARK                         _______ _______ _______ _____ _____    ______ ____
ROOT
ATOM      1  O   UNL     1      36.832 -19.149 -19.327  0.00  0.00    -0.274 OA
ATOM      2  N   UNL     1      35.598 -20.010 -21.135  0.00  0.00    -0.269 N 
ATOM      3  N   UNL     1      34.512 -19.016 -22.987  0.00  0.00    -0.229 NA
ATOM      4  C   UNL     1      36.345 -20.087 -19.951  0.00  0.00    +0.232 C 
ATOM      5  C   UNL     1      35.244 -18.865 -21.860  0.00  0.00    +0.134 C 
ATOM      6  C   UNL     1      34.576 -16.613 -23.248  0.00  0.00    +0.038 C 
ATOM      7  C   UNL     1      35.673 -17.642 -21.371  0.00  0.00    +0.035 C 
ATOM      8  C   UNL     1      35.328 -16.499 -22.083  0.00  0.00    +0.006 C 
ATOM      9  C   UNL     1      34.196 -17.883 -23.653  0.00  0.00    +0.102 C 
ATOM     10  H   UNL     1      35.284 -20.868 -21.503  0.00  0.00    +0.156 HD
ENDROOT
BRANCH   6  13
ATOM     11  N   UNL     1      34.173 -15.600 -25.349  0.00  0.00    -0.241 NA
ATOM     12  N   UNL     1      33.543 -13.159 -24.122  0.00  0.00    -0.239 NA
ATOM     13  C   UNL     1      34.202 -15.446 -24.010  0.00  0.00    +0.102 C 
ATOM     14  C   UNL     1      33.892 -14.247 -23.407  0.00  0.00    +0.118 C 
ATOM     15  C   UNL     1      33.824 -14.511 -26.063  0.00  0.00    +0.119 C 
ATOM     16  C   UNL     1      33.514 -13.312 -25.461  0.00  0.00    +0.120 C 
ENDBRANCH   6  13
BRANCH   4  17
ATOM     17  C   UNL     1      36.500 -21.531 -19.500  0.00  0.00    +0.113 C 
BRANCH  17  19
ATOM     18  N   UNL     1      33.166 -22.547 -18.021  0.00  0.00    -0.244 NA
ATOM     19  C   UNL     1      35.462 -21.959 -18.495  0.00  0.00    +0.006 C 
ATOM     20  C   UNL     1      34.817 -22.553 -16.255  0.00  0.00    -0.004 C 
ATOM     21  C   UNL     1      33.529 -22.732 -16.732  0.00  0.00    +0.077 C 
ATOM     22  C   UNL     1      35.797 -22.159 -17.161  0.00  0.00    -0.005 C 
ATOM     23  C   UNL     1      34.144 -22.164 -18.871  0.00  0.00    +0.095 C 
ATOM     24  C   UNL     1      35.178 -22.766 -14.825  0.00  0.00    +0.033 C 
BRANCH  21  26
ATOM     25  N   UNL     1      30.347 -23.927 -14.194  0.00  0.00    -0.248 NA
ATOM     26  C   UNL     1      32.444 -23.139 -15.867  0.00  0.00    +0.020 C 
ATOM     27  C   UNL     1      31.135 -22.785 -16.175  0.00  0.00    +0.016 C 
ATOM     28  C   UNL     1      32.706 -23.887 -14.725  0.00  0.00    +0.022 C 
ATOM     29  C   UNL     1      30.131 -23.200 -15.313  0.00  0.00    +0.059 C 
ATOM     30  C   UNL     1      31.633 -24.253 -13.928  0.00  0.00    +0.098 C 
ATOM     31  C   UNL     1      28.715 -22.838 -15.611  0.00  0.00    +0.052 C 
ENDBRANCH  21  26
ENDBRANCH  17  19
ENDBRANCH   4  17
TORSDOF 4
ENDMDL
MODEL 9
REMARK VINA RESULT:     -11.7      1.804      3.078
REMARK  Name = 46926973
REMARK  4 active torsions:
REMARK  status: ('A' for Active; 'I' for Inactive)
REMARK    1  A    between atoms: C_4  and  C_17
REMARK    2  A    between atoms: C_6  and  C_13
REMARK    3  A    between atoms: C_17  and  C_19
REMARK    4  A    between atoms: C_21  and  C_26
REMARK                            x       y       z     vdW  Elec       q    Type
REMARK                         _______ _______ _______ _____ _____    ______ ____
ROOT
ATOM      1  O   UNL     1      33.337 -20.222 -20.435  0.00  0.00    -0.274 OA
ATOM      2  N   UNL     1      35.062 -21.122 -19.113  0.00  0.00    -0.269 N 
ATOM      3  N   UNL     1      35.091 -22.452 -17.157  0.00  0.00    -0.229 NA
ATOM      4  C   UNL     1      34.526 -20.393 -20.183  0.00  0.00    +0.232 C 
ATOM      5  C   UNL     1      34.373 -21.807 -18.105  0.00  0.00    +0.134 C 
ATOM      6  C   UNL     1      32.998 -23.137 -16.159  0.00  0.00    +0.038 C 
ATOM      7  C   UNL     1      32.989 -21.782 -18.146  0.00  0.00    +0.035 C 
ATOM      8  C   UNL     1      32.295 -22.460 -17.150  0.00  0.00    +0.006 C 
ATOM      9  C   UNL     1      34.382 -23.102 -16.206  0.00  0.00    +0.102 C 
ATOM     10  H   UNL     1      36.045 -21.156 -19.063  0.00  0.00    +0.156 HD
ENDROOT
BRANCH   6  13
ATOM     11  N   UNL     1      31.016 -24.153 -15.356  0.00  0.00    -0.241 NA
ATOM     12  N   UNL     1      32.278 -24.867 -12.956  0.00  0.00    -0.239 NA
ATOM     13  C   UNL     1      32.307 -23.850 -15.111  0.00  0.00    +0.102 C 
ATOM     14  C   UNL     1      32.927 -24.201 -13.932  0.00  0.00    +0.118 C 
ATOM     15  C   UNL     1      30.369 -24.820 -14.381  0.00  0.00    +0.119 C 
ATOM     16  C   UNL     1      30.988 -25.170 -13.201  0.00  0.00    +0.120 C 
ENDBRANCH   6  13
BRANCH   4  17
ATOM     17  C   UNL     1      35.632 -19.807 -21.049  0.00  0.00    +0.113 C 
BRANCH  17  19
ATOM     18  N   UNL     1      34.554 -17.297 -23.670  0.00  0.00    -0.244 NA
ATOM     19  C   UNL     1      35.257 -18.498 -21.694  0.00  0.00    +0.006 C 
ATOM     20  C   UNL     1      34.912 -16.120 -21.589  0.00  0.00    -0.004 C 
ATOM     21  C   UNL     1      34.569 -16.166 -22.930  0.00  0.00    +0.077 C 
ATOM     22  C   UNL     1      35.261 -17.314 -20.966  0.00  0.00    -0.005 C 
ATOM     23  C   UNL     1      34.899 -18.437 -23.031  0.00  0.00    +0.095 C 
ATOM     24  C   UNL     1      34.918 -14.851 -20.807  0.00  0.00    +0.033 C 
BRANCH  21  26
ATOM     25  N   UNL     1      33.466 -12.679 -25.079  0.00  0.00    -0.248 NA
ATOM     26  C   UNL     1      34.193 -14.977 -23.663  0.00  0.00    +0.020 C 
ATOM     27  C   UNL     1      34.248 -13.731 -23.047  0.00  0.00    +0.016 C 
ATOM     28  C   UNL     1      33.776 -15.075 -24.985  0.00  0.00    +0.022 C 
ATOM     29  C   UNL     1      33.877 -12.623 -23.793  0.00  0.00    +0.059 C 
ATOM     30  C   UNL     1      33.426 -13.907 -25.644  0.00  0.00    +0.098 C 
ATOM     31  C   UNL     1      33.922 -11.270 -23.165  0.00  0.00    +0.052 C 
ENDBRANCH  21  26
ENDBRANCH  17  19
ENDBRANCH   4  17
TORSDOF 4
ENDMDL
