MODEL 1
REMARK VINA RESULT:     -12.1      0.000      0.000
REMARK  Name = 24812758
REMARK  9 active torsions:
REMARK  status: ('A' for Active; 'I' for Inactive)
REMARK    1  A    between atoms: C_1  and  C_11
REMARK    2  A    between atoms: C_4  and  C_23
REMARK    3  A    between atoms: C_9  and  O_14
REMARK    4  A    between atoms: C_10  and  O_16
REMARK    5  A    between atoms: C_12  and  O_18
REMARK    6  A    between atoms: C_13  and  C_20
REMARK    7  A    between atoms: C_20  and  O_21
REMARK    8  A    between atoms: C_23  and  C_25
REMARK    9  A    between atoms: C_27  and  C_30
REMARK                            x       y       z     vdW  Elec       q    Type
REMARK                         _______ _______ _______ _____ _____    ______ ____
ROOT
ATOM      1  C   UNL     1      34.133 -23.478 -14.320  0.00  0.00    +0.007 C 
ATOM      2  C   UNL     1      34.226 -23.559 -15.709  0.00  0.00    -0.006 C 
ATOM      3  C   UNL     1      32.934 -23.085 -13.723  0.00  0.00    -0.002 C 
ATOM      4  C   UNL     1      33.122 -23.247 -16.502  0.00  0.00    -0.021 C 
ATOM      5  C   UNL     1      31.924 -22.855 -15.905  0.00  0.00    -0.025 C 
ATOM      6  C   UNL     1      31.830 -22.773 -14.516  0.00  0.00    -0.005 C 
ATOM      7  C   UNL     1      30.727 -22.516 -16.732  0.00  0.00    +0.031 C 
ENDROOT
BRANCH   1  11
ATOM      8  O   UNL     1      36.069 -24.849 -14.124  0.00  0.00    -0.347 OA
ATOM      9  C   UNL     1      34.921 -24.263 -12.047  0.00  0.00    +0.171 C 
ATOM     10  C   UNL     1      36.134 -24.752 -11.250  0.00  0.00    +0.169 C 
ATOM     11  C   UNL     1      35.333 -23.816 -13.458  0.00  0.00    +0.167 C 
ATOM     12  C   UNL     1      36.966 -25.746 -12.058  0.00  0.00    +0.169 C 
ATOM     13  C   UNL     1      37.280 -25.189 -13.448  0.00  0.00    +0.174 C 
BRANCH   9  14
ATOM     14  O   UNL     1      34.337 -23.151 -11.369  0.00  0.00    -0.379 OA
ATOM     15  H   UNL     1      33.388 -23.307 -11.249  0.00  0.00    +0.211 HD
ENDBRANCH   9  14
BRANCH  10  16
ATOM     16  O   UNL     1      35.687 -25.411 -10.064  0.00  0.00    -0.379 OA
ATOM     17  H   UNL     1      34.934 -24.928  -9.689  0.00  0.00    +0.211 HD
ENDBRANCH  10  16
BRANCH  12  18
ATOM     18  O   UNL     1      38.186 -26.007 -11.370  0.00  0.00    -0.379 OA
ATOM     19  H   UNL     1      38.918 -25.568 -11.833  0.00  0.00    +0.211 HD
ENDBRANCH  12  18
BRANCH  13  20
ATOM     20  C   UNL     1      38.016 -26.207 -14.313  0.00  0.00    +0.169 C 
BRANCH  20  21
ATOM     21  O   UNL     1      37.156 -26.611 -15.364  0.00  0.00    -0.379 OA
ATOM     22  H   UNL     1      36.338 -26.092 -15.331  0.00  0.00    +0.211 HD
ENDBRANCH  20  21
ENDBRANCH  13  20
ENDBRANCH   1  11
BRANCH   4  23
ATOM     23  C   UNL     1      33.245 -23.342 -17.987  0.00  0.00    +0.059 C 
BRANCH  23  25
ATOM     24  S   UNL     1      33.448 -21.194 -19.755  0.00  0.00    -0.091 S 
ATOM     25  C   UNL     1      34.118 -22.266 -18.599  0.00  0.00    +0.012 C 
ATOM     26  C   UNL     1      35.445 -21.996 -18.353  0.00  0.00    +0.003 C 
ATOM     27  C   UNL     1      34.937 -20.367 -19.930  0.00  0.00    +0.029 C 
ATOM     28  C   UNL     1      35.920 -20.896 -19.124  0.00  0.00    +0.007 C 
BRANCH  27  30
ATOM     29  F   UNL     1      35.240 -16.091 -23.492  0.00  0.00    -0.204 F 
ATOM     30  C   UNL     1      35.016 -19.259 -20.853  0.00  0.00    +0.006 C 
ATOM     31  C   UNL     1      34.539 -19.402 -22.157  0.00  0.00    +0.003 C 
ATOM     32  C   UNL     1      35.568 -18.046 -20.441  0.00  0.00    +0.003 C 
ATOM     33  C   UNL     1      34.615 -18.332 -23.048  0.00  0.00    +0.030 C 
ATOM     34  C   UNL     1      35.643 -16.976 -21.333  0.00  0.00    +0.030 C 
ATOM     35  C   UNL     1      35.167 -17.119 -22.636  0.00  0.00    +0.140 C 
ENDBRANCH  27  30
ENDBRANCH  23  25
ENDBRANCH   4  23
TORSDOF 9
ENDMDL
MODEL 2
REMARK VINA RESULT:     -12.1      1.396      2.556
REMARK  Name = 24812758
REMARK  9 active torsions:
REMARK  status: ('A' for Active; 'I' for Inactive)
REMARK    1  A    between atoms: C_1  and  C_11
REMARK    2  A    between atoms: C_4  and  C_23
REMARK    3  A    between atoms: C_9  and  O_14
REMARK    4  A    between atoms: C_10  and  O_16
REMARK    5  A    between atoms: C_12  and  O_18
REMARK    6  A    between atoms: C_13  and  C_20
REMARK    7  A    between atoms: C_20  and  O_21
REMARK    8  A    between atoms: C_23  and  C_25
REMARK    9  A    between atoms: C_27  and  C_30
REMARK                            x       y       z     vdW  Elec       q    Type
REMARK                         _______ _______ _______ _____ _____    ______ ____
ROOT
ATOM      1  C   UNL     1      34.280 -24.145 -13.863  0.00  0.00    +0.007 C 
ATOM      2  C   UNL     1      34.053 -23.968 -15.228  0.00  0.00    -0.006 C 
ATOM      3  C   UNL     1      33.280 -23.828 -12.943  0.00  0.00    -0.002 C 
ATOM      4  C   UNL     1      32.827 -23.474 -15.673  0.00  0.00    -0.021 C 
ATOM      5  C   UNL     1      31.828 -23.157 -14.753  0.00  0.00    -0.025 C 
ATOM      6  C   UNL     1      32.055 -23.334 -13.388  0.00  0.00    -0.005 C 
ATOM      7  C   UNL     1      30.507 -22.627 -15.205  0.00  0.00    +0.031 C 
ENDROOT
BRANCH   1  11
ATOM      8  O   UNL     1      36.339 -23.590 -12.807  0.00  0.00    -0.347 OA
ATOM      9  C   UNL     1      36.415 -25.336 -14.515  0.00  0.00    +0.171 C 
ATOM     10  C   UNL     1      37.818 -25.726 -14.042  0.00  0.00    +0.169 C 
ATOM     11  C   UNL     1      35.612 -24.682 -13.380  0.00  0.00    +0.167 C 
ATOM     12  C   UNL     1      38.499 -24.570 -13.311  0.00  0.00    +0.169 C 
ATOM     13  C   UNL     1      37.581 -23.995 -12.230  0.00  0.00    +0.174 C 
BRANCH   9  14
ATOM     14  O   UNL     1      35.727 -26.511 -14.943  0.00  0.00    -0.379 OA
ATOM     15  H   UNL     1      36.364 -27.144 -15.309  0.00  0.00    +0.211 HD
ENDBRANCH   9  14
BRANCH  10  16
ATOM     16  O   UNL     1      38.622 -26.068 -15.172  0.00  0.00    -0.379 OA
ATOM     17  H   UNL     1      39.212 -26.802 -14.939  0.00  0.00    +0.211 HD
ENDBRANCH  10  16
BRANCH  12  18
ATOM     18  O   UNL     1      39.701 -25.038 -12.706  0.00  0.00    -0.379 OA
ATOM     19  H   UNL     1      39.494 -25.764 -12.096  0.00  0.00    +0.211 HD
ENDBRANCH  12  18
BRANCH  13  20
ATOM     20  C   UNL     1      38.195 -22.769 -11.560  0.00  0.00    +0.169 C 
BRANCH  20  21
ATOM     21  O   UNL     1      37.203 -22.145 -10.765  0.00  0.00    -0.379 OA
ATOM     22  H   UNL     1      37.218 -21.188 -10.921  0.00  0.00    +0.211 HD
ENDBRANCH  20  21
ENDBRANCH  13  20
ENDBRANCH   1  11
BRANCH   4  23
ATOM     23  C   UNL     1      32.606 -23.293 -17.139  0.00  0.00    +0.059 C 
BRANCH  23  25
ATOM     24  S   UNL     1      33.255 -21.426 -19.108  0.00  0.00    -0.091 S 
ATOM     25  C   UNL     1      33.683 -22.476 -17.824  0.00  0.00    +0.012 C 
ATOM     26  C   UNL     1      35.033 -22.442 -17.557  0.00  0.00    +0.003 C 
ATOM     27  C   UNL     1      34.879 -20.924 -19.310  0.00  0.00    +0.029 C 
ATOM     28  C   UNL     1      35.727 -21.543 -18.418  0.00  0.00    +0.007 C 
BRANCH  27  30
ATOM     29  F   UNL     1      36.073 -17.194 -23.274  0.00  0.00    -0.204 F 
ATOM     30  C   UNL     1      35.188 -19.957 -20.337  0.00  0.00    +0.006 C 
ATOM     31  C   UNL     1      36.446 -19.356 -20.373  0.00  0.00    +0.003 C 
ATOM     32  C   UNL     1      34.229 -19.625 -21.294  0.00  0.00    +0.003 C 
ATOM     33  C   UNL     1      36.745 -18.423 -21.365  0.00  0.00    +0.030 C 
ATOM     34  C   UNL     1      34.528 -18.692 -22.286  0.00  0.00    +0.030 C 
ATOM     35  C   UNL     1      35.787 -18.090 -22.322  0.00  0.00    +0.140 C 
ENDBRANCH  27  30
ENDBRANCH  23  25
ENDBRANCH   4  23
TORSDOF 9
ENDMDL
MODEL 3
REMARK VINA RESULT:     -11.2      2.824      4.811
REMARK  Name = 24812758
REMARK  9 active torsions:
REMARK  status: ('A' for Active; 'I' for Inactive)
REMARK    1  A    between atoms: C_1  and  C_11
REMARK    2  A    between atoms: C_4  and  C_23
REMARK    3  A    between atoms: C_9  and  O_14
REMARK    4  A    between atoms: C_10  and  O_16
REMARK    5  A    between atoms: C_12  and  O_18
REMARK    6  A    between atoms: C_13  and  C_20
REMARK    7  A    between atoms: C_20  and  O_21
REMARK    8  A    between atoms: C_23  and  C_25
REMARK    9  A    between atoms: C_27  and  C_30
REMARK                            x       y       z     vdW  Elec       q    Type
REMARK                         _______ _______ _______ _____ _____    ______ ____
ROOT
ATOM      1  C   UNL     1      33.542 -23.318 -15.493  0.00  0.00    +0.007 C 
ATOM      2  C   UNL     1      34.039 -23.187 -16.790  0.00  0.00    -0.006 C 
ATOM      3  C   UNL     1      34.270 -22.818 -14.413  0.00  0.00    -0.002 C 
ATOM      4  C   UNL     1      35.264 -22.557 -17.007  0.00  0.00    -0.021 C 
ATOM      5  C   UNL     1      35.992 -22.057 -15.927  0.00  0.00    -0.025 C 
ATOM      6  C   UNL     1      35.495 -22.188 -14.631  0.00  0.00    -0.005 C 
ATOM      7  C   UNL     1      37.306 -21.377 -16.134  0.00  0.00    +0.031 C 
ENDROOT
BRANCH   1  11
ATOM      8  O   UNL     1      31.185 -23.151 -15.776  0.00  0.00    -0.347 OA
ATOM      9  C   UNL     1      31.973 -24.301 -13.769  0.00  0.00    +0.171 C 
ATOM     10  C   UNL     1      30.560 -24.844 -13.536  0.00  0.00    +0.169 C 
ATOM     11  C   UNL     1      32.211 -24.003 -15.257  0.00  0.00    +0.167 C 
ATOM     12  C   UNL     1      29.510 -23.977 -14.229  0.00  0.00    +0.169 C 
ATOM     13  C   UNL     1      29.885 -23.736 -15.693  0.00  0.00    +0.174 C 
BRANCH   9  14
ATOM     14  O   UNL     1      32.922 -25.278 -13.341  0.00  0.00    -0.379 OA
ATOM     15  H   UNL     1      33.398 -24.947 -12.563  0.00  0.00    +0.211 HD
ENDBRANCH   9  14
BRANCH  10  16
ATOM     16  O   UNL     1      30.277 -24.846 -12.136  0.00  0.00    -0.379 OA
ATOM     17  H   UNL     1      30.471 -25.723 -11.768  0.00  0.00    +0.211 HD
ENDBRANCH  10  16
BRANCH  12  18
ATOM     18  O   UNL     1      28.245 -24.631 -14.170  0.00  0.00    -0.379 OA
ATOM     19  H   UNL     1      27.566 -24.055 -14.556  0.00  0.00    +0.211 HD
ENDBRANCH  12  18
BRANCH  13  20
ATOM     20  C   UNL     1      28.909 -22.782 -16.376  0.00  0.00    +0.169 C 
BRANCH  20  21
ATOM     21  O   UNL     1      27.874 -23.545 -16.969  0.00  0.00    -0.379 OA
ATOM     22  H   UNL     1      28.180 -23.903 -17.817  0.00  0.00    +0.211 HD
ENDBRANCH  20  21
ENDBRANCH  13  20
ENDBRANCH   1  11
BRANCH   4  23
ATOM     23  C   UNL     1      35.776 -22.428 -18.404  0.00  0.00    +0.059 C 
BRANCH  23  25
ATOM     24  S   UNL     1      35.949 -20.356 -20.263  0.00  0.00    -0.091 S 
ATOM     25  C   UNL     1      35.051 -21.383 -19.228  0.00  0.00    +0.012 C 
ATOM     26  C   UNL     1      33.701 -21.117 -19.278  0.00  0.00    +0.003 C 
ATOM     27  C   UNL     1      34.530 -19.550 -20.782  0.00  0.00    +0.029 C 
ATOM     28  C   UNL     1      33.399 -20.055 -20.179  0.00  0.00    +0.007 C 
BRANCH  27  30
ATOM     29  F   UNL     1      34.982 -15.420 -24.496  0.00  0.00    -0.204 F 
ATOM     30  C   UNL     1      34.647 -18.480 -21.744  0.00  0.00    +0.006 C 
ATOM     31  C   UNL     1      35.187 -17.252 -21.360  0.00  0.00    +0.003 C 
ATOM     32  C   UNL     1      34.220 -18.673 -23.058  0.00  0.00    +0.003 C 
ATOM     33  C   UNL     1      35.300 -16.219 -22.289  0.00  0.00    +0.030 C 
ATOM     34  C   UNL     1      34.334 -17.640 -23.987  0.00  0.00    +0.030 C 
ATOM     35  C   UNL     1      34.874 -16.412 -23.603  0.00  0.00    +0.140 C 
ENDBRANCH  27  30
ENDBRANCH  23  25
ENDBRANCH   4  23
TORSDOF 9
ENDMDL
MODEL 4
REMARK VINA RESULT:     -10.9      8.112     13.075
REMARK  Name = 24812758
REMARK  9 active torsions:
REMARK  status: ('A' for Active; 'I' for Inactive)
REMARK    1  A    between atoms: C_1  and  C_11
REMARK    2  A    between atoms: C_4  and  C_23
REMARK    3  A    between atoms: C_9  and  O_14
REMARK    4  A    between atoms: C_10  and  O_16
REMARK    5  A    between atoms: C_12  and  O_18
REMARK    6  A    between atoms: C_13  and  C_20
REMARK    7  A    between atoms: C_20  and  O_21
REMARK    8  A    between atoms: C_23  and  C_25
REMARK    9  A    between atoms: C_27  and  C_30
REMARK                            x       y       z     vdW  Elec       q    Type
REMARK                         _______ _______ _______ _____ _____    ______ ____
ROOT
ATOM      1  C   UNL     1      33.694 -13.004 -23.165  0.00  0.00    +0.007 C 
ATOM      2  C   UNL     1      34.635 -13.934 -22.727  0.00  0.00    -0.006 C 
ATOM      3  C   UNL     1      32.909 -13.280 -24.285  0.00  0.00    -0.002 C 
ATOM      4  C   UNL     1      34.793 -15.142 -23.407  0.00  0.00    -0.021 C 
ATOM      5  C   UNL     1      34.008 -15.418 -24.527  0.00  0.00    -0.025 C 
ATOM      6  C   UNL     1      33.066 -14.488 -24.965  0.00  0.00    -0.005 C 
ATOM      7  C   UNL     1      34.158 -16.704 -25.272  0.00  0.00    +0.031 C 
ENDROOT
BRANCH   1  11
ATOM      8  O   UNL     1      32.224 -11.698 -21.823  0.00  0.00    -0.347 OA
ATOM      9  C   UNL     1      33.687 -10.481 -23.356  0.00  0.00    +0.171 C 
ATOM     10  C   UNL     1      33.353  -9.177 -22.626  0.00  0.00    +0.169 C 
ATOM     11  C   UNL     1      33.523 -11.692 -22.425  0.00  0.00    +0.167 C 
ATOM     12  C   UNL     1      32.023  -9.283 -21.882  0.00  0.00    +0.169 C 
ATOM     13  C   UNL     1      31.982 -10.545 -21.017  0.00  0.00    +0.174 C 
BRANCH   9  14
ATOM     14  O   UNL     1      35.042 -10.429 -23.802  0.00  0.00    -0.379 OA
ATOM     15  H   UNL     1      35.294  -9.506 -23.965  0.00  0.00    +0.211 HD
ENDBRANCH   9  14
BRANCH  10  16
ATOM     16  O   UNL     1      33.245  -8.116 -23.575  0.00  0.00    -0.379 OA
ATOM     17  H   UNL     1      33.984  -7.499 -23.457  0.00  0.00    +0.211 HD
ENDBRANCH  10  16
BRANCH  12  18
ATOM     18  O   UNL     1      31.857  -8.138 -21.049  0.00  0.00    -0.379 OA
ATOM     19  H   UNL     1      31.155  -7.574 -21.412  0.00  0.00    +0.211 HD
ENDBRANCH  12  18
BRANCH  13  20
ATOM     20  C   UNL     1      30.624 -10.729 -20.350  0.00  0.00    +0.169 C 
BRANCH  20  21
ATOM     21  O   UNL     1      30.609  -9.987 -19.144  0.00  0.00    -0.379 OA
ATOM     22  H   UNL     1      30.139 -10.489 -18.460  0.00  0.00    +0.211 HD
ENDBRANCH  20  21
ENDBRANCH  13  20
ENDBRANCH   1  11
BRANCH   4  23
ATOM     23  C   UNL     1      35.807 -16.123 -22.919  0.00  0.00    +0.059 C 
BRANCH  23  25
ATOM     24  S   UNL     1      35.518 -18.002 -20.878  0.00  0.00    -0.091 S 
ATOM     25  C   UNL     1      35.215 -17.442 -22.468  0.00  0.00    +0.012 C 
ATOM     26  C   UNL     1      34.419 -18.312 -23.179  0.00  0.00    +0.003 C 
ATOM     27  C   UNL     1      34.585 -19.413 -21.139  0.00  0.00    +0.029 C 
ATOM     28  C   UNL     1      34.055 -19.455 -22.409  0.00  0.00    +0.007 C 
BRANCH  27  30
ATOM     29  F   UNL     1      34.071 -23.109 -16.999  0.00  0.00    -0.204 F 
ATOM     30  C   UNL     1      34.452 -20.371 -20.066  0.00  0.00    +0.006 C 
ATOM     31  C   UNL     1      33.185 -20.755 -19.627  0.00  0.00    +0.003 C 
ATOM     32  C   UNL     1      35.590 -20.912 -19.468  0.00  0.00    +0.003 C 
ATOM     33  C   UNL     1      33.056 -21.680 -18.592  0.00  0.00    +0.030 C 
ATOM     34  C   UNL     1      35.461 -21.836 -18.432  0.00  0.00    +0.030 C 
ATOM     35  C   UNL     1      34.194 -22.221 -17.994  0.00  0.00    +0.140 C 
ENDBRANCH  27  30
ENDBRANCH  23  25
ENDBRANCH   4  23
TORSDOF 9
ENDMDL
MODEL 5
REMARK VINA RESULT:     -10.8      7.749     12.677
REMARK  Name = 24812758
REMARK  9 active torsions:
REMARK  status: ('A' for Active; 'I' for Inactive)
REMARK    1  A    between atoms: C_1  and  C_11
REMARK    2  A    between atoms: C_4  and  C_23
REMARK    3  A    between atoms: C_9  and  O_14
REMARK    4  A    between atoms: C_10  and  O_16
REMARK    5  A    between atoms: C_12  and  O_18
REMARK    6  A    between atoms: C_13  and  C_20
REMARK    7  A    between atoms: C_20  and  O_21
REMARK    8  A    between atoms: C_23  and  C_25
REMARK    9  A    between atoms: C_27  and  C_30
REMARK                            x       y       z     vdW  Elec       q    Type
REMARK                         _______ _______ _______ _____ _____    ______ ____
ROOT
ATOM      1  C   UNL     1      32.967 -13.134 -23.137  0.00  0.00    +0.007 C 
ATOM      2  C   UNL     1      33.936 -13.897 -22.486  0.00  0.00    -0.006 C 
ATOM      3  C   UNL     1      32.642 -13.405 -24.467  0.00  0.00    -0.002 C 
ATOM      4  C   UNL     1      34.580 -14.932 -23.164  0.00  0.00    -0.021 C 
ATOM      5  C   UNL     1      34.256 -15.203 -24.493  0.00  0.00    -0.025 C 
ATOM      6  C   UNL     1      33.287 -14.440 -25.144  0.00  0.00    -0.005 C 
ATOM      7  C   UNL     1      34.931 -16.306 -25.240  0.00  0.00    +0.031 C 
ENDROOT
BRANCH   1  11
ATOM      8  O   UNL     1      32.888 -10.780 -22.791  0.00  0.00    -0.347 OA
ATOM      9  C   UNL     1      32.329 -12.193 -20.877  0.00  0.00    +0.171 C 
ATOM     10  C   UNL     1      31.760 -10.970 -20.152  0.00  0.00    +0.169 C 
ATOM     11  C   UNL     1      32.267 -12.009 -22.401  0.00  0.00    +0.167 C 
ATOM     12  C   UNL     1      32.351  -9.673 -20.702  0.00  0.00    +0.169 C 
ATOM     13  C   UNL     1      32.250  -9.634 -22.228  0.00  0.00    +0.174 C 
BRANCH   9  14
ATOM     14  O   UNL     1      31.560 -13.342 -20.523  0.00  0.00    -0.379 OA
ATOM     15  H   UNL     1      31.991 -14.139 -20.870  0.00  0.00    +0.211 HD
ENDBRANCH   9  14
BRANCH  10  16
ATOM     16  O   UNL     1      32.083 -11.048 -18.763  0.00  0.00    -0.379 OA
ATOM     17  H   UNL     1      32.921 -10.588 -18.599  0.00  0.00    +0.211 HD
ENDBRANCH  10  16
BRANCH  12  18
ATOM     18  O   UNL     1      31.642  -8.564 -20.156  0.00  0.00    -0.379 OA
ATOM     19  H   UNL     1      32.016  -7.738 -20.504  0.00  0.00    +0.211 HD
ENDBRANCH  12  18
BRANCH  13  20
ATOM     20  C   UNL     1      32.931  -8.399 -22.809  0.00  0.00    +0.169 C 
BRANCH  20  21
ATOM     21  O   UNL     1      33.719  -7.800 -21.795  0.00  0.00    -0.379 OA
ATOM     22  H   UNL     1      33.771  -6.844 -21.948  0.00  0.00    +0.211 HD
ENDBRANCH  20  21
ENDBRANCH  13  20
ENDBRANCH   1  11
BRANCH   4  23
ATOM     23  C   UNL     1      35.614 -15.736 -22.446  0.00  0.00    +0.059 C 
BRANCH  23  25
ATOM     24  S   UNL     1      35.264 -17.752 -20.550  0.00  0.00    -0.091 S 
ATOM     25  C   UNL     1      35.188 -17.160 -22.156  0.00  0.00    +0.012 C 
ATOM     26  C   UNL     1      34.717 -18.110 -23.034  0.00  0.00    +0.003 C 
ATOM     27  C   UNL     1      34.668 -19.283 -21.029  0.00  0.00    +0.029 C 
ATOM     28  C   UNL     1      34.416 -19.341 -22.381  0.00  0.00    +0.007 C 
BRANCH  27  30
ATOM     29  F   UNL     1      34.008 -23.246 -17.166  0.00  0.00    -0.204 F 
ATOM     30  C   UNL     1      34.497 -20.310 -20.027  0.00  0.00    +0.006 C 
ATOM     31  C   UNL     1      33.216 -20.669 -19.607  0.00  0.00    +0.003 C 
ATOM     32  C   UNL     1      35.613 -20.944 -19.480  0.00  0.00    +0.003 C 
ATOM     33  C   UNL     1      33.050 -21.660 -18.641  0.00  0.00    +0.030 C 
ATOM     34  C   UNL     1      35.447 -21.935 -18.514  0.00  0.00    +0.030 C 
ATOM     35  C   UNL     1      34.166 -22.294 -18.094  0.00  0.00    +0.140 C 
ENDBRANCH  27  30
ENDBRANCH  23  25
ENDBRANCH   4  23
TORSDOF 9
ENDMDL
MODEL 6
REMARK VINA RESULT:     -10.5     12.295     17.032
REMARK  Name = 24812758
REMARK  9 active torsions:
REMARK  status: ('A' for Active; 'I' for Inactive)
REMARK    1  A    between atoms: C_1  and  C_11
REMARK    2  A    between atoms: C_4  and  C_23
REMARK    3  A    between atoms: C_9  and  O_14
REMARK    4  A    between atoms: C_10  and  O_16
REMARK    5  A    between atoms: C_12  and  O_18
REMARK    6  A    between atoms: C_13  and  C_20
REMARK    7  A    between atoms: C_20  and  O_21
REMARK    8  A    between atoms: C_23  and  C_25
REMARK    9  A    between atoms: C_27  and  C_30
REMARK                            x       y       z     vdW  Elec       q    Type
REMARK                         _______ _______ _______ _____ _____    ______ ____
ROOT
ATOM      1  C   UNL     1      31.745  -6.915 -21.788  0.00  0.00    +0.007 C 
ATOM      2  C   UNL     1      31.321  -8.234 -21.953  0.00  0.00    -0.006 C 
ATOM      3  C   UNL     1      32.436  -6.544 -20.634  0.00  0.00    -0.002 C 
ATOM      4  C   UNL     1      31.587  -9.181 -20.965  0.00  0.00    -0.021 C 
ATOM      5  C   UNL     1      32.277  -8.810 -19.811  0.00  0.00    -0.025 C 
ATOM      6  C   UNL     1      32.701  -7.492 -19.646  0.00  0.00    -0.005 C 
ATOM      7  C   UNL     1      32.575  -9.807 -18.739  0.00  0.00    +0.031 C 
ENDROOT
BRANCH   1  11
ATOM      8  O   UNL     1      32.632  -5.755 -23.667  0.00  0.00    -0.347 OA
ATOM      9  C   UNL     1      31.049  -4.530 -22.264  0.00  0.00    +0.171 C 
ATOM     10  C   UNL     1      30.919  -3.465 -23.357  0.00  0.00    +0.169 C 
ATOM     11  C   UNL     1      31.456  -5.886 -22.862  0.00  0.00    +0.167 C 
ATOM     12  C   UNL     1      32.139  -3.461 -24.277  0.00  0.00    +0.169 C 
ATOM     13  C   UNL     1      32.449  -4.874 -24.775  0.00  0.00    +0.174 C 
BRANCH   9  14
ATOM     14  O   UNL     1      29.790  -4.679 -21.609  0.00  0.00    -0.379 OA
ATOM     15  H   UNL     1      29.837  -5.417 -20.982  0.00  0.00    +0.211 HD
ENDBRANCH   9  14
BRANCH  10  16
ATOM     16  O   UNL     1      30.817  -2.175 -22.753  0.00  0.00    -0.379 OA
ATOM     17  H   UNL     1      30.925  -2.257 -21.793  0.00  0.00    +0.211 HD
ENDBRANCH  10  16
BRANCH  12  18
ATOM     18  O   UNL     1      31.883  -2.614 -25.394  0.00  0.00    -0.379 OA
ATOM     19  H   UNL     1      31.011  -2.824 -25.766  0.00  0.00    +0.211 HD
ENDBRANCH  12  18
BRANCH  13  20
ATOM     20  C   UNL     1      33.727  -4.912 -25.607  0.00  0.00    +0.169 C 
BRANCH  20  21
ATOM     21  O   UNL     1      33.409  -4.549 -26.939  0.00  0.00    -0.379 OA
ATOM     22  H   UNL     1      33.341  -5.348 -27.485  0.00  0.00    +0.211 HD
ENDBRANCH  20  21
ENDBRANCH  13  20
ENDBRANCH   1  11
BRANCH   4  23
ATOM     23  C   UNL     1      31.123 -10.587 -21.164  0.00  0.00    +0.059 C 
BRANCH  23  25
ATOM     24  S   UNL     1      32.410 -13.053 -20.956  0.00  0.00    -0.091 S 
ATOM     25  C   UNL     1      32.198 -11.518 -21.685  0.00  0.00    +0.012 C 
ATOM     26  C   UNL     1      33.084 -11.310 -22.719  0.00  0.00    +0.003 C 
ATOM     27  C   UNL     1      33.690 -13.443 -22.024  0.00  0.00    +0.029 C 
ATOM     28  C   UNL     1      33.949 -12.426 -22.915  0.00  0.00    +0.007 C 
BRANCH  27  30
ATOM     29  F   UNL     1      36.200 -18.394 -21.526  0.00  0.00    -0.204 F 
ATOM     30  C   UNL     1      34.340 -14.726 -21.894  0.00  0.00    +0.006 C 
ATOM     31  C   UNL     1      34.678 -15.455 -23.035  0.00  0.00    +0.003 C 
ATOM     32  C   UNL     1      34.631 -15.237 -20.629  0.00  0.00    +0.003 C 
ATOM     33  C   UNL     1      35.306 -16.694 -22.911  0.00  0.00    +0.030 C 
ATOM     34  C   UNL     1      35.259 -16.476 -20.505  0.00  0.00    +0.030 C 
ATOM     35  C   UNL     1      35.597 -17.205 -21.646  0.00  0.00    +0.140 C 
ENDBRANCH  27  30
ENDBRANCH  23  25
ENDBRANCH   4  23
TORSDOF 9
ENDMDL
MODEL 7
REMARK VINA RESULT:     -10.5      4.553      8.422
REMARK  Name = 24812758
REMARK  9 active torsions:
REMARK  status: ('A' for Active; 'I' for Inactive)
REMARK    1  A    between atoms: C_1  and  C_11
REMARK    2  A    between atoms: C_4  and  C_23
REMARK    3  A    between atoms: C_9  and  O_14
REMARK    4  A    between atoms: C_10  and  O_16
REMARK    5  A    between atoms: C_12  and  O_18
REMARK    6  A    between atoms: C_13  and  C_20
REMARK    7  A    between atoms: C_20  and  O_21
REMARK    8  A    between atoms: C_23  and  C_25
REMARK    9  A    between atoms: C_27  and  C_30
REMARK                            x       y       z     vdW  Elec       q    Type
REMARK                         _______ _______ _______ _____ _____    ______ ____
ROOT
ATOM      1  C   UNL     1      35.723 -22.016 -17.399  0.00  0.00    +0.007 C 
ATOM      2  C   UNL     1      34.955 -22.929 -16.677  0.00  0.00    -0.006 C 
ATOM      3  C   UNL     1      36.904 -21.511 -16.853  0.00  0.00    -0.002 C 
ATOM      4  C   UNL     1      35.366 -23.338 -15.409  0.00  0.00    -0.021 C 
ATOM      5  C   UNL     1      36.546 -22.833 -14.862  0.00  0.00    -0.025 C 
ATOM      6  C   UNL     1      37.314 -21.920 -15.584  0.00  0.00    -0.005 C 
ATOM      7  C   UNL     1      37.007 -23.255 -13.506  0.00  0.00    +0.031 C 
ENDROOT
BRANCH   1  11
ATOM      8  O   UNL     1      36.021 -20.399 -19.120  0.00  0.00    -0.347 OA
ATOM      9  C   UNL     1      33.766 -21.296 -18.832  0.00  0.00    +0.171 C 
ATOM     10  C   UNL     1      33.365 -20.698 -20.183  0.00  0.00    +0.169 C 
ATOM     11  C   UNL     1      35.276 -21.572 -18.778  0.00  0.00    +0.167 C 
ATOM     12  C   UNL     1      34.280 -19.536 -20.570  0.00  0.00    +0.169 C 
ATOM     13  C   UNL     1      35.751 -19.938 -20.444  0.00  0.00    +0.174 C 
BRANCH   9  14
ATOM     14  O   UNL     1      33.069 -22.528 -18.645  0.00  0.00    -0.379 OA
ATOM     15  H   UNL     1      32.123 -22.393 -18.811  0.00  0.00    +0.211 HD
ENDBRANCH   9  14
BRANCH  10  16
ATOM     16  O   UNL     1      32.029 -20.199 -20.104  0.00  0.00    -0.379 OA
ATOM     17  H   UNL     1      32.035 -19.237 -20.224  0.00  0.00    +0.211 HD
ENDBRANCH  10  16
BRANCH  12  18
ATOM     18  O   UNL     1      34.011 -19.153 -21.916  0.00  0.00    -0.379 OA
ATOM     19  H   UNL     1      34.277 -19.870 -22.515  0.00  0.00    +0.211 HD
ENDBRANCH  12  18
BRANCH  13  20
ATOM     20  C   UNL     1      36.683 -18.763 -20.719  0.00  0.00    +0.169 C 
BRANCH  20  21
ATOM     21  O   UNL     1      36.053 -17.574 -20.278  0.00  0.00    -0.379 OA
ATOM     22  H   UNL     1      36.502 -17.244 -19.485  0.00  0.00    +0.211 HD
ENDBRANCH  20  21
ENDBRANCH  13  20
ENDBRANCH   1  11
BRANCH   4  23
ATOM     23  C   UNL     1      34.527 -24.316 -14.654  0.00  0.00    +0.059 C 
BRANCH  23  25
ATOM     24  S   UNL     1      31.967 -23.726 -15.589  0.00  0.00    -0.091 S 
ATOM     25  C   UNL     1      33.134 -23.813 -14.339  0.00  0.00    +0.012 C 
ATOM     26  C   UNL     1      32.628 -23.393 -13.129  0.00  0.00    +0.003 C 
ATOM     27  C   UNL     1      30.780 -23.123 -14.512  0.00  0.00    +0.029 C 
ATOM     28  C   UNL     1      31.264 -22.993 -13.229  0.00  0.00    +0.007 C 
BRANCH  27  30
ATOM     29  F   UNL     1      25.694 -21.971 -16.479  0.00  0.00    -0.204 F 
ATOM     30  C   UNL     1      29.462 -22.824 -15.021  0.00  0.00    +0.006 C 
ATOM     31  C   UNL     1      29.153 -23.091 -16.356  0.00  0.00    +0.003 C 
ATOM     32  C   UNL     1      28.498 -22.269 -14.180  0.00  0.00    +0.003 C 
ATOM     33  C   UNL     1      27.881 -22.803 -16.848  0.00  0.00    +0.030 C 
ATOM     34  C   UNL     1      27.225 -21.981 -14.672  0.00  0.00    +0.030 C 
ATOM     35  C   UNL     1      26.916 -22.248 -16.006  0.00  0.00    +0.140 C 
ENDBRANCH  27  30
ENDBRANCH  23  25
ENDBRANCH   4  23
TORSDOF 9
ENDMDL
MODEL 8
REMARK VINA RESULT:     -10.4      6.261     10.283
REMARK  Name = 24812758
REMARK  9 active torsions:
REMARK  status: ('A' for Active; 'I' for Inactive)
REMARK    1  A    between atoms: C_1  and  C_11
REMARK    2  A    between atoms: C_4  and  C_23
REMARK    3  A    between atoms: C_9  and  O_14
REMARK    4  A    between atoms: C_10  and  O_16
REMARK    5  A    between atoms: C_12  and  O_18
REMARK    6  A    between atoms: C_13  and  C_20
REMARK    7  A    between atoms: C_20  and  O_21
REMARK    8  A    between atoms: C_23  and  C_25
REMARK    9  A    between atoms: C_27  and  C_30
REMARK                            x       y       z     vdW  Elec       q    Type
REMARK                         _______ _______ _______ _____ _____    ______ ____
ROOT
ATOM      1  C   UNL     1      34.615 -17.922 -23.076  0.00  0.00    +0.007 C 
ATOM      2  C   UNL     1      35.049 -16.618 -22.839  0.00  0.00    -0.006 C 
ATOM      3  C   UNL     1      33.787 -18.195 -24.165  0.00  0.00    -0.002 C 
ATOM      4  C   UNL     1      34.656 -15.586 -23.691  0.00  0.00    -0.021 C 
ATOM      5  C   UNL     1      33.828 -15.859 -24.780  0.00  0.00    -0.025 C 
ATOM      6  C   UNL     1      33.393 -17.163 -25.017  0.00  0.00    -0.005 C 
ATOM      7  C   UNL     1      33.394 -14.771 -25.707  0.00  0.00    +0.031 C 
ENDROOT
BRANCH   1  11
ATOM      8  O   UNL     1      33.914 -19.393 -21.340  0.00  0.00    -0.347 OA
ATOM      9  C   UNL     1      36.239 -18.641 -21.273  0.00  0.00    +0.171 C 
ATOM     10  C   UNL     1      36.550 -19.725 -20.238  0.00  0.00    +0.169 C 
ATOM     11  C   UNL     1      35.042 -19.043 -22.149  0.00  0.00    +0.167 C 
ATOM     12  C   UNL     1      35.288 -20.166 -19.498  0.00  0.00    +0.169 C 
ATOM     13  C   UNL     1      34.171 -20.508 -20.486  0.00  0.00    +0.174 C 
BRANCH   9  14
ATOM     14  O   UNL     1      37.379 -18.460 -22.113  0.00  0.00    -0.379 OA
ATOM     15  H   UNL     1      37.614 -19.306 -22.525  0.00  0.00    +0.211 HD
ENDBRANCH   9  14
BRANCH  10  16
ATOM     16  O   UNL     1      37.470 -19.211 -19.274  0.00  0.00    -0.379 OA
ATOM     17  H   UNL     1      37.148 -18.357 -18.943  0.00  0.00    +0.211 HD
ENDBRANCH  10  16
BRANCH  12  18
ATOM     18  O   UNL     1      35.582 -21.314 -18.706  0.00  0.00    -0.379 OA
ATOM     19  H   UNL     1      36.509 -21.571 -18.842  0.00  0.00    +0.211 HD
ENDBRANCH  12  18
BRANCH  13  20
ATOM     20  C   UNL     1      32.867 -20.845 -19.770  0.00  0.00    +0.169 C 
BRANCH  20  21
ATOM     21  O   UNL     1      32.997 -22.123 -19.172  0.00  0.00    -0.379 OA
ATOM     22  H   UNL     1      32.493 -22.773 -19.686  0.00  0.00    +0.211 HD
ENDBRANCH  20  21
ENDBRANCH  13  20
ENDBRANCH   1  11
BRANCH   4  23
ATOM     23  C   UNL     1      35.134 -14.198 -23.419  0.00  0.00    +0.059 C 
BRANCH  23  25
ATOM     24  S   UNL     1      34.152 -11.620 -23.005  0.00  0.00    -0.091 S 
ATOM     25  C   UNL     1      34.099 -13.314 -22.754  0.00  0.00    +0.012 C 
ATOM     26  C   UNL     1      33.057 -13.682 -21.933  0.00  0.00    +0.003 C 
ATOM     27  C   UNL     1      32.780 -11.376 -22.012  0.00  0.00    +0.029 C 
ATOM     28  C   UNL     1      32.293 -12.559 -21.502  0.00  0.00    +0.007 C 
BRANCH  27  30
ATOM     29  F   UNL     1      30.899  -6.187 -21.243  0.00  0.00    -0.204 F 
ATOM     30  C   UNL     1      32.292 -10.031 -21.813  0.00  0.00    +0.006 C 
ATOM     31  C   UNL     1      31.993  -9.581 -20.526  0.00  0.00    +0.003 C 
ATOM     32  C   UNL     1      32.120  -9.182 -22.906  0.00  0.00    +0.003 C 
ATOM     33  C   UNL     1      31.523  -8.282 -20.334  0.00  0.00    +0.030 C 
ATOM     34  C   UNL     1      31.649  -7.884 -22.713  0.00  0.00    +0.030 C 
ATOM     35  C   UNL     1      31.351  -7.434 -21.427  0.00  0.00    +0.140 C 
ENDBRANCH  27  30
ENDBRANCH  23  25
ENDBRANCH   4  23
TORSDOF 9
ENDMDL
MODEL 9
REMARK VINA RESULT:     -10.3      2.347      4.500
REMARK  Name = 24812758
REMARK  9 active torsions:
REMARK  status: ('A' for Active; 'I' for Inactive)
REMARK    1  A    between atoms: C_1  and  C_11
REMARK    2  A    between atoms: C_4  and  C_23
REMARK    3  A    between atoms: C_9  and  O_14
REMARK    4  A    between atoms: C_10  and  O_16
REMARK    5  A    between atoms: C_12  and  O_18
REMARK    6  A    between atoms: C_13  and  C_20
REMARK    7  A    between atoms: C_20  and  O_21
REMARK    8  A    between atoms: C_23  and  C_25
REMARK    9  A    between atoms: C_27  and  C_30
REMARK                            x       y       z     vdW  Elec       q    Type
REMARK                         _______ _______ _______ _____ _____    ______ ____
ROOT
ATOM      1  C   UNL     1      34.461 -22.161 -17.785  0.00  0.00    +0.007 C 
ATOM      2  C   UNL     1      35.362 -21.552 -18.658  0.00  0.00    -0.006 C 
ATOM      3  C   UNL     1      33.088 -21.987 -17.966  0.00  0.00    -0.002 C 
ATOM      4  C   UNL     1      34.893 -20.769 -19.712  0.00  0.00    -0.021 C 
ATOM      5  C   UNL     1      33.520 -20.594 -19.893  0.00  0.00    -0.025 C 
ATOM      6  C   UNL     1      32.619 -21.203 -19.020  0.00  0.00    -0.005 C 
ATOM      7  C   UNL     1      32.993 -19.761 -21.014  0.00  0.00    +0.031 C 
ENDROOT
BRANCH   1  11
ATOM      8  O   UNL     1      33.912 -23.139 -15.686  0.00  0.00    -0.347 OA
ATOM      9  C   UNL     1      36.224 -22.408 -15.988  0.00  0.00    +0.171 C 
ATOM     10  C   UNL     1      36.627 -23.195 -14.738  0.00  0.00    +0.169 C 
ATOM     11  C   UNL     1      34.972 -23.013 -16.640  0.00  0.00    +0.167 C 
ATOM     12  C   UNL     1      35.430 -23.426 -13.817  0.00  0.00    +0.169 C 
ATOM     13  C   UNL     1      34.247 -24.001 -14.598  0.00  0.00    +0.174 C 
BRANCH   9  14
ATOM     14  O   UNL     1      37.296 -22.453 -16.930  0.00  0.00    -0.379 OA
ATOM     15  H   UNL     1      37.005 -22.919 -17.729  0.00  0.00    +0.211 HD
ENDBRANCH   9  14
BRANCH  10  16
ATOM     16  O   UNL     1      37.609 -22.457 -14.008  0.00  0.00    -0.379 OA
ATOM     17  H   UNL     1      38.331 -23.050 -13.747  0.00  0.00    +0.211 HD
ENDBRANCH  10  16
BRANCH  12  18
ATOM     18  O   UNL     1      35.799 -24.337 -12.784  0.00  0.00    -0.379 OA
ATOM     19  H   UNL     1      35.196 -24.232 -12.031  0.00  0.00    +0.211 HD
ENDBRANCH  12  18
BRANCH  13  20
ATOM     20  C   UNL     1      33.005 -24.138 -13.723  0.00  0.00    +0.169 C 
BRANCH  20  21
ATOM     21  O   UNL     1      33.183 -23.349 -12.560  0.00  0.00    -0.379 OA
ATOM     22  H   UNL     1      32.845 -22.455 -12.722  0.00  0.00    +0.211 HD
ENDBRANCH  20  21
ENDBRANCH  13  20
ENDBRANCH   1  11
BRANCH   4  23
ATOM     23  C   UNL     1      35.876 -20.127 -20.634  0.00  0.00    +0.059 C 
BRANCH  23  25
ATOM     24  S   UNL     1      35.047 -18.279 -22.551  0.00  0.00    -0.091 S 
ATOM     25  C   UNL     1      35.554 -18.685 -20.966  0.00  0.00    +0.012 C 
ATOM     26  C   UNL     1      35.604 -17.584 -20.141  0.00  0.00    +0.003 C 
ATOM     27  C   UNL     1      34.896 -16.625 -22.135  0.00  0.00    +0.029 C 
ATOM     28  C   UNL     1      35.223 -16.389 -20.819  0.00  0.00    +0.007 C 
BRANCH  27  30
ATOM     29  F   UNL     1      33.235 -13.010 -26.039  0.00  0.00    -0.204 F 
ATOM     30  C   UNL     1      34.465 -15.687 -23.147  0.00  0.00    +0.006 C 
ATOM     31  C   UNL     1      34.304 -16.111 -24.467  0.00  0.00    +0.003 C 
ATOM     32  C   UNL     1      34.211 -14.359 -22.805  0.00  0.00    +0.003 C 
ATOM     33  C   UNL     1      33.888 -15.207 -25.443  0.00  0.00    +0.030 C 
ATOM     34  C   UNL     1      33.795 -13.455 -23.781  0.00  0.00    +0.030 C 
ATOM     35  C   UNL     1      33.634 -13.879 -25.101  0.00  0.00    +0.140 C 
ENDBRANCH  27  30
ENDBRANCH  23  25
ENDBRANCH   4  23
TORSDOF 9
ENDMDL
