MODEL 1
REMARK VINA RESULT:     -12.7      0.000      0.000
REMARK  Name = 46937081
REMARK  6 active torsions:
REMARK  status: ('A' for Active; 'I' for Inactive)
REMARK    1  A    between atoms: N_1  and  C_10
REMARK    2  A    between atoms: C_4  and  C_16
REMARK    3  A    between atoms: C_9  and  C_31
REMARK    4  A    between atoms: C_16  and  C_17
REMARK    5  A    between atoms: C_18  and  N_23
REMARK    6  A    between atoms: C_31  and  N_32
REMARK                            x       y       z     vdW  Elec       q    Type
REMARK                         _______ _______ _______ _____ _____    ______ ____
ROOT
ATOM      1  N   UNL     1      34.101 -23.324 -15.057  0.00  0.00    -0.267 N 
ATOM      2  N   UNL     1      35.131 -23.490 -12.882  0.00  0.00    -0.341 NA
ATOM      3  N   UNL     1      37.500 -22.930 -12.908  0.00  0.00    -0.188 NA
ATOM      4  C   UNL     1      34.502 -22.990 -16.324  0.00  0.00    +0.035 C 
ATOM      5  C   UNL     1      35.168 -23.234 -14.201  0.00  0.00    +0.199 C 
ATOM      6  C   UNL     1      36.275 -22.834 -14.939  0.00  0.00    +0.066 C 
ATOM      7  C   UNL     1      35.845 -22.682 -16.282  0.00  0.00    +0.016 C 
ATOM      8  C   UNL     1      37.472 -22.686 -14.239  0.00  0.00    +0.114 C 
ATOM      9  C   UNL     1      36.344 -23.312 -12.320  0.00  0.00    +0.042 C 
ENDROOT
BRANCH   1  10
ATOM     10  C   UNL     1      32.695 -23.731 -14.655  0.00  0.00    +0.079 C 
ATOM     11  C   UNL     1      32.702 -24.792 -13.541  0.00  0.00    +0.020 C 
ATOM     12  C   UNL     1      31.840 -22.516 -14.254  0.00  0.00    +0.020 C 
ATOM     13  C   UNL     1      31.282 -25.202 -13.152  0.00  0.00    +0.002 C 
ATOM     14  C   UNL     1      30.424 -22.935 -13.862  0.00  0.00    +0.002 C 
ATOM     15  C   UNL     1      30.434 -23.994 -12.763  0.00  0.00    +0.000 C 
ENDBRANCH   1  10
BRANCH   4  16
ATOM     16  C   UNL     1      33.545 -22.992 -17.501  0.00  0.00    +0.068 C 
BRANCH  16  17
ATOM     17  C   UNL     1      33.823 -21.928 -18.508  0.00  0.00    -0.016 C 
ATOM     18  C   UNL     1      34.341 -19.936 -20.391  0.00  0.00    +0.048 C 
ATOM     19  C   UNL     1      32.771 -21.188 -19.049  0.00  0.00    -0.003 C 
ATOM     20  C   UNL     1      35.133 -21.672 -18.908  0.00  0.00    -0.003 C 
ATOM     21  C   UNL     1      33.030 -20.193 -19.990  0.00  0.00    +0.014 C 
ATOM     22  C   UNL     1      35.393 -20.676 -19.850  0.00  0.00    +0.014 C 
BRANCH  18  23
ATOM     23  N   UNL     1      34.602 -18.937 -21.335  0.00  0.00    -0.312 N 
ATOM     24  N   UNL     1      35.382 -16.973 -23.257  0.00  0.00    +0.388 N 
ATOM     25  C   UNL     1      34.618 -19.272 -22.763  0.00  0.00    +0.068 C 
ATOM     26  C   UNL     1      35.464 -17.819 -20.936  0.00  0.00    +0.068 C 
ATOM     27  C   UNL     1      35.229 -16.609 -21.843  0.00  0.00    -0.056 C 
ATOM     28  C   UNL     1      34.411 -18.015 -23.612  0.00  0.00    -0.056 C 
ATOM     29  C   UNL     1      35.209 -15.799 -24.111  0.00  0.00    -0.101 C 
ATOM     30  H   UNL     1      36.323 -17.337 -23.404  0.00  0.00    -0.080 HD
ENDBRANCH  18  23
ENDBRANCH  16  17
ENDBRANCH   4  16
BRANCH   9  31
ATOM     31  C   UNL     1      36.421 -23.570 -10.852  0.00  0.00    +0.030 C 
BRANCH  31  32
ATOM     32  N   UNL     1      35.638 -24.740 -10.452  0.00  0.00    +0.390 N 
ATOM     33  H   UNL     1      34.846 -24.852 -11.086  0.00  0.00    -0.088 HD
ATOM     34  H   UNL     1      35.295 -24.610  -9.500  0.00  0.00    -0.088 HD
ATOM     35  H   UNL     1      36.226 -25.572 -10.491  0.00  0.00    -0.088 HD
ENDBRANCH  31  32
ENDBRANCH   9  31
TORSDOF 6
ENDMDL
MODEL 2
REMARK VINA RESULT:     -12.0      1.734      3.880
REMARK  Name = 46937081
REMARK  6 active torsions:
REMARK  status: ('A' for Active; 'I' for Inactive)
REMARK    1  A    between atoms: N_1  and  C_10
REMARK    2  A    between atoms: C_4  and  C_16
REMARK    3  A    between atoms: C_9  and  C_31
REMARK    4  A    between atoms: C_16  and  C_17
REMARK    5  A    between atoms: C_18  and  N_23
REMARK    6  A    between atoms: C_31  and  N_32
REMARK                            x       y       z     vdW  Elec       q    Type
REMARK                         _______ _______ _______ _____ _____    ______ ____
ROOT
ATOM      1  N   UNL     1      34.370 -23.126 -16.041  0.00  0.00    -0.267 N 
ATOM      2  N   UNL     1      32.735 -23.940 -14.466  0.00  0.00    -0.341 NA
ATOM      3  N   UNL     1      30.443 -23.535 -15.181  0.00  0.00    -0.188 NA
ATOM      4  C   UNL     1      34.351 -22.487 -17.253  0.00  0.00    +0.035 C 
ATOM      5  C   UNL     1      33.085 -23.336 -15.615  0.00  0.00    +0.199 C 
ATOM      6  C   UNL     1      32.226 -22.820 -16.577  0.00  0.00    +0.066 C 
ATOM      7  C   UNL     1      33.035 -22.283 -17.610  0.00  0.00    +0.016 C 
ATOM      8  C   UNL     1      30.860 -22.937 -16.322  0.00  0.00    +0.114 C 
ATOM      9  C   UNL     1      31.393 -23.993 -14.336  0.00  0.00    +0.042 C 
ENDROOT
BRANCH   1  10
ATOM     10  C   UNL     1      35.617 -23.539 -15.282  0.00  0.00    +0.079 C 
ATOM     11  C   UNL     1      35.849 -22.663 -14.038  0.00  0.00    +0.020 C 
ATOM     12  C   UNL     1      35.591 -25.031 -14.907  0.00  0.00    +0.020 C 
ATOM     13  C   UNL     1      37.113 -23.082 -13.288  0.00  0.00    +0.002 C 
ATOM     14  C   UNL     1      36.855 -25.440 -14.153  0.00  0.00    +0.002 C 
ATOM     15  C   UNL     1      37.087 -24.564 -12.925  0.00  0.00    +0.000 C 
ENDBRANCH   1  10
BRANCH   4  16
ATOM     16  C   UNL     1      35.624 -22.113 -17.989  0.00  0.00    +0.068 C 
BRANCH  16  17
ATOM     17  C   UNL     1      35.420 -21.124 -19.086  0.00  0.00    -0.016 C 
ATOM     18  C   UNL     1      35.038 -19.271 -21.137  0.00  0.00    +0.048 C 
ATOM     19  C   UNL     1      34.147 -20.928 -19.621  0.00  0.00    -0.003 C 
ATOM     20  C   UNL     1      36.502 -20.393 -19.576  0.00  0.00    -0.003 C 
ATOM     21  C   UNL     1      33.956 -20.002 -20.646  0.00  0.00    +0.014 C 
ATOM     22  C   UNL     1      36.312 -19.467 -20.601  0.00  0.00    +0.014 C 
BRANCH  18  23
ATOM     23  N   UNL     1      34.847 -18.342 -22.165  0.00  0.00    -0.312 N 
ATOM     24  N   UNL     1      34.706 -16.482 -24.328  0.00  0.00    +0.388 N 
ATOM     25  C   UNL     1      34.513 -18.808 -23.514  0.00  0.00    +0.068 C 
ATOM     26  C   UNL     1      35.586 -17.076 -22.096  0.00  0.00    +0.068 C 
ATOM     27  C   UNL     1      34.902 -16.008 -22.953  0.00  0.00    -0.056 C 
ATOM     28  C   UNL     1      33.864 -17.685 -24.326  0.00  0.00    -0.056 C 
ATOM     29  C   UNL     1      34.102 -15.435 -25.151  0.00  0.00    -0.101 C 
ATOM     30  H   UNL     1      35.614 -16.716 -24.729  0.00  0.00    -0.080 HD
ENDBRANCH  18  23
ENDBRANCH  16  17
ENDBRANCH   4  16
BRANCH   9  31
ATOM     31  C   UNL     1      30.889 -24.645 -13.091  0.00  0.00    +0.030 C 
BRANCH  31  32
ATOM     32  N   UNL     1      29.631 -25.359 -13.308  0.00  0.00    +0.390 N 
ATOM     33  H   UNL     1      28.931 -25.023 -12.646  0.00  0.00    -0.088 HD
ATOM     34  H   UNL     1      29.779 -26.358 -13.168  0.00  0.00    -0.088 HD
ATOM     35  H   UNL     1      29.307 -25.194 -14.261  0.00  0.00    -0.088 HD
ENDBRANCH  31  32
ENDBRANCH   9  31
TORSDOF 6
ENDMDL
