MODEL 1
REMARK VINA RESULT:     -12.0      0.000      0.000
REMARK  Name = 11507920
REMARK  4 active torsions:
REMARK  status: ('A' for Active; 'I' for Inactive)
REMARK    1  A    between atoms: C_1  and  C_8
REMARK    2  A    between atoms: C_2  and  C_17
REMARK    3  A    between atoms: C_17  and  N_18
REMARK    4  A    between atoms: N_18  and  C_21
REMARK                            x       y       z     vdW  Elec       q    Type
REMARK                         _______ _______ _______ _____ _____    ______ ____
ROOT
ATOM      1  C   UNL     1      34.662 -18.831 -21.847  0.00  0.00    -0.000 C 
ATOM      2  C   UNL     1      34.959 -16.579 -22.666  0.00  0.00    -0.003 C 
ATOM      3  C   UNL     1      35.005 -17.500 -21.619  0.00  0.00    -0.003 C 
ATOM      4  C   UNL     1      34.272 -19.245 -23.120  0.00  0.00    -0.000 C 
ATOM      5  C   UNL     1      34.568 -16.991 -23.940  0.00  0.00    -0.003 C 
ATOM      6  C   UNL     1      34.223 -18.324 -24.167  0.00  0.00    -0.000 C 
ENDROOT
BRANCH   1   8
ATOM      7  N   UNL     1      32.617 -21.876 -18.498  0.00  0.00    -0.312 N 
ATOM      8  C   UNL     1      34.710 -19.787 -20.759  0.00  0.00    +0.001 C 
ATOM      9  C   UNL     1      33.607 -21.218 -19.192  0.00  0.00    +0.048 C 
ATOM     10  C   UNL     1      34.828 -21.632 -18.656  0.00  0.00    +0.015 C 
ATOM     11  C   UNL     1      33.516 -20.298 -20.242  0.00  0.00    +0.015 C 
ATOM     12  C   UNL     1      35.944 -20.181 -20.244  0.00  0.00    +0.000 C 
ATOM     13  C   UNL     1      36.019 -21.102 -19.193  0.00  0.00    +0.001 C 
ATOM     14  C   UNL     1      34.535 -22.560 -17.619  0.00  0.00    +0.017 C 
ATOM     15  C   UNL     1      33.168 -22.689 -17.546  0.00  0.00    +0.062 C 
ATOM     16  H   UNL     1      31.651 -21.777 -18.664  0.00  0.00    +0.152 HD
ENDBRANCH   1   8
BRANCH   2  17
ATOM     17  C   UNL     1      35.325 -15.153 -22.424  0.00  0.00    +0.114 C 
BRANCH  17  18
ATOM     18  N   UNL     1      34.358 -14.239 -22.975  0.00  0.00    -0.327 N 
ATOM     19  H   UNL     1      34.273 -14.187 -23.954  0.00  0.00    +0.147 HD
BRANCH  18  21
ATOM     20  N   UNL     1      32.364 -11.319 -21.872  0.00  0.00    -0.228 NA
ATOM     21  C   UNL     1      33.537 -13.427 -22.204  0.00  0.00    +0.077 C 
ATOM     22  C   UNL     1      33.161 -12.139 -22.593  0.00  0.00    +0.139 C 
ATOM     23  C   UNL     1      33.041 -13.879 -20.975  0.00  0.00    +0.019 C 
ATOM     24  C   UNL     1      32.219 -13.064 -20.204  0.00  0.00    +0.022 C 
ATOM     25  C   UNL     1      31.913 -11.804 -20.693  0.00  0.00    +0.100 C 
ATOM     26  N   UNL     1      33.652 -11.658 -23.833  0.00  0.00    -0.342 N 
ATOM     27  H   UNL     1      33.409 -10.756 -24.141  0.00  0.00    +0.144 HD
ATOM     28  H   UNL     1      34.235 -12.227 -24.386  0.00  0.00    +0.144 HD
ENDBRANCH  18  21
ENDBRANCH  17  18
ENDBRANCH   2  17
TORSDOF 4
ENDMDL
MODEL 2
REMARK VINA RESULT:     -11.9      1.490      1.988
REMARK  Name = 11507920
REMARK  4 active torsions:
REMARK  status: ('A' for Active; 'I' for Inactive)
REMARK    1  A    between atoms: C_1  and  C_8
REMARK    2  A    between atoms: C_2  and  C_17
REMARK    3  A    between atoms: C_17  and  N_18
REMARK    4  A    between atoms: N_18  and  C_21
REMARK                            x       y       z     vdW  Elec       q    Type
REMARK                         _______ _______ _______ _____ _____    ______ ____
ROOT
ATOM      1  C   UNL     1      34.868 -18.980 -21.571  0.00  0.00    -0.000 C 
ATOM      2  C   UNL     1      34.950 -16.688 -22.329  0.00  0.00    -0.003 C 
ATOM      3  C   UNL     1      34.922 -17.616 -21.287  0.00  0.00    -0.003 C 
ATOM      4  C   UNL     1      34.840 -19.418 -22.894  0.00  0.00    -0.000 C 
ATOM      5  C   UNL     1      34.922 -17.125 -23.653  0.00  0.00    -0.003 C 
ATOM      6  C   UNL     1      34.866 -18.491 -23.936  0.00  0.00    -0.000 C 
ENDROOT
BRANCH   1   8
ATOM      7  N   UNL     1      32.584 -21.997 -18.353  0.00  0.00    -0.312 N 
ATOM      8  C   UNL     1      34.837 -19.943 -20.489  0.00  0.00    +0.001 C 
ATOM      9  C   UNL     1      33.623 -21.358 -18.991  0.00  0.00    +0.048 C 
ATOM     10  C   UNL     1      34.806 -21.803 -18.397  0.00  0.00    +0.015 C 
ATOM     11  C   UNL     1      33.608 -20.429 -20.037  0.00  0.00    +0.015 C 
ATOM     12  C   UNL     1      36.034 -20.369 -19.915  0.00  0.00    +0.000 C 
ATOM     13  C   UNL     1      36.034 -21.299 -18.868  0.00  0.00    +0.001 C 
ATOM     14  C   UNL     1      34.438 -22.731 -17.383  0.00  0.00    +0.017 C 
ATOM     15  C   UNL     1      33.067 -22.828 -17.380  0.00  0.00    +0.062 C 
ATOM     16  H   UNL     1      31.630 -21.873 -18.567  0.00  0.00    +0.152 HD
ENDBRANCH   1   8
BRANCH   2  17
ATOM     17  C   UNL     1      35.009 -15.229 -22.027  0.00  0.00    +0.114 C 
BRANCH  17  18
ATOM     18  N   UNL     1      33.810 -14.539 -22.430  0.00  0.00    -0.327 N 
ATOM     19  H   UNL     1      32.958 -14.813 -22.022  0.00  0.00    +0.147 HD
BRANCH  18  21
ATOM     20  N   UNL     1      33.273 -12.699 -25.600  0.00  0.00    -0.228 NA
ATOM     21  C   UNL     1      33.788 -13.510 -23.362  0.00  0.00    +0.077 C 
ATOM     22  C   UNL     1      33.313 -13.675 -24.665  0.00  0.00    +0.139 C 
ATOM     23  C   UNL     1      34.251 -12.232 -23.022  0.00  0.00    +0.019 C 
ATOM     24  C   UNL     1      34.228 -11.203 -23.957  0.00  0.00    +0.022 C 
ATOM     25  C   UNL     1      33.733 -11.485 -25.221  0.00  0.00    +0.100 C 
ATOM     26  N   UNL     1      32.840 -14.959 -25.033  0.00  0.00    -0.342 N 
ATOM     27  H   UNL     1      32.496 -15.115 -25.943  0.00  0.00    +0.144 HD
ATOM     28  H   UNL     1      32.852 -15.695 -24.380  0.00  0.00    +0.144 HD
ENDBRANCH  18  21
ENDBRANCH  17  18
ENDBRANCH   2  17
TORSDOF 4
ENDMDL
MODEL 3
REMARK VINA RESULT:     -11.9      2.343      9.008
REMARK  Name = 11507920
REMARK  4 active torsions:
REMARK  status: ('A' for Active; 'I' for Inactive)
REMARK    1  A    between atoms: C_1  and  C_8
REMARK    2  A    between atoms: C_2  and  C_17
REMARK    3  A    between atoms: C_17  and  N_18
REMARK    4  A    between atoms: N_18  and  C_21
REMARK                            x       y       z     vdW  Elec       q    Type
REMARK                         _______ _______ _______ _____ _____    ______ ____
ROOT
ATOM      1  C   UNL     1      35.196 -20.014 -20.253  0.00  0.00    -0.000 C 
ATOM      2  C   UNL     1      34.211 -21.611 -18.732  0.00  0.00    -0.003 C 
ATOM      3  C   UNL     1      34.070 -20.660 -19.743  0.00  0.00    -0.003 C 
ATOM      4  C   UNL     1      36.461 -20.316 -19.753  0.00  0.00    -0.000 C 
ATOM      5  C   UNL     1      35.477 -21.913 -18.230  0.00  0.00    -0.003 C 
ATOM      6  C   UNL     1      36.603 -21.265 -18.741  0.00  0.00    -0.000 C 
ENDROOT
BRANCH   1   8
ATOM      7  N   UNL     1      35.143 -15.378 -22.033  0.00  0.00    -0.312 N 
ATOM      8  C   UNL     1      35.049 -19.027 -21.303  0.00  0.00    +0.001 C 
ATOM      9  C   UNL     1      35.051 -16.751 -22.039  0.00  0.00    +0.048 C 
ATOM     10  C   UNL     1      34.761 -17.138 -23.349  0.00  0.00    +0.015 C 
ATOM     11  C   UNL     1      35.200 -17.672 -20.996  0.00  0.00    +0.015 C 
ATOM     12  C   UNL     1      34.760 -19.442 -22.602  0.00  0.00    +0.000 C 
ATOM     13  C   UNL     1      34.613 -18.510 -23.635  0.00  0.00    +0.001 C 
ATOM     14  C   UNL     1      34.684 -15.949 -24.127  0.00  0.00    +0.017 C 
ATOM     15  C   UNL     1      34.922 -14.884 -23.290  0.00  0.00    +0.062 C 
ATOM     16  H   UNL     1      35.339 -14.830 -21.238  0.00  0.00    +0.152 HD
ENDBRANCH   1   8
BRANCH   2  17
ATOM     17  C   UNL     1      33.008 -22.303 -18.185  0.00  0.00    +0.114 C 
BRANCH  17  18
ATOM     18  N   UNL     1      33.347 -23.270 -17.172  0.00  0.00    -0.327 N 
ATOM     19  H   UNL     1      34.015 -23.958 -17.393  0.00  0.00    +0.147 HD
BRANCH  18  21
ATOM     20  N   UNL     1      33.016 -23.580 -13.496  0.00  0.00    -0.228 NA
ATOM     21  C   UNL     1      32.786 -23.287 -15.903  0.00  0.00    +0.077 C 
ATOM     22  C   UNL     1      33.525 -23.555 -14.748  0.00  0.00    +0.139 C 
ATOM     23  C   UNL     1      31.421 -23.028 -15.725  0.00  0.00    +0.019 C 
ATOM     24  C   UNL     1      30.860 -23.046 -14.453  0.00  0.00    +0.022 C 
ATOM     25  C   UNL     1      31.693 -23.324 -13.380  0.00  0.00    +0.100 C 
ATOM     26  N   UNL     1      34.908 -23.822 -14.903  0.00  0.00    -0.342 N 
ATOM     27  H   UNL     1      35.463 -24.015 -14.112  0.00  0.00    +0.144 HD
ATOM     28  H   UNL     1      35.315 -23.813 -15.799  0.00  0.00    +0.144 HD
ENDBRANCH  18  21
ENDBRANCH  17  18
ENDBRANCH   2  17
TORSDOF 4
ENDMDL
MODEL 4
REMARK VINA RESULT:     -11.7      1.260      1.999
REMARK  Name = 11507920
REMARK  4 active torsions:
REMARK  status: ('A' for Active; 'I' for Inactive)
REMARK    1  A    between atoms: C_1  and  C_8
REMARK    2  A    between atoms: C_2  and  C_17
REMARK    3  A    between atoms: C_17  and  N_18
REMARK    4  A    between atoms: N_18  and  C_21
REMARK                            x       y       z     vdW  Elec       q    Type
REMARK                         _______ _______ _______ _____ _____    ______ ____
ROOT
ATOM      1  C   UNL     1      34.868 -18.005 -22.490  0.00  0.00    -0.000 C 
ATOM      2  C   UNL     1      34.560 -15.766 -23.344  0.00  0.00    -0.003 C 
ATOM      3  C   UNL     1      34.959 -16.624 -22.319  0.00  0.00    -0.003 C 
ATOM      4  C   UNL     1      34.377 -18.529 -23.685  0.00  0.00    -0.000 C 
ATOM      5  C   UNL     1      34.068 -16.290 -24.540  0.00  0.00    -0.003 C 
ATOM      6  C   UNL     1      33.976 -17.672 -24.710  0.00  0.00    -0.000 C 
ENDROOT
BRANCH   1   8
ATOM      7  N   UNL     1      34.098 -21.537 -19.085  0.00  0.00    -0.312 N 
ATOM      8  C   UNL     1      35.281 -18.895 -21.425  0.00  0.00    +0.001 C 
ATOM      9  C   UNL     1      34.785 -20.600 -19.823  0.00  0.00    +0.048 C 
ATOM     10  C   UNL     1      36.105 -20.606 -19.368  0.00  0.00    +0.015 C 
ATOM     11  C   UNL     1      34.344 -19.757 -20.849  0.00  0.00    +0.015 C 
ATOM     12  C   UNL     1      36.606 -18.878 -20.991  0.00  0.00    +0.000 C 
ATOM     13  C   UNL     1      37.032 -19.728 -19.964  0.00  0.00    +0.001 C 
ATOM     14  C   UNL     1      36.185 -21.579 -18.332  0.00  0.00    +0.017 C 
ATOM     15  C   UNL     1      34.935 -22.133 -18.182  0.00  0.00    +0.062 C 
ATOM     16  H   UNL     1      33.142 -21.748 -19.192  0.00  0.00    +0.152 HD
ENDBRANCH   1   8
BRANCH   2  17
ATOM     17  C   UNL     1      34.657 -14.289 -23.162  0.00  0.00    +0.114 C 
BRANCH  17  18
ATOM     18  N   UNL     1      33.407 -13.707 -22.744  0.00  0.00    -0.327 N 
ATOM     19  H   UNL     1      32.675 -14.313 -22.489  0.00  0.00    +0.147 HD
BRANCH  18  21
ATOM     20  N   UNL     1      32.060 -10.432 -21.656  0.00  0.00    -0.228 NA
ATOM     21  C   UNL     1      33.176 -12.339 -22.680  0.00  0.00    +0.077 C 
ATOM     22  C   UNL     1      32.310 -11.758 -21.751  0.00  0.00    +0.139 C 
ATOM     23  C   UNL     1      33.821 -11.466 -23.565  0.00  0.00    +0.019 C 
ATOM     24  C   UNL     1      33.589 -10.097 -23.499  0.00  0.00    +0.022 C 
ATOM     25  C   UNL     1      32.707  -9.634 -22.535  0.00  0.00    +0.100 C 
ATOM     26  N   UNL     1      31.644 -12.621 -20.845  0.00  0.00    -0.342 N 
ATOM     27  H   UNL     1      31.026 -12.248 -20.176  0.00  0.00    +0.144 HD
ATOM     28  H   UNL     1      31.801 -13.591 -20.883  0.00  0.00    +0.144 HD
ENDBRANCH  18  21
ENDBRANCH  17  18
ENDBRANCH   2  17
TORSDOF 4
ENDMDL
MODEL 5
REMARK VINA RESULT:     -11.7      1.541      2.717
REMARK  Name = 11507920
REMARK  4 active torsions:
REMARK  status: ('A' for Active; 'I' for Inactive)
REMARK    1  A    between atoms: C_1  and  C_8
REMARK    2  A    between atoms: C_2  and  C_17
REMARK    3  A    between atoms: C_17  and  N_18
REMARK    4  A    between atoms: N_18  and  C_21
REMARK                            x       y       z     vdW  Elec       q    Type
REMARK                         _______ _______ _______ _____ _____    ______ ____
ROOT
ATOM      1  C   UNL     1      35.375 -19.839 -20.437  0.00  0.00    -0.000 C 
ATOM      2  C   UNL     1      35.301 -18.459 -22.418  0.00  0.00    -0.003 C 
ATOM      3  C   UNL     1      34.660 -19.295 -21.504  0.00  0.00    -0.003 C 
ATOM      4  C   UNL     1      36.730 -19.550 -20.284  0.00  0.00    -0.000 C 
ATOM      5  C   UNL     1      36.657 -18.169 -22.266  0.00  0.00    -0.003 C 
ATOM      6  C   UNL     1      37.372 -18.715 -21.199  0.00  0.00    -0.000 C 
ENDROOT
BRANCH   1   8
ATOM      7  N   UNL     1      35.254 -22.936 -16.556  0.00  0.00    -0.312 N 
ATOM      8  C   UNL     1      34.710 -20.709 -19.489  0.00  0.00    +0.001 C 
ATOM      9  C   UNL     1      34.782 -22.186 -17.609  0.00  0.00    +0.048 C 
ATOM     10  C   UNL     1      33.400 -22.384 -17.667  0.00  0.00    +0.015 C 
ATOM     11  C   UNL     1      35.463 -21.355 -18.505  0.00  0.00    +0.015 C 
ATOM     12  C   UNL     1      33.330 -20.888 -19.572  0.00  0.00    +0.000 C 
ATOM     13  C   UNL     1      32.662 -21.722 -18.668  0.00  0.00    +0.001 C 
ATOM     14  C   UNL     1      33.063 -23.278 -16.613  0.00  0.00    +0.017 C 
ATOM     15  C   UNL     1      34.223 -23.599 -15.949  0.00  0.00    +0.062 C 
ATOM     16  H   UNL     1      36.198 -22.988 -16.280  0.00  0.00    +0.152 HD
ENDBRANCH   1   8
BRANCH   2  17
ATOM     17  C   UNL     1      34.538 -17.876 -23.559  0.00  0.00    +0.114 C 
BRANCH  17  18
ATOM     18  N   UNL     1      34.953 -16.531 -23.864  0.00  0.00    -0.327 N 
ATOM     19  H   UNL     1      35.648 -16.404 -24.550  0.00  0.00    +0.147 HD
BRANCH  18  21
ATOM     20  N   UNL     1      32.958 -13.463 -23.289  0.00  0.00    -0.228 NA
ATOM     21  C   UNL     1      34.430 -15.403 -23.246  0.00  0.00    +0.077 C 
ATOM     22  C   UNL     1      33.492 -14.568 -23.857  0.00  0.00    +0.139 C 
ATOM     23  C   UNL     1      34.831 -15.050 -21.951  0.00  0.00    +0.019 C 
ATOM     24  C   UNL     1      34.306 -13.921 -21.334  0.00  0.00    +0.022 C 
ATOM     25  C   UNL     1      33.380 -13.167 -22.039  0.00  0.00    +0.100 C 
ATOM     26  N   UNL     1      33.071 -14.904 -25.169  0.00  0.00    -0.342 N 
ATOM     27  H   UNL     1      32.410 -14.340 -25.633  0.00  0.00    +0.144 HD
ATOM     28  H   UNL     1      33.437 -15.701 -25.615  0.00  0.00    +0.144 HD
ENDBRANCH  18  21
ENDBRANCH  17  18
ENDBRANCH   2  17
TORSDOF 4
ENDMDL
MODEL 6
REMARK VINA RESULT:     -11.6      2.303      8.839
REMARK  Name = 11507920
REMARK  4 active torsions:
REMARK  status: ('A' for Active; 'I' for Inactive)
REMARK    1  A    between atoms: C_1  and  C_8
REMARK    2  A    between atoms: C_2  and  C_17
REMARK    3  A    between atoms: C_17  and  N_18
REMARK    4  A    between atoms: N_18  and  C_21
REMARK                            x       y       z     vdW  Elec       q    Type
REMARK                         _______ _______ _______ _____ _____    ______ ____
ROOT
ATOM      1  C   UNL     1      35.328 -20.034 -20.226  0.00  0.00    -0.000 C 
ATOM      2  C   UNL     1      34.503 -21.900 -18.932  0.00  0.00    -0.003 C 
ATOM      3  C   UNL     1      34.308 -20.934 -19.920  0.00  0.00    -0.003 C 
ATOM      4  C   UNL     1      36.543 -20.097 -19.546  0.00  0.00    -0.000 C 
ATOM      5  C   UNL     1      35.718 -21.963 -18.250  0.00  0.00    -0.003 C 
ATOM      6  C   UNL     1      36.738 -21.061 -18.556  0.00  0.00    -0.000 C 
ENDROOT
BRANCH   1   8
ATOM      7  N   UNL     1      35.140 -15.370 -21.921  0.00  0.00    -0.312 N 
ATOM      8  C   UNL     1      35.124 -19.032 -21.252  0.00  0.00    +0.001 C 
ATOM      9  C   UNL     1      35.065 -16.744 -21.947  0.00  0.00    +0.048 C 
ATOM     10  C   UNL     1      34.725 -17.112 -23.251  0.00  0.00    +0.015 C 
ATOM     11  C   UNL     1      35.271 -17.680 -20.928  0.00  0.00    +0.015 C 
ATOM     12  C   UNL     1      34.785 -19.429 -22.544  0.00  0.00    +0.000 C 
ATOM     13  C   UNL     1      34.582 -18.481 -23.554  0.00  0.00    +0.001 C 
ATOM     14  C   UNL     1      34.599 -15.912 -24.004  0.00  0.00    +0.017 C 
ATOM     15  C   UNL     1      34.860 -14.858 -23.159  0.00  0.00    +0.062 C 
ATOM     16  H   UNL     1      35.363 -14.832 -21.127  0.00  0.00    +0.152 HD
ENDBRANCH   1   8
BRANCH   2  17
ATOM     17  C   UNL     1      33.413 -22.863 -18.603  0.00  0.00    +0.114 C 
BRANCH  17  18
ATOM     18  N   UNL     1      32.505 -22.344 -17.614  0.00  0.00    -0.327 N 
ATOM     19  H   UNL     1      31.966 -21.553 -17.847  0.00  0.00    +0.147 HD
BRANCH  18  21
ATOM     20  N   UNL     1      30.900 -23.586 -14.515  0.00  0.00    -0.228 NA
ATOM     21  C   UNL     1      32.345 -22.893 -16.349  0.00  0.00    +0.077 C 
ATOM     22  C   UNL     1      31.097 -23.055 -15.743  0.00  0.00    +0.139 C 
ATOM     23  C   UNL     1      33.458 -23.319 -15.612  0.00  0.00    +0.019 C 
ATOM     24  C   UNL     1      33.295 -23.870 -14.346  0.00  0.00    +0.022 C 
ATOM     25  C   UNL     1      32.007 -23.981 -13.847  0.00  0.00    +0.100 C 
ATOM     26  N   UNL     1      29.955 -22.630 -16.468  0.00  0.00    -0.342 N 
ATOM     27  H   UNL     1      29.058 -22.728 -16.074  0.00  0.00    +0.144 HD
ATOM     28  H   UNL     1      30.059 -22.238 -17.365  0.00  0.00    +0.144 HD
ENDBRANCH  18  21
ENDBRANCH  17  18
ENDBRANCH   2  17
TORSDOF 4
ENDMDL
MODEL 7
REMARK VINA RESULT:     -11.3      1.784      2.991
REMARK  Name = 11507920
REMARK  4 active torsions:
REMARK  status: ('A' for Active; 'I' for Inactive)
REMARK    1  A    between atoms: C_1  and  C_8
REMARK    2  A    between atoms: C_2  and  C_17
REMARK    3  A    between atoms: C_17  and  N_18
REMARK    4  A    between atoms: N_18  and  C_21
REMARK                            x       y       z     vdW  Elec       q    Type
REMARK                         _______ _______ _______ _____ _____    ______ ____
ROOT
ATOM      1  C   UNL     1      35.662 -19.956 -20.275  0.00  0.00    -0.000 C 
ATOM      2  C   UNL     1      35.271 -18.653 -22.271  0.00  0.00    -0.003 C 
ATOM      3  C   UNL     1      34.800 -19.512 -21.277  0.00  0.00    -0.003 C 
ATOM      4  C   UNL     1      36.994 -19.546 -20.265  0.00  0.00    -0.000 C 
ATOM      5  C   UNL     1      36.604 -18.241 -22.262  0.00  0.00    -0.003 C 
ATOM      6  C   UNL     1      37.466 -18.688 -21.260  0.00  0.00    -0.000 C 
ENDROOT
BRANCH   1   8
ATOM      7  N   UNL     1      32.097 -22.334 -17.763  0.00  0.00    -0.312 N 
ATOM      8  C   UNL     1      35.172 -20.848 -19.244  0.00  0.00    +0.001 C 
ATOM      9  C   UNL     1      33.367 -21.936 -18.113  0.00  0.00    +0.048 C 
ATOM     10  C   UNL     1      34.252 -22.577 -17.243  0.00  0.00    +0.015 C 
ATOM     11  C   UNL     1      33.798 -21.067 -19.121  0.00  0.00    +0.015 C 
ATOM     12  C   UNL     1      36.079 -21.474 -18.390  0.00  0.00    +0.000 C 
ATOM     13  C   UNL     1      35.634 -22.340 -17.384  0.00  0.00    +0.001 C 
ATOM     14  C   UNL     1      33.468 -23.372 -16.361  0.00  0.00    +0.017 C 
ATOM     15  C   UNL     1      32.147 -23.201 -16.706  0.00  0.00    +0.062 C 
ATOM     16  H   UNL     1      31.271 -22.037 -18.210  0.00  0.00    +0.152 HD
ENDBRANCH   1   8
BRANCH   2  17
ATOM     17  C   UNL     1      34.351 -18.176 -23.343  0.00  0.00    +0.114 C 
BRANCH  17  18
ATOM     18  N   UNL     1      34.888 -17.050 -24.063  0.00  0.00    -0.327 N 
ATOM     19  H   UNL     1      35.725 -17.176 -24.565  0.00  0.00    +0.147 HD
BRANCH  18  21
ATOM     20  N   UNL     1      33.759 -13.689 -22.992  0.00  0.00    -0.228 NA
ATOM     21  C   UNL     1      34.293 -15.796 -24.089  0.00  0.00    +0.077 C 
ATOM     22  C   UNL     1      34.324 -14.917 -23.005  0.00  0.00    +0.139 C 
ATOM     23  C   UNL     1      33.623 -15.350 -25.236  0.00  0.00    +0.019 C 
ATOM     24  C   UNL     1      33.028 -14.094 -25.261  0.00  0.00    +0.022 C 
ATOM     25  C   UNL     1      33.124 -13.308 -24.123  0.00  0.00    +0.100 C 
ATOM     26  N   UNL     1      34.996 -15.346 -21.832  0.00  0.00    -0.342 N 
ATOM     27  H   UNL     1      35.040 -14.754 -21.046  0.00  0.00    +0.144 HD
ATOM     28  H   UNL     1      35.420 -16.233 -21.803  0.00  0.00    +0.144 HD
ENDBRANCH  18  21
ENDBRANCH  17  18
ENDBRANCH   2  17
TORSDOF 4
ENDMDL
MODEL 8
REMARK VINA RESULT:     -11.3      3.431      9.389
REMARK  Name = 11507920
REMARK  4 active torsions:
REMARK  status: ('A' for Active; 'I' for Inactive)
REMARK    1  A    between atoms: C_1  and  C_8
REMARK    2  A    between atoms: C_2  and  C_17
REMARK    3  A    between atoms: C_17  and  N_18
REMARK    4  A    between atoms: N_18  and  C_21
REMARK                            x       y       z     vdW  Elec       q    Type
REMARK                         _______ _______ _______ _____ _____    ______ ____
ROOT
ATOM      1  C   UNL     1      34.745 -20.251 -19.973  0.00  0.00    -0.000 C 
ATOM      2  C   UNL     1      35.754 -21.598 -18.240  0.00  0.00    -0.003 C 
ATOM      3  C   UNL     1      35.857 -20.598 -19.207  0.00  0.00    -0.003 C 
ATOM      4  C   UNL     1      33.529 -20.903 -19.774  0.00  0.00    -0.000 C 
ATOM      5  C   UNL     1      34.537 -22.252 -18.041  0.00  0.00    -0.003 C 
ATOM      6  C   UNL     1      33.425 -21.905 -18.809  0.00  0.00    -0.000 C 
ENDROOT
BRANCH   1   8
ATOM      7  N   UNL     1      33.845 -18.252 -24.429  0.00  0.00    -0.312 N 
ATOM      8  C   UNL     1      34.853 -19.213 -20.977  0.00  0.00    +0.001 C 
ATOM      9  C   UNL     1      34.350 -18.358 -23.154  0.00  0.00    +0.048 C 
ATOM     10  C   UNL     1      35.078 -17.192 -22.902  0.00  0.00    +0.015 C 
ATOM     11  C   UNL     1      34.221 -19.384 -22.211  0.00  0.00    +0.015 C 
ATOM     12  C   UNL     1      35.587 -18.061 -20.699  0.00  0.00    +0.000 C 
ATOM     13  C   UNL     1      35.709 -17.042 -21.651  0.00  0.00    +0.001 C 
ATOM     14  C   UNL     1      34.991 -16.386 -24.071  0.00  0.00    +0.017 C 
ATOM     15  C   UNL     1      34.227 -17.065 -24.992  0.00  0.00    +0.062 C 
ATOM     16  H   UNL     1      33.289 -18.933 -24.873  0.00  0.00    +0.152 HD
ENDBRANCH   1   8
BRANCH   2  17
ATOM     17  C   UNL     1      36.942 -21.971 -17.420  0.00  0.00    +0.114 C 
BRANCH  17  18
ATOM     18  N   UNL     1      36.693 -21.844 -16.007  0.00  0.00    -0.327 N 
ATOM     19  H   UNL     1      36.422 -20.963 -15.661  0.00  0.00    +0.147 HD
BRANCH  18  21
ATOM     20  N   UNL     1      35.840 -24.329 -13.396  0.00  0.00    -0.228 NA
ATOM     21  C   UNL     1      36.813 -22.893 -15.105  0.00  0.00    +0.077 C 
ATOM     22  C   UNL     1      35.764 -23.313 -14.285  0.00  0.00    +0.139 C 
ATOM     23  C   UNL     1      38.022 -23.589 -14.981  0.00  0.00    +0.019 C 
ATOM     24  C   UNL     1      38.139 -24.640 -14.077  0.00  0.00    +0.022 C 
ATOM     25  C   UNL     1      37.029 -24.968 -13.315  0.00  0.00    +0.100 C 
ATOM     26  N   UNL     1      34.530 -22.622 -14.391  0.00  0.00    -0.342 N 
ATOM     27  H   UNL     1      33.767 -22.890 -13.830  0.00  0.00    +0.144 HD
ATOM     28  H   UNL     1      34.436 -21.877 -15.027  0.00  0.00    +0.144 HD
ENDBRANCH  18  21
ENDBRANCH  17  18
ENDBRANCH   2  17
TORSDOF 4
ENDMDL
MODEL 9
REMARK VINA RESULT:     -11.2      4.284     10.435
REMARK  Name = 11507920
REMARK  4 active torsions:
REMARK  status: ('A' for Active; 'I' for Inactive)
REMARK    1  A    between atoms: C_1  and  C_8
REMARK    2  A    between atoms: C_2  and  C_17
REMARK    3  A    between atoms: C_17  and  N_18
REMARK    4  A    between atoms: N_18  and  C_21
REMARK                            x       y       z     vdW  Elec       q    Type
REMARK                         _______ _______ _______ _____ _____    ______ ____
ROOT
ATOM      1  C   UNL     1      35.387 -21.468 -18.342  0.00  0.00    -0.000 C 
ATOM      2  C   UNL     1      36.226 -22.516 -16.335  0.00  0.00    -0.003 C 
ATOM      3  C   UNL     1      36.413 -21.656 -17.417  0.00  0.00    -0.003 C 
ATOM      4  C   UNL     1      34.175 -22.140 -18.188  0.00  0.00    -0.000 C 
ATOM      5  C   UNL     1      35.014 -23.190 -16.180  0.00  0.00    -0.003 C 
ATOM      6  C   UNL     1      33.988 -23.002 -17.108  0.00  0.00    -0.000 C 
ENDROOT
BRANCH   1   8
ATOM      7  N   UNL     1      33.917 -19.079 -22.441  0.00  0.00    -0.312 N 
ATOM      8  C   UNL     1      35.581 -20.575 -19.466  0.00  0.00    +0.001 C 
ATOM      9  C   UNL     1      34.756 -19.482 -21.427  0.00  0.00    +0.048 C 
ATOM     10  C   UNL     1      35.982 -18.845 -21.631  0.00  0.00    +0.015 C 
ATOM     11  C   UNL     1      34.526 -20.351 -20.355  0.00  0.00    +0.015 C 
ATOM     12  C   UNL     1      36.816 -19.954 -19.645  0.00  0.00    +0.000 C 
ATOM     13  C   UNL     1      37.032 -19.087 -20.722  0.00  0.00    +0.001 C 
ATOM     14  C   UNL     1      35.848 -18.048 -22.802  0.00  0.00    +0.017 C 
ATOM     15  C   UNL     1      34.568 -18.213 -23.277  0.00  0.00    +0.062 C 
ATOM     16  H   UNL     1      32.983 -19.372 -22.550  0.00  0.00    +0.152 HD
ENDBRANCH   1   8
BRANCH   2  17
ATOM     17  C   UNL     1      37.322 -22.719 -15.344  0.00  0.00    +0.114 C 
BRANCH  17  18
ATOM     18  N   UNL     1      37.288 -24.032 -14.752  0.00  0.00    -0.327 N 
ATOM     19  H   UNL     1      37.570 -24.797 -15.303  0.00  0.00    +0.147 HD
BRANCH  18  21
ATOM     20  N   UNL     1      36.754 -25.764 -11.522  0.00  0.00    -0.228 NA
ATOM     21  C   UNL     1      36.880 -24.280 -13.448  0.00  0.00    +0.077 C 
ATOM     22  C   UNL     1      37.134 -25.485 -12.789  0.00  0.00    +0.139 C 
ATOM     23  C   UNL     1      36.181 -23.306 -12.724  0.00  0.00    +0.019 C 
ATOM     24  C   UNL     1      35.774 -23.556 -11.418  0.00  0.00    +0.022 C 
ATOM     25  C   UNL     1      36.082 -24.790 -10.867  0.00  0.00    +0.100 C 
ATOM     26  N   UNL     1      37.838 -26.487 -13.502  0.00  0.00    -0.342 N 
ATOM     27  H   UNL     1      38.037 -27.350 -13.071  0.00  0.00    +0.144 HD
ATOM     28  H   UNL     1      38.131 -26.321 -14.427  0.00  0.00    +0.144 HD
ENDBRANCH  18  21
ENDBRANCH  17  18
ENDBRANCH   2  17
TORSDOF 4
ENDMDL
