MODEL 1
REMARK VINA RESULT:     -12.2      0.000      0.000
REMARK  Name = 5326868
REMARK  6 active torsions:
REMARK  status: ('A' for Active; 'I' for Inactive)
REMARK    1  A    between atoms: C_2  and  C_28
REMARK    2  A    between atoms: C_7  and  N_12
REMARK    3  A    between atoms: C_13  and  C_18
REMARK    4  A    between atoms: C_16  and  N_23
REMARK    5  A    between atoms: C_28  and  C_29
REMARK    6  A    between atoms: C_29  and  C_31
REMARK                            x       y       z     vdW  Elec       q    Type
REMARK                         _______ _______ _______ _____ _____    ______ ____
ROOT
ATOM      1  N   UNL     1      35.224 -16.484 -23.862  0.00  0.00    -0.312 N 
ATOM      2  C   UNL     1      34.970 -15.595 -21.844  0.00  0.00    -0.006 C 
ATOM      3  C   UNL     1      34.957 -17.012 -21.711  0.00  0.00    +0.012 C 
ATOM      4  C   UNL     1      35.117 -17.545 -22.992  0.00  0.00    +0.048 C 
ATOM      5  C   UNL     1      35.136 -15.301 -23.178  0.00  0.00    +0.058 C 
ATOM      6  C   UNL     1      34.821 -17.895 -20.621  0.00  0.00    +0.016 C 
ATOM      7  C   UNL     1      34.853 -19.275 -20.852  0.00  0.00    +0.051 C 
ATOM      8  C   UNL     1      35.150 -18.923 -23.238  0.00  0.00    +0.016 C 
ATOM      9  C   UNL     1      35.015 -19.779 -22.141  0.00  0.00    +0.016 C 
ATOM     10  H   UNL     1      35.345 -16.564 -24.835  0.00  0.00    +0.152 HD
ENDROOT
BRANCH   7  12
ATOM     11  O   UNL     1      32.512 -20.942 -19.995  0.00  0.00    -0.270 OA
ATOM     12  N   UNL     1      34.719 -20.156 -19.778  0.00  0.00    -0.280 N 
ATOM     13  C   UNL     1      33.596 -20.914 -19.420  0.00  0.00    +0.250 C 
ATOM     14  H   UNL     1      35.509 -20.257 -19.200  0.00  0.00    +0.155 HD
BRANCH  13  18
ATOM     15  F   UNL     1      36.393 -23.030 -16.091  0.00  0.00    -0.204 F 
ATOM     16  C   UNL     1      32.770 -23.015 -16.430  0.00  0.00    +0.050 C 
ATOM     17  C   UNL     1      32.623 -22.236 -17.578  0.00  0.00    +0.019 C 
ATOM     18  C   UNL     1      33.752 -21.745 -18.198  0.00  0.00    +0.057 C 
ATOM     19  C   UNL     1      34.044 -23.283 -15.928  0.00  0.00    +0.044 C 
ATOM     20  C   UNL     1      35.023 -21.995 -17.721  0.00  0.00    +0.034 C 
ATOM     21  C   UNL     1      35.171 -22.773 -16.574  0.00  0.00    +0.142 C 
BRANCH  16  23
ATOM     22  O   UNL     1      29.410 -24.355 -14.285  0.00  0.00    -0.350 OA
ATOM     23  N   UNL     1      31.641 -23.526 -15.781  0.00  0.00    -0.303 N 
ATOM     24  C   UNL     1      30.326 -22.921 -16.016  0.00  0.00    +0.123 C 
ATOM     25  C   UNL     1      31.820 -24.138 -14.457  0.00  0.00    +0.123 C 
ATOM     26  C   UNL     1      29.229 -23.906 -15.628  0.00  0.00    +0.164 C 
ATOM     27  C   UNL     1      30.645 -25.061 -14.154  0.00  0.00    +0.164 C 
ENDBRANCH  16  23
ENDBRANCH  13  18
ENDBRANCH   7  12
BRANCH   2  28
ATOM     28  C   UNL     1      34.832 -14.609 -20.753  0.00  0.00    +0.032 C 
BRANCH  28  29
ATOM     29  C   UNL     1      33.376 -14.333 -20.319  0.00  0.00    +0.031 C 
BRANCH  29  31
ATOM     30  N   UNL     1      31.918 -10.519 -21.623  0.00  0.00    -0.242 NA
ATOM     31  C   UNL     1      32.862 -12.991 -20.778  0.00  0.00    -0.019 C 
ATOM     32  C   UNL     1      32.053 -12.250 -19.939  0.00  0.00    +0.016 C 
ATOM     33  C   UNL     1      33.208 -12.523 -22.031  0.00  0.00    +0.016 C 
ATOM     34  C   UNL     1      31.608 -11.024 -20.407  0.00  0.00    +0.099 C 
ATOM     35  C   UNL     1      32.712 -11.284 -22.405  0.00  0.00    +0.099 C 
ENDBRANCH  29  31
ENDBRANCH  28  29
ENDBRANCH   2  28
TORSDOF 6
ENDMDL
MODEL 2
REMARK VINA RESULT:     -12.0      3.342     10.270
REMARK  Name = 5326868
REMARK  6 active torsions:
REMARK  status: ('A' for Active; 'I' for Inactive)
REMARK    1  A    between atoms: C_2  and  C_28
REMARK    2  A    between atoms: C_7  and  N_12
REMARK    3  A    between atoms: C_13  and  C_18
REMARK    4  A    between atoms: C_16  and  N_23
REMARK    5  A    between atoms: C_28  and  C_29
REMARK    6  A    between atoms: C_29  and  C_31
REMARK                            x       y       z     vdW  Elec       q    Type
REMARK                         _______ _______ _______ _____ _____    ______ ____
ROOT
ATOM      1  N   UNL     1      35.987 -23.071 -15.376  0.00  0.00    -0.312 N 
ATOM      2  C   UNL     1      33.913 -23.182 -16.162  0.00  0.00    -0.006 C 
ATOM      3  C   UNL     1      34.695 -22.419 -17.074  0.00  0.00    +0.012 C 
ATOM      4  C   UNL     1      35.991 -22.365 -16.557  0.00  0.00    +0.048 C 
ATOM      5  C   UNL     1      34.735 -23.569 -15.128  0.00  0.00    +0.058 C 
ATOM      6  C   UNL     1      34.422 -21.766 -18.293  0.00  0.00    +0.016 C 
ATOM      7  C   UNL     1      35.455 -21.087 -18.949  0.00  0.00    +0.051 C 
ATOM      8  C   UNL     1      37.033 -21.688 -17.202  0.00  0.00    +0.016 C 
ATOM      9  C   UNL     1      36.740 -21.049 -18.411  0.00  0.00    +0.016 C 
ATOM     10  H   UNL     1      36.769 -23.200 -14.794  0.00  0.00    +0.152 HD
ENDROOT
BRANCH   7  12
ATOM     11  O   UNL     1      36.439 -18.450 -19.982  0.00  0.00    -0.270 OA
ATOM     12  N   UNL     1      35.193 -20.437 -20.157  0.00  0.00    -0.280 N 
ATOM     13  C   UNL     1      35.682 -19.198 -20.592  0.00  0.00    +0.250 C 
ATOM     14  H   UNL     1      34.592 -20.906 -20.778  0.00  0.00    +0.155 HD
BRANCH  13  18
ATOM     15  F   UNL     1      34.379 -20.184 -25.143  0.00  0.00    -0.204 F 
ATOM     16  C   UNL     1      34.481 -17.003 -23.381  0.00  0.00    +0.050 C 
ATOM     17  C   UNL     1      34.938 -17.417 -22.129  0.00  0.00    +0.019 C 
ATOM     18  C   UNL     1      35.197 -18.756 -21.926  0.00  0.00    +0.057 C 
ATOM     19  C   UNL     1      34.293 -17.937 -24.399  0.00  0.00    +0.044 C 
ATOM     20  C   UNL     1      35.018 -19.700 -22.915  0.00  0.00    +0.034 C 
ATOM     21  C   UNL     1      34.561 -19.287 -24.166  0.00  0.00    +0.142 C 
BRANCH  16  23
ATOM     22  O   UNL     1      33.930 -12.909 -24.168  0.00  0.00    -0.350 OA
ATOM     23  N   UNL     1      34.211 -15.650 -23.615  0.00  0.00    -0.303 N 
ATOM     24  C   UNL     1      33.834 -15.201 -24.960  0.00  0.00    +0.123 C 
ATOM     25  C   UNL     1      34.910 -14.651 -22.795  0.00  0.00    +0.123 C 
ATOM     26  C   UNL     1      33.126 -13.854 -24.873  0.00  0.00    +0.164 C 
ATOM     27  C   UNL     1      34.142 -13.335 -22.822  0.00  0.00    +0.164 C 
ENDBRANCH  16  23
ENDBRANCH  13  18
ENDBRANCH   7  12
BRANCH   2  28
ATOM     28  C   UNL     1      32.478 -23.505 -16.291  0.00  0.00    +0.032 C 
BRANCH  28  29
ATOM     29  C   UNL     1      31.673 -23.386 -14.978  0.00  0.00    +0.031 C 
BRANCH  29  31
ATOM     30  N   UNL     1      27.437 -23.205 -15.601  0.00  0.00    -0.242 NA
ATOM     31  C   UNL     1      30.182 -23.322 -15.198  0.00  0.00    -0.019 C 
ATOM     32  C   UNL     1      29.564 -24.298 -15.954  0.00  0.00    +0.016 C 
ATOM     33  C   UNL     1      29.456 -22.288 -14.639  0.00  0.00    +0.016 C 
ATOM     34  C   UNL     1      28.193 -24.196 -16.126  0.00  0.00    +0.099 C 
ATOM     35  C   UNL     1      28.089 -22.274 -14.870  0.00  0.00    +0.099 C 
ENDBRANCH  29  31
ENDBRANCH  28  29
ENDBRANCH   2  28
TORSDOF 6
ENDMDL
MODEL 3
REMARK VINA RESULT:     -12.0      2.456      3.434
REMARK  Name = 5326868
REMARK  6 active torsions:
REMARK  status: ('A' for Active; 'I' for Inactive)
REMARK    1  A    between atoms: C_2  and  C_28
REMARK    2  A    between atoms: C_7  and  N_12
REMARK    3  A    between atoms: C_13  and  C_18
REMARK    4  A    between atoms: C_16  and  N_23
REMARK    5  A    between atoms: C_28  and  C_29
REMARK    6  A    between atoms: C_29  and  C_31
REMARK                            x       y       z     vdW  Elec       q    Type
REMARK                         _______ _______ _______ _____ _____    ______ ____
ROOT
ATOM      1  N   UNL     1      35.311 -16.432 -23.865  0.00  0.00    -0.312 N 
ATOM      2  C   UNL     1      34.970 -15.529 -21.866  0.00  0.00    -0.006 C 
ATOM      3  C   UNL     1      34.944 -16.945 -21.725  0.00  0.00    +0.012 C 
ATOM      4  C   UNL     1      35.159 -17.487 -22.994  0.00  0.00    +0.048 C 
ATOM      5  C   UNL     1      35.198 -15.245 -23.193  0.00  0.00    +0.058 C 
ATOM      6  C   UNL     1      34.754 -17.819 -20.637  0.00  0.00    +0.016 C 
ATOM      7  C   UNL     1      34.789 -19.201 -20.857  0.00  0.00    +0.051 C 
ATOM      8  C   UNL     1      35.197 -18.866 -23.229  0.00  0.00    +0.016 C 
ATOM      9  C   UNL     1      35.008 -19.715 -22.134  0.00  0.00    +0.016 C 
ATOM     10  H   UNL     1      35.477 -16.519 -24.831  0.00  0.00    +0.152 HD
ENDROOT
BRANCH   7  12
ATOM     11  O   UNL     1      36.710 -21.087 -19.538  0.00  0.00    -0.270 OA
ATOM     12  N   UNL     1      34.602 -20.074 -19.783  0.00  0.00    -0.280 N 
ATOM     13  C   UNL     1      35.539 -20.939 -19.204  0.00  0.00    +0.250 C 
ATOM     14  H   UNL     1      33.702 -20.084 -19.386  0.00  0.00    +0.155 HD
BRANCH  13  18
ATOM     15  F   UNL     1      31.939 -23.317 -17.020  0.00  0.00    -0.204 F 
ATOM     16  C   UNL     1      35.417 -22.923 -16.027  0.00  0.00    +0.050 C 
ATOM     17  C   UNL     1      35.897 -22.140 -17.077  0.00  0.00    +0.019 C 
ATOM     18  C   UNL     1      35.028 -21.772 -18.083  0.00  0.00    +0.057 C 
ATOM     19  C   UNL     1      34.080 -23.320 -16.008  0.00  0.00    +0.044 C 
ATOM     20  C   UNL     1      33.703 -22.152 -18.088  0.00  0.00    +0.034 C 
ATOM     21  C   UNL     1      33.222 -22.934 -17.039  0.00  0.00    +0.142 C 
BRANCH  16  23
ATOM     22  O   UNL     1      38.093 -23.827 -12.912  0.00  0.00    -0.350 OA
ATOM     23  N   UNL     1      36.277 -23.311 -14.994  0.00  0.00    -0.303 N 
ATOM     24  C   UNL     1      35.875 -23.117 -13.596  0.00  0.00    +0.123 C 
ATOM     25  C   UNL     1      37.724 -23.262 -15.242  0.00  0.00    +0.123 C 
ATOM     26  C   UNL     1      36.697 -24.030 -12.693  0.00  0.00    +0.164 C 
ATOM     27  C   UNL     1      38.447 -24.169 -14.252  0.00  0.00    +0.164 C 
ENDBRANCH  16  23
ENDBRANCH  13  18
ENDBRANCH   7  12
BRANCH   2  28
ATOM     28  C   UNL     1      34.787 -14.535 -20.790  0.00  0.00    +0.032 C 
BRANCH  28  29
ATOM     29  C   UNL     1      33.314 -14.257 -20.417  0.00  0.00    +0.031 C 
BRANCH  29  31
ATOM     30  N   UNL     1      31.951 -10.393 -21.673  0.00  0.00    -0.242 NA
ATOM     31  C   UNL     1      32.835 -12.897 -20.859  0.00  0.00    -0.019 C 
ATOM     32  C   UNL     1      33.148 -12.444 -22.125  0.00  0.00    +0.016 C 
ATOM     33  C   UNL     1      32.089 -12.124 -19.990  0.00  0.00    +0.016 C 
ATOM     34  C   UNL     1      32.684 -11.189 -22.484  0.00  0.00    +0.099 C 
ATOM     35  C   UNL     1      31.672 -10.882 -20.444  0.00  0.00    +0.099 C 
ENDBRANCH  29  31
ENDBRANCH  28  29
ENDBRANCH   2  28
TORSDOF 6
ENDMDL
MODEL 4
REMARK VINA RESULT:     -11.8      5.049     12.270
REMARK  Name = 5326868
REMARK  6 active torsions:
REMARK  status: ('A' for Active; 'I' for Inactive)
REMARK    1  A    between atoms: C_2  and  C_28
REMARK    2  A    between atoms: C_7  and  N_12
REMARK    3  A    between atoms: C_13  and  C_18
REMARK    4  A    between atoms: C_16  and  N_23
REMARK    5  A    between atoms: C_28  and  C_29
REMARK    6  A    between atoms: C_29  and  C_31
REMARK                            x       y       z     vdW  Elec       q    Type
REMARK                         _______ _______ _______ _____ _____    ______ ____
ROOT
ATOM      1  N   UNL     1      34.403 -16.909 -24.951  0.00  0.00    -0.312 N 
ATOM      2  C   UNL     1      34.924 -16.672 -22.806  0.00  0.00    -0.006 C 
ATOM      3  C   UNL     1      34.352 -15.451 -23.263  0.00  0.00    +0.012 C 
ATOM      4  C   UNL     1      34.034 -15.627 -24.611  0.00  0.00    +0.048 C 
ATOM      5  C   UNL     1      34.942 -17.548 -23.867  0.00  0.00    +0.058 C 
ATOM      6  C   UNL     1      34.074 -14.210 -22.656  0.00  0.00    +0.016 C 
ATOM      7  C   UNL     1      33.489 -13.193 -23.419  0.00  0.00    +0.051 C 
ATOM      8  C   UNL     1      33.449 -14.619 -25.387  0.00  0.00    +0.016 C 
ATOM      9  C   UNL     1      33.181 -13.397 -24.763  0.00  0.00    +0.016 C 
ATOM     10  H   UNL     1      34.294 -17.308 -25.844  0.00  0.00    +0.152 HD
ENDROOT
BRANCH   7  12
ATOM     11  O   UNL     1      31.534 -12.479 -21.261  0.00  0.00    -0.270 OA
ATOM     12  N   UNL     1      33.211 -11.960 -22.826  0.00  0.00    -0.280 N 
ATOM     13  C   UNL     1      32.282 -11.680 -21.816  0.00  0.00    +0.250 C 
ATOM     14  H   UNL     1      33.730 -11.194 -23.159  0.00  0.00    +0.155 HD
BRANCH  13  18
ATOM     15  F   UNL     1      31.496  -8.297 -18.451  0.00  0.00    -0.204 F 
ATOM     16  C   UNL     1      32.355  -7.937 -21.968  0.00  0.00    +0.050 C 
ATOM     17  C   UNL     1      32.435  -9.276 -22.352  0.00  0.00    +0.019 C 
ATOM     18  C   UNL     1      32.195 -10.253 -21.409  0.00  0.00    +0.057 C 
ATOM     19  C   UNL     1      32.037  -7.607 -20.651  0.00  0.00    +0.044 C 
ATOM     20  C   UNL     1      31.880  -9.953 -20.100  0.00  0.00    +0.034 C 
ATOM     21  C   UNL     1      31.799  -8.615 -19.716  0.00  0.00    +0.142 C 
BRANCH  16  23
ATOM     22  O   UNL     1      32.987  -4.714 -24.594  0.00  0.00    -0.350 OA
ATOM     23  N   UNL     1      32.594  -6.926 -22.905  0.00  0.00    -0.303 N 
ATOM     24  C   UNL     1      33.863  -6.189 -22.878  0.00  0.00    +0.123 C 
ATOM     25  C   UNL     1      31.444  -6.171 -23.419  0.00  0.00    +0.123 C 
ATOM     26  C   UNL     1      34.102  -5.526 -24.230  0.00  0.00    +0.164 C 
ATOM     27  C   UNL     1      31.811  -5.511 -24.744  0.00  0.00    +0.164 C 
ENDBRANCH  16  23
ENDBRANCH  13  18
ENDBRANCH   7  12
BRANCH   2  28
ATOM     28  C   UNL     1      35.414 -16.956 -21.442  0.00  0.00    +0.032 C 
BRANCH  28  29
ATOM     29  C   UNL     1      36.294 -18.221 -21.329  0.00  0.00    +0.031 C 
BRANCH  29  31
ATOM     30  N   UNL     1      34.422 -21.393 -19.137  0.00  0.00    -0.242 NA
ATOM     31  C   UNL     1      35.635 -19.337 -20.558  0.00  0.00    -0.019 C 
ATOM     32  C   UNL     1      36.415 -20.203 -19.816  0.00  0.00    +0.016 C 
ATOM     33  C   UNL     1      34.262 -19.478 -20.605  0.00  0.00    +0.016 C 
ATOM     34  C   UNL     1      35.762 -21.211 -19.125  0.00  0.00    +0.099 C 
ATOM     35  C   UNL     1      33.705 -20.519 -19.879  0.00  0.00    +0.099 C 
ENDBRANCH  29  31
ENDBRANCH  28  29
ENDBRANCH   2  28
TORSDOF 6
ENDMDL
MODEL 5
REMARK VINA RESULT:     -11.6      1.057      1.557
REMARK  Name = 5326868
REMARK  6 active torsions:
REMARK  status: ('A' for Active; 'I' for Inactive)
REMARK    1  A    between atoms: C_2  and  C_28
REMARK    2  A    between atoms: C_7  and  N_12
REMARK    3  A    between atoms: C_13  and  C_18
REMARK    4  A    between atoms: C_16  and  N_23
REMARK    5  A    between atoms: C_28  and  C_29
REMARK    6  A    between atoms: C_29  and  C_31
REMARK                            x       y       z     vdW  Elec       q    Type
REMARK                         _______ _______ _______ _____ _____    ______ ____
ROOT
ATOM      1  N   UNL     1      34.777 -16.646 -24.165  0.00  0.00    -0.312 N 
ATOM      2  C   UNL     1      34.912 -15.595 -22.214  0.00  0.00    -0.006 C 
ATOM      3  C   UNL     1      35.035 -16.993 -21.977  0.00  0.00    +0.012 C 
ATOM      4  C   UNL     1      34.946 -17.629 -23.217  0.00  0.00    +0.048 C 
ATOM      5  C   UNL     1      34.754 -15.414 -23.569  0.00  0.00    +0.058 C 
ATOM      6  C   UNL     1      35.212 -17.780 -20.821  0.00  0.00    +0.016 C 
ATOM      7  C   UNL     1      35.296 -19.171 -20.950  0.00  0.00    +0.051 C 
ATOM      8  C   UNL     1      35.028 -19.019 -23.360  0.00  0.00    +0.016 C 
ATOM      9  C   UNL     1      35.206 -19.780 -22.200  0.00  0.00    +0.016 C 
ATOM     10  H   UNL     1      34.685 -16.806 -25.132  0.00  0.00    +0.152 HD
ENDROOT
BRANCH   7  12
ATOM     11  O   UNL     1      33.622 -21.411 -19.866  0.00  0.00    -0.270 OA
ATOM     12  N   UNL     1      35.472 -19.959 -19.809  0.00  0.00    -0.280 N 
ATOM     13  C   UNL     1      34.654 -20.998 -19.347  0.00  0.00    +0.250 C 
ATOM     14  H   UNL     1      36.266 -19.759 -19.264  0.00  0.00    +0.155 HD
BRANCH  13  18
ATOM     15  F   UNL     1      38.135 -22.174 -16.203  0.00  0.00    -0.204 F 
ATOM     16  C   UNL     1      34.559 -22.832 -16.081  0.00  0.00    +0.050 C 
ATOM     17  C   UNL     1      34.147 -22.236 -17.273  0.00  0.00    +0.019 C 
ATOM     18  C   UNL     1      35.092 -21.634 -18.076  0.00  0.00    +0.057 C 
ATOM     19  C   UNL     1      35.906 -22.810 -15.719  0.00  0.00    +0.044 C 
ATOM     20  C   UNL     1      36.430 -21.599 -17.742  0.00  0.00    +0.034 C 
ATOM     21  C   UNL     1      36.842 -22.194 -16.551  0.00  0.00    +0.142 C 
BRANCH  16  23
ATOM     22  O   UNL     1      31.733 -24.898 -13.751  0.00  0.00    -0.350 OA
ATOM     23  N   UNL     1      33.621 -23.449 -15.246  0.00  0.00    -0.303 N 
ATOM     24  C   UNL     1      34.062 -24.433 -14.252  0.00  0.00    +0.123 C 
ATOM     25  C   UNL     1      32.259 -23.647 -15.762  0.00  0.00    +0.123 C 
ATOM     26  C   UNL     1      32.998 -24.584 -13.170  0.00  0.00    +0.164 C 
ATOM     27  C   UNL     1      31.291 -23.837 -14.599  0.00  0.00    +0.164 C 
ENDBRANCH  16  23
ENDBRANCH  13  18
ENDBRANCH   7  12
BRANCH   2  28
ATOM     28  C   UNL     1      34.945 -14.525 -21.198  0.00  0.00    +0.032 C 
BRANCH  28  29
ATOM     29  C   UNL     1      33.588 -14.247 -20.514  0.00  0.00    +0.031 C 
BRANCH  29  31
ATOM     30  N   UNL     1      31.855 -10.497 -21.656  0.00  0.00    -0.242 NA
ATOM     31  C   UNL     1      32.978 -12.928 -20.917  0.00  0.00    -0.019 C 
ATOM     32  C   UNL     1      32.028 -12.342 -20.102  0.00  0.00    +0.016 C 
ATOM     33  C   UNL     1      33.377 -12.324 -22.093  0.00  0.00    +0.016 C 
ATOM     34  C   UNL     1      31.499 -11.130 -20.515  0.00  0.00    +0.099 C 
ATOM     35  C   UNL     1      32.788 -11.112 -22.417  0.00  0.00    +0.099 C 
ENDBRANCH  29  31
ENDBRANCH  28  29
ENDBRANCH   2  28
TORSDOF 6
ENDMDL
MODEL 6
REMARK VINA RESULT:     -11.6      3.649     10.718
REMARK  Name = 5326868
REMARK  6 active torsions:
REMARK  status: ('A' for Active; 'I' for Inactive)
REMARK    1  A    between atoms: C_2  and  C_28
REMARK    2  A    between atoms: C_7  and  N_12
REMARK    3  A    between atoms: C_13  and  C_18
REMARK    4  A    between atoms: C_16  and  N_23
REMARK    5  A    between atoms: C_28  and  C_29
REMARK    6  A    between atoms: C_29  and  C_31
REMARK                            x       y       z     vdW  Elec       q    Type
REMARK                         _______ _______ _______ _____ _____    ______ ____
ROOT
ATOM      1  N   UNL     1      36.938 -21.343 -19.129  0.00  0.00    -0.312 N 
ATOM      2  C   UNL     1      34.732 -21.097 -19.133  0.00  0.00    -0.006 C 
ATOM      3  C   UNL     1      35.299 -20.050 -19.913  0.00  0.00    +0.012 C 
ATOM      4  C   UNL     1      36.683 -20.227 -19.894  0.00  0.00    +0.048 C 
ATOM      5  C   UNL     1      35.765 -21.876 -18.665  0.00  0.00    +0.058 C 
ATOM      6  C   UNL     1      34.764 -18.963 -20.634  0.00  0.00    +0.016 C 
ATOM      7  C   UNL     1      35.632 -18.099 -21.309  0.00  0.00    +0.051 C 
ATOM      8  C   UNL     1      37.564 -19.370 -20.564  0.00  0.00    +0.016 C 
ATOM      9  C   UNL     1      37.011 -18.300 -21.274  0.00  0.00    +0.016 C 
ATOM     10  H   UNL     1      37.834 -21.706 -18.943  0.00  0.00    +0.152 HD
ENDROOT
BRANCH   7  12
ATOM     11  O   UNL     1      35.019 -15.300 -20.423  0.00  0.00    -0.270 OA
ATOM     12  N   UNL     1      35.110 -17.019 -22.026  0.00  0.00    -0.280 N 
ATOM     13  C   UNL     1      34.842 -15.726 -21.560  0.00  0.00    +0.250 C 
ATOM     14  H   UNL     1      34.906 -17.189 -22.973  0.00  0.00    +0.155 HD
BRANCH  13  18
ATOM     15  F   UNL     1      33.546 -14.703 -26.105  0.00  0.00    -0.204 F 
ATOM     16  C   UNL     1      33.258 -12.693 -23.087  0.00  0.00    +0.050 C 
ATOM     17  C   UNL     1      33.808 -13.563 -22.145  0.00  0.00    +0.019 C 
ATOM     18  C   UNL     1      34.258 -14.797 -22.563  0.00  0.00    +0.057 C 
ATOM     19  C   UNL     1      33.170 -13.078 -24.424  0.00  0.00    +0.044 C 
ATOM     20  C   UNL     1      34.181 -15.203 -23.879  0.00  0.00    +0.034 C 
ATOM     21  C   UNL     1      33.632 -14.334 -24.821  0.00  0.00    +0.142 C 
BRANCH  16  23
ATOM     22  O   UNL     1      32.053  -8.913 -21.692  0.00  0.00    -0.350 OA
ATOM     23  N   UNL     1      32.794 -11.434 -22.690  0.00  0.00    -0.303 N 
ATOM     24  C   UNL     1      33.463 -10.222 -23.172  0.00  0.00    +0.123 C 
ATOM     25  C   UNL     1      32.157 -11.315 -21.371  0.00  0.00    +0.123 C 
ATOM     26  C   UNL     1      32.526  -9.027 -23.034  0.00  0.00    +0.164 C 
ATOM     27  C   UNL     1      31.288 -10.063 -21.330  0.00  0.00    +0.164 C 
ENDBRANCH  16  23
ENDBRANCH  13  18
ENDBRANCH   7  12
BRANCH   2  28
ATOM     28  C   UNL     1      33.296 -21.317 -18.867  0.00  0.00    +0.032 C 
BRANCH  28  29
ATOM     29  C   UNL     1      32.937 -22.756 -18.437  0.00  0.00    +0.031 C 
BRANCH  29  31
ATOM     30  N   UNL     1      32.371 -23.163 -14.208  0.00  0.00    -0.242 NA
ATOM     31  C   UNL     1      32.738 -22.900 -16.948  0.00  0.00    -0.019 C 
ATOM     32  C   UNL     1      33.824 -23.176 -16.141  0.00  0.00    +0.016 C 
ATOM     33  C   UNL     1      31.472 -22.753 -16.414  0.00  0.00    +0.016 C 
ATOM     34  C   UNL     1      33.589 -23.297 -14.781  0.00  0.00    +0.099 C 
ATOM     35  C   UNL     1      31.342 -22.894 -15.042  0.00  0.00    +0.099 C 
ENDBRANCH  29  31
ENDBRANCH  28  29
ENDBRANCH   2  28
TORSDOF 6
ENDMDL
MODEL 7
REMARK VINA RESULT:     -11.1      5.070     11.433
REMARK  Name = 5326868
REMARK  6 active torsions:
REMARK  status: ('A' for Active; 'I' for Inactive)
REMARK    1  A    between atoms: C_2  and  C_28
REMARK    2  A    between atoms: C_7  and  N_12
REMARK    3  A    between atoms: C_13  and  C_18
REMARK    4  A    between atoms: C_16  and  N_23
REMARK    5  A    between atoms: C_28  and  C_29
REMARK    6  A    between atoms: C_29  and  C_31
REMARK                            x       y       z     vdW  Elec       q    Type
REMARK                         _______ _______ _______ _____ _____    ______ ____
ROOT
ATOM      1  N   UNL     1      34.076 -19.403 -24.322  0.00  0.00    -0.312 N 
ATOM      2  C   UNL     1      35.529 -18.555 -22.873  0.00  0.00    -0.006 C 
ATOM      3  C   UNL     1      34.865 -17.476 -23.521  0.00  0.00    +0.012 C 
ATOM      4  C   UNL     1      33.959 -18.035 -24.425  0.00  0.00    +0.048 C 
ATOM      5  C   UNL     1      35.022 -19.727 -23.387  0.00  0.00    +0.058 C 
ATOM      6  C   UNL     1      34.949 -16.072 -23.425  0.00  0.00    +0.016 C 
ATOM      7  C   UNL     1      34.125 -15.282 -24.235  0.00  0.00    +0.051 C 
ATOM      8  C   UNL     1      33.129 -17.257 -25.241  0.00  0.00    +0.016 C 
ATOM      9  C   UNL     1      33.229 -15.867 -25.128  0.00  0.00    +0.016 C 
ATOM     10  H   UNL     1      33.555 -20.053 -24.845  0.00  0.00    +0.152 HD
ENDROOT
BRANCH   7  12
ATOM     11  O   UNL     1      32.410 -13.339 -22.728  0.00  0.00    -0.270 OA
ATOM     12  N   UNL     1      34.203 -13.891 -24.146  0.00  0.00    -0.280 N 
ATOM     13  C   UNL     1      33.371 -13.026 -23.424  0.00  0.00    +0.250 C 
ATOM     14  H   UNL     1      34.931 -13.466 -24.654  0.00  0.00    +0.155 HD
BRANCH  13  18
ATOM     15  F   UNL     1      35.748  -9.410 -25.582  0.00  0.00    -0.204 F 
ATOM     16  C   UNL     1      33.386  -9.329 -22.816  0.00  0.00    +0.050 C 
ATOM     17  C   UNL     1      33.085 -10.686 -22.695  0.00  0.00    +0.019 C 
ATOM     18  C   UNL     1      33.692 -11.580 -23.551  0.00  0.00    +0.057 C 
ATOM     19  C   UNL     1      34.285  -8.898 -23.791  0.00  0.00    +0.044 C 
ATOM     20  C   UNL     1      34.584 -11.180 -24.524  0.00  0.00    +0.034 C 
ATOM     21  C   UNL     1      34.885  -9.824 -24.646  0.00  0.00    +0.142 C 
BRANCH  16  23
ATOM     22  O   UNL     1      31.340  -6.575 -20.384  0.00  0.00    -0.350 OA
ATOM     23  N   UNL     1      32.784  -8.400 -21.961  0.00  0.00    -0.303 N 
ATOM     24  C   UNL     1      32.049  -8.863 -20.778  0.00  0.00    +0.123 C 
ATOM     25  C   UNL     1      32.310  -7.133 -22.536  0.00  0.00    +0.123 C 
ATOM     26  C   UNL     1      31.925  -7.724 -19.771  0.00  0.00    +0.164 C 
ATOM     27  C   UNL     1      32.174  -6.087 -21.435  0.00  0.00    +0.164 C 
ENDBRANCH  16  23
ENDBRANCH  13  18
ENDBRANCH   7  12
BRANCH   2  28
ATOM     28  C   UNL     1      36.574 -18.448 -21.836  0.00  0.00    +0.032 C 
BRANCH  28  29
ATOM     29  C   UNL     1      36.037 -18.402 -20.388  0.00  0.00    +0.031 C 
BRANCH  29  31
ATOM     30  N   UNL     1      34.239 -22.085 -19.134  0.00  0.00    -0.242 NA
ATOM     31  C   UNL     1      35.405 -19.698 -19.946  0.00  0.00    -0.019 C 
ATOM     32  C   UNL     1      34.034 -19.847 -20.027  0.00  0.00    +0.016 C 
ATOM     33  C   UNL     1      36.205 -20.717 -19.467  0.00  0.00    +0.016 C 
ATOM     34  C   UNL     1      33.501 -21.056 -19.609  0.00  0.00    +0.099 C 
ATOM     35  C   UNL     1      35.575 -21.888 -19.075  0.00  0.00    +0.099 C 
ENDBRANCH  29  31
ENDBRANCH  28  29
ENDBRANCH   2  28
TORSDOF 6
ENDMDL
MODEL 8
REMARK VINA RESULT:     -10.6      4.486      8.681
REMARK  Name = 5326868
REMARK  6 active torsions:
REMARK  status: ('A' for Active; 'I' for Inactive)
REMARK    1  A    between atoms: C_2  and  C_28
REMARK    2  A    between atoms: C_7  and  N_12
REMARK    3  A    between atoms: C_13  and  C_18
REMARK    4  A    between atoms: C_16  and  N_23
REMARK    5  A    between atoms: C_28  and  C_29
REMARK    6  A    between atoms: C_29  and  C_31
REMARK                            x       y       z     vdW  Elec       q    Type
REMARK                         _______ _______ _______ _____ _____    ______ ____
ROOT
ATOM      1  N   UNL     1      31.243  -8.117 -20.496  0.00  0.00    -0.312 N 
ATOM      2  C   UNL     1      32.684  -8.106 -22.185  0.00  0.00    -0.006 C 
ATOM      3  C   UNL     1      32.511  -9.452 -21.756  0.00  0.00    +0.012 C 
ATOM      4  C   UNL     1      31.603  -9.430 -20.696  0.00  0.00    +0.048 C 
ATOM      5  C   UNL     1      31.892  -7.309 -21.392  0.00  0.00    +0.058 C 
ATOM      6  C   UNL     1      33.043 -10.690 -22.169  0.00  0.00    +0.016 C 
ATOM      7  C   UNL     1      32.646 -11.858 -21.508  0.00  0.00    +0.051 C 
ATOM      8  C   UNL     1      31.197 -10.590 -20.025  0.00  0.00    +0.016 C 
ATOM      9  C   UNL     1      31.737 -11.807 -20.453  0.00  0.00    +0.016 C 
ATOM     10  H   UNL     1      30.612  -7.804 -19.810  0.00  0.00    +0.152 HD
ENDROOT
BRANCH   7  12
ATOM     11  O   UNL     1      34.945 -13.438 -20.409  0.00  0.00    -0.270 OA
ATOM     12  N   UNL     1      33.169 -13.089 -21.911  0.00  0.00    -0.280 N 
ATOM     13  C   UNL     1      34.251 -13.786 -21.359  0.00  0.00    +0.250 C 
ATOM     14  H   UNL     1      32.723 -13.518 -22.676  0.00  0.00    +0.155 HD
BRANCH  13  18
ATOM     15  F   UNL     1      34.940 -16.389 -25.376  0.00  0.00    -0.204 F 
ATOM     16  C   UNL     1      35.202 -17.373 -21.883  0.00  0.00    +0.050 C 
ATOM     17  C   UNL     1      34.883 -16.170 -21.252  0.00  0.00    +0.019 C 
ATOM     18  C   UNL     1      34.589 -15.069 -22.030  0.00  0.00    +0.057 C 
ATOM     19  C   UNL     1      35.221 -17.446 -23.276  0.00  0.00    +0.044 C 
ATOM     20  C   UNL     1      34.602 -15.115 -23.409  0.00  0.00    +0.034 C 
ATOM     21  C   UNL     1      34.920 -16.317 -24.039  0.00  0.00    +0.142 C 
BRANCH  16  23
ATOM     22  O   UNL     1      36.127 -20.919 -19.822  0.00  0.00    -0.350 OA
ATOM     23  N   UNL     1      35.504 -18.504 -21.119  0.00  0.00    -0.303 N 
ATOM     24  C   UNL     1      36.903 -18.890 -20.904  0.00  0.00    +0.123 C 
ATOM     25  C   UNL     1      34.541 -19.614 -21.113  0.00  0.00    +0.123 C 
ATOM     26  C   UNL     1      37.005 -19.802 -19.686  0.00  0.00    +0.164 C 
ATOM     27  C   UNL     1      34.768 -20.485 -19.882  0.00  0.00    +0.164 C 
ENDBRANCH  16  23
ENDBRANCH  13  18
ENDBRANCH   7  12
BRANCH   2  28
ATOM     28  C   UNL     1      33.555  -7.639 -23.282  0.00  0.00    +0.032 C 
BRANCH  28  29
ATOM     29  C   UNL     1      34.066  -6.190 -23.122  0.00  0.00    +0.031 C 
BRANCH  29  31
ATOM     30  N   UNL     1      33.137  -3.690 -26.478  0.00  0.00    -0.242 NA
ATOM     31  C   UNL     1      33.739  -5.309 -24.303  0.00  0.00    -0.019 C 
ATOM     32  C   UNL     1      34.658  -5.174 -25.325  0.00  0.00    +0.016 C 
ATOM     33  C   UNL     1      32.525  -4.652 -24.345  0.00  0.00    +0.016 C 
ATOM     34  C   UNL     1      34.310  -4.356 -26.387  0.00  0.00    +0.099 C 
ATOM     35  C   UNL     1      32.272  -3.856 -25.452  0.00  0.00    +0.099 C 
ENDBRANCH  29  31
ENDBRANCH  28  29
ENDBRANCH   2  28
TORSDOF 6
ENDMDL
MODEL 9
REMARK VINA RESULT:     -10.6      3.572     11.042
REMARK  Name = 5326868
REMARK  6 active torsions:
REMARK  status: ('A' for Active; 'I' for Inactive)
REMARK    1  A    between atoms: C_2  and  C_28
REMARK    2  A    between atoms: C_7  and  N_12
REMARK    3  A    between atoms: C_13  and  C_18
REMARK    4  A    between atoms: C_16  and  N_23
REMARK    5  A    between atoms: C_28  and  C_29
REMARK    6  A    between atoms: C_29  and  C_31
REMARK                            x       y       z     vdW  Elec       q    Type
REMARK                         _______ _______ _______ _____ _____    ______ ____
ROOT
ATOM      1  N   UNL     1      34.003 -24.043 -14.919  0.00  0.00    -0.312 N 
ATOM      2  C   UNL     1      35.991 -23.154 -15.349  0.00  0.00    -0.006 C 
ATOM      3  C   UNL     1      35.088 -22.740 -16.368  0.00  0.00    +0.012 C 
ATOM      4  C   UNL     1      33.849 -23.312 -16.075  0.00  0.00    +0.048 C 
ATOM      5  C   UNL     1      35.294 -23.954 -14.473  0.00  0.00    +0.058 C 
ATOM      6  C   UNL     1      35.208 -21.933 -17.517  0.00  0.00    +0.016 C 
ATOM      7  C   UNL     1      34.085 -21.726 -18.326  0.00  0.00    +0.051 C 
ATOM      8  C   UNL     1      32.717 -23.115 -16.875  0.00  0.00    +0.016 C 
ATOM      9  C   UNL     1      32.860 -22.309 -18.009  0.00  0.00    +0.016 C 
ATOM     10  H   UNL     1      33.288 -24.555 -14.477  0.00  0.00    +0.152 HD
ENDROOT
BRANCH   7  12
ATOM     11  O   UNL     1      36.402 -20.123 -19.352  0.00  0.00    -0.270 OA
ATOM     12  N   UNL     1      34.195 -20.927 -19.467  0.00  0.00    -0.280 N 
ATOM     13  C   UNL     1      35.308 -20.196 -19.901  0.00  0.00    +0.250 C 
ATOM     14  H   UNL     1      33.393 -20.871 -20.034  0.00  0.00    +0.155 HD
BRANCH  13  18
ATOM     15  F   UNL     1      34.797 -19.981 -24.705  0.00  0.00    -0.204 F 
ATOM     16  C   UNL     1      34.792 -17.310 -22.234  0.00  0.00    +0.050 C 
ATOM     17  C   UNL     1      34.982 -18.043 -21.063  0.00  0.00    +0.019 C 
ATOM     18  C   UNL     1      35.107 -19.413 -21.149  0.00  0.00    +0.057 C 
ATOM     19  C   UNL     1      34.730 -17.964 -23.465  0.00  0.00    +0.044 C 
ATOM     20  C   UNL     1      35.048 -20.085 -22.353  0.00  0.00    +0.034 C 
ATOM     21  C   UNL     1      34.858 -19.353 -23.524  0.00  0.00    +0.142 C 
BRANCH  16  23
ATOM     22  O   UNL     1      34.675 -13.112 -22.014  0.00  0.00    -0.350 OA
ATOM     23  N   UNL     1      34.662 -15.918 -22.176  0.00  0.00    -0.303 N 
ATOM     24  C   UNL     1      34.914 -15.109 -23.373  0.00  0.00    +0.123 C 
ATOM     25  C   UNL     1      34.944 -15.249 -20.898  0.00  0.00    +0.123 C 
ATOM     26  C   UNL     1      34.250 -13.744 -23.221  0.00  0.00    +0.164 C 
ATOM     27  C   UNL     1      34.276 -13.878 -20.877  0.00  0.00    +0.164 C 
ENDBRANCH  16  23
ENDBRANCH  13  18
ENDBRANCH   7  12
BRANCH   2  28
ATOM     28  C   UNL     1      37.420 -22.796 -15.242  0.00  0.00    +0.032 C 
BRANCH  28  29
ATOM     29  C   UNL     1      38.353 -23.977 -14.897  0.00  0.00    +0.031 C 
BRANCH  29  31
ATOM     30  N   UNL     1      37.294 -25.956 -11.246  0.00  0.00    -0.242 NA
ATOM     31  C   UNL     1      37.980 -24.674 -13.612  0.00  0.00    -0.019 C 
ATOM     32  C   UNL     1      37.996 -23.966 -12.426  0.00  0.00    +0.016 C 
ATOM     33  C   UNL     1      37.629 -26.010 -13.640  0.00  0.00    +0.016 C 
ATOM     34  C   UNL     1      37.646 -24.651 -11.274  0.00  0.00    +0.099 C 
ATOM     35  C   UNL     1      37.295 -26.604 -12.433  0.00  0.00    +0.099 C 
ENDBRANCH  29  31
ENDBRANCH  28  29
ENDBRANCH   2  28
TORSDOF 6
ENDMDL
