MODEL 1
REMARK VINA RESULT:     -12.2      0.000      0.000
REMARK  Name = 118598754
REMARK  1 active torsions:
REMARK  status: ('A' for Active; 'I' for Inactive)
REMARK    1  A    between atoms: C_15  and  N_19
REMARK                            x       y       z     vdW  Elec       q    Type
REMARK                         _______ _______ _______ _____ _____    ______ ____
ROOT
ATOM      1  O   UNL     1      31.996 -24.581 -12.580  0.00  0.00    -0.269 OA
ATOM      2  O   UNL     1      36.561 -23.122 -15.911  0.00  0.00    -0.268 OA
ATOM      3  N   UNL     1      34.743 -23.703 -14.587  0.00  0.00    -0.238 N 
ATOM      4  N   UNL     1      34.332 -24.512 -12.476  0.00  0.00    -0.288 N 
ATOM      5  C   UNL     1      35.438 -24.134 -13.348  0.00  0.00    +0.124 C 
ATOM      6  C   UNL     1      36.340 -25.357 -13.606  0.00  0.00    +0.038 C 
ATOM      7  C   UNL     1      36.230 -22.973 -12.715  0.00  0.00    +0.038 C 
ATOM      8  C   UNL     1      37.026 -23.409 -11.483  0.00  0.00    +0.003 C 
ATOM      9  C   UNL     1      37.136 -25.772 -12.368  0.00  0.00    +0.003 C 
ATOM     10  C   UNL     1      37.925 -24.603 -11.787  0.00  0.00    +0.000 C 
ATOM     11  C   UNL     1      33.373 -23.825 -14.430  0.00  0.00    +0.105 C 
ATOM     12  C   UNL     1      33.086 -24.348 -13.068  0.00  0.00    +0.260 C 
ATOM     13  C   UNL     1      35.348 -23.241 -15.749  0.00  0.00    +0.267 C 
ATOM     14  C   UNL     1      32.516 -23.500 -15.409  0.00  0.00    -0.002 C 
ATOM     15  C   UNL     1      34.401 -22.870 -16.861  0.00  0.00    +0.104 C 
ATOM     16  C   UNL     1      33.080 -23.009 -16.655  0.00  0.00    +0.016 C 
ATOM     17  C   UNL     1      31.020 -23.584 -15.369  0.00  0.00    +0.033 C 
ATOM     18  H   UNL     1      34.455 -24.849 -11.559  0.00  0.00    +0.151 HD
ENDROOT
BRANCH  15  19
ATOM     19  N   UNL     1      34.969 -22.413 -18.015  0.00  0.00    -0.298 N 
ATOM     20  N   UNL     1      33.117 -21.399 -19.082  0.00  0.00    -0.233 NA
ATOM     21  N   UNL     1      33.484 -19.673 -20.724  0.00  0.00    -0.234 NA
ATOM     22  C   UNL     1      34.455 -21.487 -18.930  0.00  0.00    +0.113 C 
ATOM     23  C   UNL     1      35.358 -20.714 -19.629  0.00  0.00    +0.121 C 
ATOM     24  C   UNL     1      34.811 -19.815 -20.522  0.00  0.00    +0.107 C 
ATOM     25  C   UNL     1      32.706 -20.484 -19.982  0.00  0.00    +0.252 C 
ATOM     26  H   UNL     1      35.856 -22.781 -18.231  0.00  0.00    +0.153 HD
ATOM     27  N   UNL     1      35.706 -19.004 -21.261  0.00  0.00    -0.346 N 
ATOM     28  H   UNL     1      35.358 -18.349 -21.908  0.00  0.00    +0.143 HD
ATOM     29  H   UNL     1      36.678 -19.094 -21.127  0.00  0.00    +0.143 HD
ENDBRANCH  15  19
TORSDOF 1
ENDMDL
MODEL 2
REMARK VINA RESULT:     -10.1      2.744      6.601
REMARK  Name = 118598754
REMARK  1 active torsions:
REMARK  status: ('A' for Active; 'I' for Inactive)
REMARK    1  A    between atoms: C_15  and  N_19
REMARK                            x       y       z     vdW  Elec       q    Type
REMARK                         _______ _______ _______ _____ _____    ______ ____
ROOT
ATOM      1  O   UNL     1      32.253 -21.584 -18.869  0.00  0.00    -0.269 OA
ATOM      2  O   UNL     1      34.144 -23.985 -13.897  0.00  0.00    -0.268 OA
ATOM      3  N   UNL     1      33.393 -23.030 -15.877  0.00  0.00    -0.238 N 
ATOM      4  N   UNL     1      31.403 -22.600 -16.941  0.00  0.00    -0.288 N 
ATOM      5  C   UNL     1      31.926 -23.190 -15.715  0.00  0.00    +0.124 C 
ATOM      6  C   UNL     1      31.528 -24.677 -15.639  0.00  0.00    +0.038 C 
ATOM      7  C   UNL     1      31.407 -22.404 -14.494  0.00  0.00    +0.038 C 
ATOM      8  C   UNL     1      29.912 -22.619 -14.251  0.00  0.00    +0.003 C 
ATOM      9  C   UNL     1      30.033 -24.873 -15.385  0.00  0.00    +0.003 C 
ATOM     10  C   UNL     1      29.564 -24.101 -14.156  0.00  0.00    +0.000 C 
ATOM     11  C   UNL     1      33.673 -22.408 -17.082  0.00  0.00    +0.105 C 
ATOM     12  C   UNL     1      32.395 -22.121 -17.787  0.00  0.00    +0.260 C 
ATOM     13  C   UNL     1      34.368 -23.434 -14.973  0.00  0.00    +0.267 C 
ATOM     14  C   UNL     1      34.929 -22.148 -17.470  0.00  0.00    -0.002 C 
ATOM     15  C   UNL     1      35.788 -23.149 -15.391  0.00  0.00    +0.104 C 
ATOM     16  C   UNL     1      36.001 -22.544 -16.572  0.00  0.00    +0.016 C 
ATOM     17  C   UNL     1      35.367 -21.484 -18.741  0.00  0.00    +0.033 C 
ATOM     18  H   UNL     1      30.442 -22.546 -17.150  0.00  0.00    +0.151 HD
ENDROOT
BRANCH  15  19
ATOM     19  N   UNL     1      36.766 -23.536 -14.521  0.00  0.00    -0.298 N 
ATOM     20  N   UNL     1      36.677 -25.891 -14.730  0.00  0.00    -0.233 NA
ATOM     21  N   UNL     1      38.614 -27.211 -14.172  0.00  0.00    -0.234 NA
ATOM     22  C   UNL     1      37.382 -24.787 -14.407  0.00  0.00    +0.113 C 
ATOM     23  C   UNL     1      38.688 -24.814 -13.964  0.00  0.00    +0.121 C 
ATOM     24  C   UNL     1      39.260 -26.067 -13.865  0.00  0.00    +0.107 C 
ATOM     25  C   UNL     1      37.344 -27.053 -14.592  0.00  0.00    +0.252 C 
ATOM     26  H   UNL     1      37.078 -22.845 -13.894  0.00  0.00    +0.153 HD
ATOM     27  N   UNL     1      40.600 -26.137 -13.411  0.00  0.00    -0.346 N 
ATOM     28  H   UNL     1      41.046 -27.011 -13.326  0.00  0.00    +0.143 HD
ATOM     29  H   UNL     1      41.087 -25.313 -13.182  0.00  0.00    +0.143 HD
ENDBRANCH  15  19
TORSDOF 1
ENDMDL
MODEL 3
REMARK VINA RESULT:     -10.0     11.067     15.372
REMARK  Name = 118598754
REMARK  1 active torsions:
REMARK  status: ('A' for Active; 'I' for Inactive)
REMARK    1  A    between atoms: C_15  and  N_19
REMARK                            x       y       z     vdW  Elec       q    Type
REMARK                         _______ _______ _______ _____ _____    ______ ____
ROOT
ATOM      1  O   UNL     1      31.468  -8.036 -19.142  0.00  0.00    -0.269 OA
ATOM      2  O   UNL     1      33.283  -9.889 -24.371  0.00  0.00    -0.268 OA
ATOM      3  N   UNL     1      32.562  -9.153 -22.289  0.00  0.00    -0.238 N 
ATOM      4  N   UNL     1      32.022  -7.177 -21.247  0.00  0.00    -0.288 N 
ATOM      5  C   UNL     1      32.476  -7.691 -22.535  0.00  0.00    +0.124 C 
ATOM      6  C   UNL     1      33.856  -7.097 -22.877  0.00  0.00    +0.038 C 
ATOM      7  C   UNL     1      31.435  -7.364 -23.623  0.00  0.00    +0.038 C 
ATOM      8  C   UNL     1      31.385  -5.873 -23.959  0.00  0.00    +0.003 C 
ATOM      9  C   UNL     1      33.786  -5.608 -23.220  0.00  0.00    +0.003 C 
ATOM     10  C   UNL     1      32.764  -5.330 -24.318  0.00  0.00    +0.000 C 
ATOM     11  C   UNL     1      32.192  -9.438 -20.986  0.00  0.00    +0.105 C 
ATOM     12  C   UNL     1      31.838  -8.171 -20.294  0.00  0.00    +0.260 C 
ATOM     13  C   UNL     1      32.952 -10.118 -23.209  0.00  0.00    +0.267 C 
ATOM     14  C   UNL     1      32.185 -10.692 -20.510  0.00  0.00    -0.002 C 
ATOM     15  C   UNL     1      32.951 -11.534 -22.693  0.00  0.00    +0.104 C 
ATOM     16  C   UNL     1      32.583 -11.754 -21.419  0.00  0.00    +0.016 C 
ATOM     17  C   UNL     1      31.808 -11.135 -19.128  0.00  0.00    +0.033 C 
ATOM     18  H   UNL     1      31.862  -6.222 -21.070  0.00  0.00    +0.151 HD
ENDROOT
BRANCH  15  19
ATOM     19  N   UNL     1      33.331 -12.502 -23.577  0.00  0.00    -0.298 N 
ATOM     20  N   UNL     1      34.605 -13.932 -22.187  0.00  0.00    -0.233 NA
ATOM     21  N   UNL     1      34.892 -16.245 -22.801  0.00  0.00    -0.234 NA
ATOM     22  C   UNL     1      33.865 -13.767 -23.304  0.00  0.00    +0.113 C 
ATOM     23  C   UNL     1      33.599 -14.777 -24.204  0.00  0.00    +0.121 C 
ATOM     24  C   UNL     1      34.143 -16.009 -23.899  0.00  0.00    +0.107 C 
ATOM     25  C   UNL     1      35.080 -15.179 -22.000  0.00  0.00    +0.252 C 
ATOM     26  H   UNL     1      33.213 -12.283 -24.529  0.00  0.00    +0.153 HD
ATOM     27  N   UNL     1      33.895 -17.072 -24.800  0.00  0.00    -0.346 N 
ATOM     28  H   UNL     1      34.264 -17.967 -24.621  0.00  0.00    +0.143 HD
ATOM     29  H   UNL     1      33.351 -16.918 -25.607  0.00  0.00    +0.143 HD
ENDBRANCH  15  19
TORSDOF 1
ENDMDL
MODEL 4
REMARK VINA RESULT:      -9.4      2.760      4.966
REMARK  Name = 118598754
REMARK  1 active torsions:
REMARK  status: ('A' for Active; 'I' for Inactive)
REMARK    1  A    between atoms: C_15  and  N_19
REMARK                            x       y       z     vdW  Elec       q    Type
REMARK                         _______ _______ _______ _____ _____    ______ ____
ROOT
ATOM      1  O   UNL     1      38.280 -22.036 -15.999  0.00  0.00    -0.269 OA
ATOM      2  O   UNL     1      33.428 -24.612 -14.025  0.00  0.00    -0.268 OA
ATOM      3  N   UNL     1      35.358 -23.585 -14.811  0.00  0.00    -0.238 N 
ATOM      4  N   UNL     1      37.542 -23.286 -14.164  0.00  0.00    -0.288 N 
ATOM      5  C   UNL     1      36.304 -23.912 -13.714  0.00  0.00    +0.124 C 
ATOM      6  C   UNL     1      35.856 -23.285 -12.380  0.00  0.00    +0.038 C 
ATOM      7  C   UNL     1      36.507 -25.434 -13.583  0.00  0.00    +0.038 C 
ATOM      8  C   UNL     1      37.410 -25.806 -12.405  0.00  0.00    +0.003 C 
ATOM      9  C   UNL     1      36.764 -23.675 -11.213  0.00  0.00    +0.003 C 
ATOM     10  C   UNL     1      36.918 -25.189 -11.101  0.00  0.00    +0.000 C 
ATOM     11  C   UNL     1      36.001 -22.844 -15.788  0.00  0.00    +0.105 C 
ATOM     12  C   UNL     1      37.418 -22.639 -15.387  0.00  0.00    +0.260 C 
ATOM     13  C   UNL     1      34.020 -23.953 -14.878  0.00  0.00    +0.267 C 
ATOM     14  C   UNL     1      35.364 -22.419 -16.889  0.00  0.00    -0.002 C 
ATOM     15  C   UNL     1      33.287 -23.486 -16.109  0.00  0.00    +0.104 C 
ATOM     16  C   UNL     1      33.960 -22.768 -17.025  0.00  0.00    +0.016 C 
ATOM     17  C   UNL     1      35.939 -21.615 -18.016  0.00  0.00    +0.033 C 
ATOM     18  H   UNL     1      38.383 -23.317 -13.652  0.00  0.00    +0.151 HD
ENDROOT
BRANCH  15  19
ATOM     19  N   UNL     1      31.970 -23.833 -16.199  0.00  0.00    -0.298 N 
ATOM     20  N   UNL     1      31.025 -22.561 -14.442  0.00  0.00    -0.233 NA
ATOM     21  N   UNL     1      28.684 -21.993 -14.507  0.00  0.00    -0.234 NA
ATOM     22  C   UNL     1      30.863 -23.206 -15.617  0.00  0.00    +0.113 C 
ATOM     23  C   UNL     1      29.660 -23.286 -16.287  0.00  0.00    +0.121 C 
ATOM     24  C   UNL     1      28.594 -22.655 -15.679  0.00  0.00    +0.107 C 
ATOM     25  C   UNL     1      29.911 -21.985 -13.951  0.00  0.00    +0.252 C 
ATOM     26  H   UNL     1      31.774 -24.627 -16.747  0.00  0.00    +0.153 HD
ATOM     27  N   UNL     1      27.340 -22.718 -16.334  0.00  0.00    -0.346 N 
ATOM     28  H   UNL     1      26.553 -22.281 -15.936  0.00  0.00    +0.143 HD
ATOM     29  H   UNL     1      27.255 -23.197 -17.191  0.00  0.00    +0.143 HD
ENDBRANCH  15  19
TORSDOF 1
ENDMDL
MODEL 5
REMARK VINA RESULT:      -9.3      6.987     10.496
REMARK  Name = 118598754
REMARK  1 active torsions:
REMARK  status: ('A' for Active; 'I' for Inactive)
REMARK    1  A    between atoms: C_15  and  N_19
REMARK                            x       y       z     vdW  Elec       q    Type
REMARK                         _______ _______ _______ _____ _____    ______ ____
ROOT
ATOM      1  O   UNL     1      34.825 -18.321 -25.127  0.00  0.00    -0.269 OA
ATOM      2  O   UNL     1      34.748 -15.868 -19.831  0.00  0.00    -0.268 OA
ATOM      3  N   UNL     1      34.780 -16.842 -21.940  0.00  0.00    -0.238 N 
ATOM      4  N   UNL     1      35.336 -18.851 -22.906  0.00  0.00    -0.288 N 
ATOM      5  C   UNL     1      35.298 -18.193 -21.606  0.00  0.00    +0.124 C 
ATOM      6  C   UNL     1      36.721 -18.119 -21.017  0.00  0.00    +0.038 C 
ATOM      7  C   UNL     1      34.337 -18.947 -20.666  0.00  0.00    +0.038 C 
ATOM      8  C   UNL     1      34.886 -20.309 -20.235  0.00  0.00    +0.003 C 
ATOM      9  C   UNL     1      37.249 -19.486 -20.582  0.00  0.00    +0.003 C 
ATOM     10  C   UNL     1      36.282 -20.189 -19.634  0.00  0.00    +0.000 C 
ATOM     11  C   UNL     1      34.546 -16.747 -23.301  0.00  0.00    +0.105 C 
ATOM     12  C   UNL     1      34.901 -18.039 -23.945  0.00  0.00    +0.260 C 
ATOM     13  C   UNL     1      34.551 -15.806 -21.043  0.00  0.00    +0.267 C 
ATOM     14  C   UNL     1      34.075 -15.623 -23.861  0.00  0.00    -0.002 C 
ATOM     15  C   UNL     1      34.021 -14.535 -21.654  0.00  0.00    +0.104 C 
ATOM     16  C   UNL     1      33.813 -14.497 -22.982  0.00  0.00    +0.016 C 
ATOM     17  C   UNL     1      33.780 -15.389 -25.313  0.00  0.00    +0.033 C 
ATOM     18  H   UNL     1      35.639 -19.779 -23.036  0.00  0.00    +0.151 HD
ENDROOT
BRANCH  15  19
ATOM     19  N   UNL     1      33.787 -13.500 -20.795  0.00  0.00    -0.298 N 
ATOM     20  N   UNL     1      32.981 -11.836 -22.272  0.00  0.00    -0.233 NA
ATOM     21  N   UNL     1      31.589 -10.061 -21.422  0.00  0.00    -0.234 NA
ATOM     22  C   UNL     1      33.045 -12.335 -21.019  0.00  0.00    +0.113 C 
ATOM     23  C   UNL     1      32.419 -11.761 -19.932  0.00  0.00    +0.121 C 
ATOM     24  C   UNL     1      31.697 -10.614 -20.196  0.00  0.00    +0.107 C 
ATOM     25  C   UNL     1      32.246 -10.714 -22.400  0.00  0.00    +0.252 C 
ATOM     26  H   UNL     1      34.193 -13.584 -19.903  0.00  0.00    +0.153 HD
ATOM     27  N   UNL     1      31.042  -9.993 -19.105  0.00  0.00    -0.346 N 
ATOM     28  H   UNL     1      30.516  -9.173 -19.248  0.00  0.00    +0.143 HD
ATOM     29  H   UNL     1      31.109 -10.381 -18.202  0.00  0.00    +0.143 HD
ENDBRANCH  15  19
TORSDOF 1
ENDMDL
