MODEL 1
REMARK VINA RESULT:     -11.9      0.000      0.000
REMARK  Name = 24779675
REMARK  4 active torsions:
REMARK  status: ('A' for Active; 'I' for Inactive)
REMARK    1  A    between atoms: N_1  and  C_22
REMARK    2  A    between atoms: N_5  and  C_14
REMARK    3  A    between atoms: C_10  and  C_21
REMARK    4  A    between atoms: C_22  and  C_23
REMARK                            x       y       z     vdW  Elec       q    Type
REMARK                         _______ _______ _______ _____ _____    ______ ____
ROOT
ATOM      1  N   UNL     1      34.152 -22.748 -17.483  0.00  0.00    -0.259 N 
ATOM      2  N   UNL     1      32.365 -22.957 -16.054  0.00  0.00    -0.314 NA
ATOM      3  N   UNL     1      34.511 -23.790 -15.420  0.00  0.00    -0.295 NA
ATOM      4  N   UNL     1      32.743 -24.007 -13.982  0.00  0.00    -0.123 N 
ATOM      5  N   UNL     1      34.851 -24.842 -13.323  0.00  0.00    -0.274 N 
ATOM      6  N   UNL     1      32.160 -24.390 -12.833  0.00  0.00    -0.170 NA
ATOM      7  C   UNL     1      33.639 -23.161 -16.305  0.00  0.00    +0.203 C 
ATOM      8  C   UNL     1      31.899 -23.389 -14.859  0.00  0.00    +0.219 C 
ATOM      9  C   UNL     1      34.084 -24.214 -14.266  0.00  0.00    +0.279 C 
ATOM     10  C   UNL     1      30.673 -23.366 -14.235  0.00  0.00    +0.203 C 
ATOM     11  C   UNL     1      30.894 -23.994 -12.993  0.00  0.00    +0.116 C 
ATOM     12  H   UNL     1      35.107 -22.907 -17.658  0.00  0.00    +0.160 HD
ATOM     13  H   UNL     1      34.395 -25.110 -12.493  0.00  0.00    +0.156 HD
ENDROOT
BRANCH   5  14
ATOM     14  C   UNL     1      36.211 -25.142 -13.413  0.00  0.00    +0.051 C 
ATOM     15  C   UNL     1      36.644 -26.173 -14.248  0.00  0.00    +0.015 C 
ATOM     16  C   UNL     1      37.138 -24.411 -12.669  0.00  0.00    +0.015 C 
ATOM     17  C   UNL     1      38.003 -26.475 -14.338  0.00  0.00    +0.001 C 
ATOM     18  C   UNL     1      38.497 -24.712 -12.760  0.00  0.00    +0.001 C 
ATOM     19  C   UNL     1      38.930 -25.744 -13.594  0.00  0.00    +0.000 C 
ENDBRANCH   5  14
BRANCH  10  21
ATOM     20  N   UNL     1      28.481 -22.378 -15.175  0.00  0.00    -0.195 NA
ATOM     21  C   UNL     1      29.466 -22.823 -14.751  0.00  0.00    +0.087 C 
ENDBRANCH  10  21
BRANCH   1  22
ATOM     22  C   UNL     1      33.370 -22.085 -18.493  0.00  0.00    +0.099 C 
BRANCH  22  23
ATOM     23  C   UNL     1      34.299 -21.444 -19.523  0.00  0.00    +0.020 C 
ATOM     24  C   UNL     1      33.653 -20.190 -20.128  0.00  0.00    +0.002 C 
ATOM     25  C   UNL     1      35.658 -21.109 -18.894  0.00  0.00    +0.002 C 
ATOM     26  C   UNL     1      34.584 -19.500 -21.122  0.00  0.00    +0.000 C 
ATOM     27  C   UNL     1      36.585 -20.417 -19.891  0.00  0.00    +0.000 C 
ATOM     28  C   UNL     1      35.937 -19.176 -20.497  0.00  0.00    +0.000 C 
ENDBRANCH  22  23
ENDBRANCH   1  22
TORSDOF 4
ENDMDL
MODEL 2
REMARK VINA RESULT:     -11.1      1.457      5.560
REMARK  Name = 24779675
REMARK  4 active torsions:
REMARK  status: ('A' for Active; 'I' for Inactive)
REMARK    1  A    between atoms: N_1  and  C_22
REMARK    2  A    between atoms: N_5  and  C_14
REMARK    3  A    between atoms: C_10  and  C_21
REMARK    4  A    between atoms: C_22  and  C_23
REMARK                            x       y       z     vdW  Elec       q    Type
REMARK                         _______ _______ _______ _____ _____    ______ ____
ROOT
ATOM      1  N   UNL     1      34.347 -22.453 -17.555  0.00  0.00    -0.259 N 
ATOM      2  N   UNL     1      35.283 -23.171 -15.584  0.00  0.00    -0.314 NA
ATOM      3  N   UNL     1      32.909 -23.142 -15.844  0.00  0.00    -0.295 NA
ATOM      4  N   UNL     1      33.824 -23.862 -13.873  0.00  0.00    -0.123 N 
ATOM      5  N   UNL     1      31.473 -23.846 -14.095  0.00  0.00    -0.274 N 
ATOM      6  N   UNL     1      33.766 -24.339 -12.617  0.00  0.00    -0.170 NA
ATOM      7  C   UNL     1      34.208 -22.932 -16.301  0.00  0.00    +0.203 C 
ATOM      8  C   UNL     1      35.091 -23.651 -14.334  0.00  0.00    +0.219 C 
ATOM      9  C   UNL     1      32.702 -23.602 -14.644  0.00  0.00    +0.279 C 
ATOM     10  C   UNL     1      35.924 -24.020 -13.302  0.00  0.00    +0.203 C 
ATOM     11  C   UNL     1      35.054 -24.434 -12.273  0.00  0.00    +0.116 C 
ATOM     12  H   UNL     1      33.534 -22.278 -18.082  0.00  0.00    +0.160 HD
ATOM     13  H   UNL     1      31.464 -24.194 -13.174  0.00  0.00    +0.156 HD
ENDROOT
BRANCH   5  14
ATOM     14  C   UNL     1      30.230 -23.653 -14.701  0.00  0.00    +0.051 C 
ATOM     15  C   UNL     1      29.561 -22.438 -14.550  0.00  0.00    +0.015 C 
ATOM     16  C   UNL     1      29.658 -24.675 -15.458  0.00  0.00    +0.015 C 
ATOM     17  C   UNL     1      28.319 -22.245 -15.155  0.00  0.00    +0.001 C 
ATOM     18  C   UNL     1      28.416 -24.482 -16.063  0.00  0.00    +0.001 C 
ATOM     19  C   UNL     1      27.746 -23.268 -15.912  0.00  0.00    +0.000 C 
ENDBRANCH   5  14
BRANCH  10  21
ATOM     20  N   UNL     1      38.504 -23.948 -13.297  0.00  0.00    -0.195 NA
ATOM     21  C   UNL     1      37.344 -23.980 -13.300  0.00  0.00    +0.087 C 
ENDBRANCH  10  21
BRANCH   1  22
ATOM     22  C   UNL     1      35.625 -22.187 -18.160  0.00  0.00    +0.099 C 
BRANCH  22  23
ATOM     23  C   UNL     1      35.434 -21.338 -19.415  0.00  0.00    +0.020 C 
ATOM     24  C   UNL     1      34.013 -20.759 -19.466  0.00  0.00    +0.002 C 
ATOM     25  C   UNL     1      36.482 -20.219 -19.478  0.00  0.00    +0.002 C 
ATOM     26  C   UNL     1      33.812 -19.862 -20.685  0.00  0.00    +0.000 C 
ATOM     27  C   UNL     1      36.277 -19.322 -20.698  0.00  0.00    +0.000 C 
ATOM     28  C   UNL     1      34.861 -18.756 -20.750  0.00  0.00    +0.000 C 
ENDBRANCH  22  23
ENDBRANCH   1  22
TORSDOF 4
ENDMDL
MODEL 3
REMARK VINA RESULT:     -10.5      1.748      7.167
REMARK  Name = 24779675
REMARK  4 active torsions:
REMARK  status: ('A' for Active; 'I' for Inactive)
REMARK    1  A    between atoms: N_1  and  C_22
REMARK    2  A    between atoms: N_5  and  C_14
REMARK    3  A    between atoms: C_10  and  C_21
REMARK    4  A    between atoms: C_22  and  C_23
REMARK                            x       y       z     vdW  Elec       q    Type
REMARK                         _______ _______ _______ _____ _____    ______ ____
ROOT
ATOM      1  N   UNL     1      33.056 -23.161 -14.532  0.00  0.00    -0.259 N 
ATOM      2  N   UNL     1      35.135 -23.844 -13.831  0.00  0.00    -0.314 NA
ATOM      3  N   UNL     1      34.895 -22.639 -15.880  0.00  0.00    -0.295 NA
ATOM      4  N   UNL     1      36.975 -23.309 -15.198  0.00  0.00    -0.123 N 
ATOM      5  N   UNL     1      36.774 -22.120 -17.228  0.00  0.00    -0.274 N 
ATOM      6  N   UNL     1      38.309 -23.419 -15.320  0.00  0.00    -0.170 NA
ATOM      7  C   UNL     1      34.390 -23.231 -14.725  0.00  0.00    +0.203 C 
ATOM      8  C   UNL     1      36.466 -23.885 -14.070  0.00  0.00    +0.219 C 
ATOM      9  C   UNL     1      36.172 -22.669 -16.128  0.00  0.00    +0.279 C 
ATOM     10  C   UNL     1      37.551 -24.410 -13.404  0.00  0.00    +0.203 C 
ATOM     11  C   UNL     1      38.656 -24.093 -14.219  0.00  0.00    +0.116 C 
ATOM     12  H   UNL     1      32.509 -22.700 -15.208  0.00  0.00    +0.160 HD
ATOM     13  H   UNL     1      37.752 -22.217 -17.289  0.00  0.00    +0.156 HD
ENDROOT
BRANCH   5  14
ATOM     14  C   UNL     1      36.149 -21.437 -18.273  0.00  0.00    +0.051 C 
ATOM     15  C   UNL     1      36.875 -20.529 -19.045  0.00  0.00    +0.015 C 
ATOM     16  C   UNL     1      34.799 -21.661 -18.544  0.00  0.00    +0.015 C 
ATOM     17  C   UNL     1      36.250 -19.845 -20.088  0.00  0.00    +0.001 C 
ATOM     18  C   UNL     1      34.175 -20.978 -19.588  0.00  0.00    +0.001 C 
ATOM     19  C   UNL     1      34.900 -20.070 -20.360  0.00  0.00    +0.000 C 
ENDBRANCH   5  14
BRANCH  10  21
ATOM     20  N   UNL     1      37.516 -25.689 -11.162  0.00  0.00    -0.195 NA
ATOM     21  C   UNL     1      37.532 -25.113 -12.170  0.00  0.00    +0.087 C 
ENDBRANCH  10  21
BRANCH   1  22
ATOM     22  C   UNL     1      32.394 -23.728 -13.386  0.00  0.00    +0.099 C 
BRANCH  22  23
ATOM     23  C   UNL     1      30.886 -23.760 -13.627  0.00  0.00    +0.020 C 
ATOM     24  C   UNL     1      30.491 -22.757 -14.720  0.00  0.00    +0.002 C 
ATOM     25  C   UNL     1      30.425 -25.177 -13.993  0.00  0.00    +0.002 C 
ATOM     26  C   UNL     1      28.994 -22.807 -15.017  0.00  0.00    +0.000 C 
ATOM     27  C   UNL     1      28.928 -25.223 -14.291  0.00  0.00    +0.000 C 
ATOM     28  C   UNL     1      28.537 -24.219 -15.372  0.00  0.00    +0.000 C 
ENDBRANCH  22  23
ENDBRANCH   1  22
TORSDOF 4
ENDMDL
MODEL 4
REMARK VINA RESULT:     -10.3      1.541      5.538
REMARK  Name = 24779675
REMARK  4 active torsions:
REMARK  status: ('A' for Active; 'I' for Inactive)
REMARK    1  A    between atoms: N_1  and  C_22
REMARK    2  A    between atoms: N_5  and  C_14
REMARK    3  A    between atoms: C_10  and  C_21
REMARK    4  A    between atoms: C_22  and  C_23
REMARK                            x       y       z     vdW  Elec       q    Type
REMARK                         _______ _______ _______ _____ _____    ______ ____
ROOT
ATOM      1  N   UNL     1      35.192 -22.273 -17.147  0.00  0.00    -0.259 N 
ATOM      2  N   UNL     1      36.505 -23.401 -15.635  0.00  0.00    -0.314 NA
ATOM      3  N   UNL     1      34.129 -23.399 -15.394  0.00  0.00    -0.295 NA
ATOM      4  N   UNL     1      35.420 -24.529 -13.879  0.00  0.00    -0.123 N 
ATOM      5  N   UNL     1      33.073 -24.549 -13.610  0.00  0.00    -0.274 N 
ATOM      6  N   UNL     1      35.615 -25.290 -12.788  0.00  0.00    -0.170 NA
ATOM      7  C   UNL     1      35.308 -23.039 -16.042  0.00  0.00    +0.203 C 
ATOM      8  C   UNL     1      36.567 -24.169 -14.523  0.00  0.00    +0.219 C 
ATOM      9  C   UNL     1      34.167 -24.137 -14.322  0.00  0.00    +0.279 C 
ATOM     10  C   UNL     1      37.590 -24.738 -13.799  0.00  0.00    +0.203 C 
ATOM     11  C   UNL     1      36.945 -25.416 -12.745  0.00  0.00    +0.116 C 
ATOM     12  H   UNL     1      34.291 -22.010 -17.441  0.00  0.00    +0.160 HD
ATOM     13  H   UNL     1      33.250 -25.105 -12.817  0.00  0.00    +0.156 HD
ENDROOT
BRANCH   5  14
ATOM     14  C   UNL     1      31.735 -24.266 -13.889  0.00  0.00    +0.051 C 
ATOM     15  C   UNL     1      31.338 -22.952 -14.138  0.00  0.00    +0.015 C 
ATOM     16  C   UNL     1      30.795 -25.296 -13.918  0.00  0.00    +0.015 C 
ATOM     17  C   UNL     1      30.001 -22.667 -14.415  0.00  0.00    +0.001 C 
ATOM     18  C   UNL     1      29.458 -25.012 -14.197  0.00  0.00    +0.001 C 
ATOM     19  C   UNL     1      29.061 -23.698 -14.445  0.00  0.00    +0.000 C 
ENDBRANCH   5  14
BRANCH  10  21
ATOM     20  N   UNL     1      40.116 -24.571 -14.301  0.00  0.00    -0.195 NA
ATOM     21  C   UNL     1      38.981 -24.647 -14.075  0.00  0.00    +0.087 C 
ENDBRANCH  10  21
BRANCH   1  22
ATOM     22  C   UNL     1      36.323 -21.824 -17.917  0.00  0.00    +0.099 C 
BRANCH  22  23
ATOM     23  C   UNL     1      35.915 -20.632 -18.781  0.00  0.00    +0.020 C 
ATOM     24  C   UNL     1      37.065 -20.219 -19.709  0.00  0.00    +0.002 C 
ATOM     25  C   UNL     1      34.651 -20.954 -19.587  0.00  0.00    +0.002 C 
ATOM     26  C   UNL     1      36.665 -19.062 -20.622  0.00  0.00    +0.000 C 
ATOM     27  C   UNL     1      34.254 -19.796 -20.501  0.00  0.00    +0.000 C 
ATOM     28  C   UNL     1      35.403 -19.382 -21.416  0.00  0.00    +0.000 C 
ENDBRANCH  22  23
ENDBRANCH   1  22
TORSDOF 4
ENDMDL
MODEL 5
REMARK VINA RESULT:      -9.8      1.321      6.528
REMARK  Name = 24779675
REMARK  4 active torsions:
REMARK  status: ('A' for Active; 'I' for Inactive)
REMARK    1  A    between atoms: N_1  and  C_22
REMARK    2  A    between atoms: N_5  and  C_14
REMARK    3  A    between atoms: C_10  and  C_21
REMARK    4  A    between atoms: C_22  and  C_23
REMARK                            x       y       z     vdW  Elec       q    Type
REMARK                         _______ _______ _______ _____ _____    ______ ____
ROOT
ATOM      1  N   UNL     1      34.995 -23.865 -14.995  0.00  0.00    -0.259 N 
ATOM      2  N   UNL     1      32.708 -23.959 -14.798  0.00  0.00    -0.314 NA
ATOM      3  N   UNL     1      33.707 -22.779 -16.618  0.00  0.00    -0.295 NA
ATOM      4  N   UNL     1      31.427 -22.863 -16.438  0.00  0.00    -0.123 N 
ATOM      5  N   UNL     1      32.381 -21.686 -18.251  0.00  0.00    -0.274 N 
ATOM      6  N   UNL     1      30.173 -22.583 -16.834  0.00  0.00    -0.170 NA
ATOM      7  C   UNL     1      33.768 -23.544 -15.456  0.00  0.00    +0.203 C 
ATOM      8  C   UNL     1      31.501 -23.612 -15.301  0.00  0.00    +0.219 C 
ATOM      9  C   UNL     1      32.556 -22.433 -17.117  0.00  0.00    +0.279 C 
ATOM     10  C   UNL     1      30.197 -23.841 -14.925  0.00  0.00    +0.203 C 
ATOM     11  C   UNL     1      29.425 -23.186 -15.905  0.00  0.00    +0.116 C 
ATOM     12  H   UNL     1      35.780 -23.548 -15.497  0.00  0.00    +0.160 HD
ATOM     13  H   UNL     1      31.451 -21.499 -18.514  0.00  0.00    +0.156 HD
ENDROOT
BRANCH   5  14
ATOM     14  C   UNL     1      33.380 -21.162 -19.072  0.00  0.00    +0.051 C 
ATOM     15  C   UNL     1      33.054 -20.234 -20.061  0.00  0.00    +0.015 C 
ATOM     16  C   UNL     1      34.704 -21.567 -18.904  0.00  0.00    +0.015 C 
ATOM     17  C   UNL     1      34.052 -19.711 -20.884  0.00  0.00    +0.001 C 
ATOM     18  C   UNL     1      35.702 -21.043 -19.726  0.00  0.00    +0.001 C 
ATOM     19  C   UNL     1      35.377 -20.115 -20.716  0.00  0.00    +0.000 C 
ENDBRANCH   5  14
BRANCH  10  21
ATOM     20  N   UNL     1      29.391 -25.180 -12.871  0.00  0.00    -0.195 NA
ATOM     21  C   UNL     1      29.754 -24.579 -13.795  0.00  0.00    +0.087 C 
ENDBRANCH  10  21
BRANCH   1  22
ATOM     22  C   UNL     1      35.212 -24.648 -13.808  0.00  0.00    +0.099 C 
BRANCH  22  23
ATOM     23  C   UNL     1      36.686 -24.587 -13.412  0.00  0.00    +0.020 C 
ATOM     24  C   UNL     1      37.045 -25.748 -12.476  0.00  0.00    +0.002 C 
ATOM     25  C   UNL     1      37.582 -24.593 -14.658  0.00  0.00    +0.002 C 
ATOM     26  C   UNL     1      38.527 -25.740 -12.108  0.00  0.00    +0.000 C 
ATOM     27  C   UNL     1      39.064 -24.586 -14.287  0.00  0.00    +0.000 C 
ATOM     28  C   UNL     1      39.415 -25.737 -13.348  0.00  0.00    +0.000 C 
ENDBRANCH  22  23
ENDBRANCH   1  22
TORSDOF 4
ENDMDL
MODEL 6
REMARK VINA RESULT:      -9.7      5.402      9.205
REMARK  Name = 24779675
REMARK  4 active torsions:
REMARK  status: ('A' for Active; 'I' for Inactive)
REMARK    1  A    between atoms: N_1  and  C_22
REMARK    2  A    between atoms: N_5  and  C_14
REMARK    3  A    between atoms: C_10  and  C_21
REMARK    4  A    between atoms: C_22  and  C_23
REMARK                            x       y       z     vdW  Elec       q    Type
REMARK                         _______ _______ _______ _____ _____    ______ ____
ROOT
ATOM      1  N   UNL     1      35.180 -15.838 -19.780  0.00  0.00    -0.259 N 
ATOM      2  N   UNL     1      34.817 -16.374 -21.985  0.00  0.00    -0.314 NA
ATOM      3  N   UNL     1      35.068 -18.102 -20.356  0.00  0.00    -0.295 NA
ATOM      4  N   UNL     1      34.705 -18.656 -22.547  0.00  0.00    -0.123 N 
ATOM      5  N   UNL     1      34.948 -20.391 -20.963  0.00  0.00    -0.274 N 
ATOM      6  N   UNL     1      34.533 -19.521 -23.562  0.00  0.00    -0.170 NA
ATOM      7  C   UNL     1      35.015 -16.766 -20.746  0.00  0.00    +0.203 C 
ATOM      8  C   UNL     1      34.656 -17.343 -22.915  0.00  0.00    +0.219 C 
ATOM      9  C   UNL     1      34.916 -19.050 -21.235  0.00  0.00    +0.279 C 
ATOM     10  C   UNL     1      34.433 -17.350 -24.273  0.00  0.00    +0.203 C 
ATOM     11  C   UNL     1      34.366 -18.715 -24.616  0.00  0.00    +0.116 C 
ATOM     12  H   UNL     1      35.327 -16.145 -18.857  0.00  0.00    +0.160 HD
ATOM     13  H   UNL     1      34.819 -20.998 -21.727  0.00  0.00    +0.156 HD
ENDROOT
BRANCH   5  14
ATOM     14  C   UNL     1      35.145 -20.989 -19.717  0.00  0.00    +0.051 C 
ATOM     15  C   UNL     1      36.406 -20.959 -19.121  0.00  0.00    +0.015 C 
ATOM     16  C   UNL     1      34.082 -21.616 -19.069  0.00  0.00    +0.015 C 
ATOM     17  C   UNL     1      36.604 -21.557 -17.876  0.00  0.00    +0.001 C 
ATOM     18  C   UNL     1      34.280 -22.214 -17.824  0.00  0.00    +0.001 C 
ATOM     19  C   UNL     1      35.540 -22.185 -17.228  0.00  0.00    +0.000 C 
ENDBRANCH   5  14
BRANCH  10  21
ATOM     20  N   UNL     1      34.198 -15.291 -25.812  0.00  0.00    -0.195 NA
ATOM     21  C   UNL     1      34.304 -16.216 -25.120  0.00  0.00    +0.087 C 
ENDBRANCH  10  21
BRANCH   1  22
ATOM     22  C   UNL     1      35.151 -14.422 -20.035  0.00  0.00    +0.099 C 
BRANCH  22  23
ATOM     23  C   UNL     1      33.883 -14.065 -20.809  0.00  0.00    +0.020 C 
ATOM     24  C   UNL     1      32.951 -13.199 -19.950  0.00  0.00    +0.002 C 
ATOM     25  C   UNL     1      34.232 -13.354 -22.123  0.00  0.00    +0.002 C 
ATOM     26  C   UNL     1      31.699 -12.783 -20.720  0.00  0.00    +0.000 C 
ATOM     27  C   UNL     1      32.978 -12.938 -22.889  0.00  0.00    +0.000 C 
ATOM     28  C   UNL     1      32.049 -12.085 -22.030  0.00  0.00    +0.000 C 
ENDBRANCH  22  23
ENDBRANCH   1  22
TORSDOF 4
ENDMDL
