MODEL 1
REMARK VINA RESULT:     -11.8      0.000      0.000
REMARK  Name = 54674461
REMARK  5 active torsions:
REMARK  status: ('A' for Active; 'I' for Inactive)
REMARK    1  A    between atoms: N_2  and  C_29
REMARK    2  A    between atoms: C_7  and  C_14
REMARK    3  A    between atoms: C_15  and  N_21
REMARK    4  A    between atoms: C_22  and  O_24
REMARK    5  A    between atoms: C_29  and  C_31
REMARK                            x       y       z     vdW  Elec       q    Type
REMARK                         _______ _______ _______ _____ _____    ______ ____
ROOT
ATOM      1  F   UNL     1      29.370 -23.036 -14.944  0.00  0.00    -0.207 F 
ATOM      2  N   UNL     1      34.583 -24.331 -14.906  0.00  0.00    -0.193 N 
ATOM      3  N   UNL     1      35.126 -23.689 -15.956  0.00  0.00    -0.168 NA
ATOM      4  N   UNL     1      32.447 -24.623 -13.807  0.00  0.00    -0.251 NA
ATOM      5  C   UNL     1      32.883 -23.261 -15.796  0.00  0.00    +0.133 C 
ATOM      6  C   UNL     1      33.244 -24.112 -14.762  0.00  0.00    +0.133 C 
ATOM      7  C   UNL     1      34.087 -23.039 -16.493  0.00  0.00    +0.172 C 
ATOM      8  C   UNL     1      31.542 -22.870 -15.885  0.00  0.00    +0.015 C 
ATOM      9  C   UNL     1      30.666 -23.368 -14.921  0.00  0.00    +0.139 C 
ATOM     10  C   UNL     1      31.162 -24.216 -13.935  0.00  0.00    +0.182 C 
ENDROOT
BRANCH   7  14
ATOM     11  N   UNL     1      33.157 -21.817 -18.300  0.00  0.00    -0.326 NA
ATOM     12  N   UNL     1      35.545 -21.941 -18.006  0.00  0.00    -0.326 NA
ATOM     13  N   UNL     1      32.233 -20.596 -20.106  0.00  0.00    -0.334 N 
ATOM     14  C   UNL     1      34.274 -22.220 -17.664  0.00  0.00    +0.156 C 
ATOM     15  C   UNL     1      34.620 -20.697 -19.848  0.00  0.00    +0.210 C 
ATOM     16  C   UNL     1      33.368 -21.054 -19.392  0.00  0.00    +0.193 C 
ATOM     17  C   UNL     1      35.684 -21.174 -19.108  0.00  0.00    +0.193 C 
ATOM     18  H   UNL     1      31.328 -20.838 -19.800  0.00  0.00    +0.144 HD
ATOM     19  H   UNL     1      32.348 -20.036 -20.907  0.00  0.00    +0.144 HD
ATOM     20  N   UNL     1      36.998 -20.845 -19.522  0.00  0.00    -0.334 N 
ATOM     21  H   UNL     1      37.772 -21.174 -19.010  0.00  0.00    +0.144 HD
ATOM     22  H   UNL     1      37.137 -20.289 -20.322  0.00  0.00    +0.144 HD
BRANCH  15  24
ATOM     23  O   UNL     1      35.624 -17.880 -20.143  0.00  0.00    -0.226 OA
ATOM     24  N   UNL     1      34.802 -19.907 -20.986  0.00  0.00    -0.258 N 
ATOM     25  C   UNL     1      35.273 -18.601 -21.069  0.00  0.00    +0.402 C 
ATOM     26  H   UNL     1      34.566 -20.332 -21.842  0.00  0.00    +0.154 HD
BRANCH  25  27
ATOM     27  O   UNL     1      35.292 -18.210 -22.381  0.00  0.00    -0.431 OA
ATOM     28  C   UNL     1      34.340 -18.847 -23.241  0.00  0.00    +0.257 C 
ENDBRANCH  25  27
ENDBRANCH  15  24
ENDBRANCH   7  14
BRANCH   2  29
ATOM     29  C   UNL     1      35.420 -25.155 -14.066  0.00  0.00    +0.146 C 
BRANCH  29  31
ATOM     30  F   UNL     1      37.675 -23.443 -14.173  0.00  0.00    -0.204 F 
ATOM     31  C   UNL     1      35.958 -24.426 -12.860  0.00  0.00    +0.027 C 
ATOM     32  C   UNL     1      37.074 -23.597 -12.985  0.00  0.00    +0.138 C 
ATOM     33  C   UNL     1      35.339 -24.580 -11.620  0.00  0.00    -0.000 C 
ATOM     34  C   UNL     1      37.570 -22.923 -11.869  0.00  0.00    +0.029 C 
ATOM     35  C   UNL     1      35.836 -23.906 -10.504  0.00  0.00    -0.000 C 
ATOM     36  C   UNL     1      36.951 -23.078 -10.628  0.00  0.00    +0.002 C 
ENDBRANCH  29  31
ENDBRANCH   2  29
TORSDOF 5
ENDMDL
MODEL 2
REMARK VINA RESULT:     -11.1      1.315      4.859
REMARK  Name = 54674461
REMARK  5 active torsions:
REMARK  status: ('A' for Active; 'I' for Inactive)
REMARK    1  A    between atoms: N_2  and  C_29
REMARK    2  A    between atoms: C_7  and  C_14
REMARK    3  A    between atoms: C_15  and  N_21
REMARK    4  A    between atoms: C_22  and  O_24
REMARK    5  A    between atoms: C_29  and  C_31
REMARK                            x       y       z     vdW  Elec       q    Type
REMARK                         _______ _______ _______ _____ _____    ______ ____
ROOT
ATOM      1  F   UNL     1      37.940 -23.610 -13.665  0.00  0.00    -0.207 F 
ATOM      2  N   UNL     1      32.753 -24.062 -14.988  0.00  0.00    -0.193 N 
ATOM      3  N   UNL     1      32.619 -23.416 -16.160  0.00  0.00    -0.168 NA
ATOM      4  N   UNL     1      34.450 -24.609 -13.352  0.00  0.00    -0.251 NA
ATOM      5  C   UNL     1      34.782 -23.338 -15.418  0.00  0.00    +0.133 C 
ATOM      6  C   UNL     1      34.026 -24.047 -14.498  0.00  0.00    +0.133 C 
ATOM      7  C   UNL     1      33.856 -22.978 -16.417  0.00  0.00    +0.172 C 
ATOM      8  C   UNL     1      36.147 -23.169 -15.156  0.00  0.00    +0.015 C 
ATOM      9  C   UNL     1      36.646 -23.731 -13.980  0.00  0.00    +0.139 C 
ATOM     10  C   UNL     1      35.774 -24.419 -13.142  0.00  0.00    +0.182 C 
ENDROOT
BRANCH   7  14
ATOM     11  N   UNL     1      35.416 -22.078 -17.960  0.00  0.00    -0.326 NA
ATOM     12  N   UNL     1      33.050 -21.740 -18.272  0.00  0.00    -0.326 NA
ATOM     13  N   UNL     1      36.969 -21.176 -19.504  0.00  0.00    -0.334 N 
ATOM     14  C   UNL     1      34.122 -22.224 -17.616  0.00  0.00    +0.156 C 
ATOM     15  C   UNL     1      34.618 -20.816 -19.848  0.00  0.00    +0.210 C 
ATOM     16  C   UNL     1      35.628 -21.366 -19.086  0.00  0.00    +0.193 C 
ATOM     17  C   UNL     1      33.335 -21.037 -19.388  0.00  0.00    +0.193 C 
ATOM     18  H   UNL     1      37.708 -21.559 -18.976  0.00  0.00    +0.144 HD
ATOM     19  H   UNL     1      37.163 -20.663 -20.321  0.00  0.00    +0.144 HD
ATOM     20  N   UNL     1      32.250 -20.499 -20.123  0.00  0.00    -0.334 N 
ATOM     21  H   UNL     1      31.327 -20.644 -19.815  0.00  0.00    +0.144 HD
ATOM     22  H   UNL     1      32.420 -19.979 -20.942  0.00  0.00    +0.144 HD
BRANCH  15  24
ATOM     23  O   UNL     1      35.835 -18.094 -20.217  0.00  0.00    -0.226 OA
ATOM     24  N   UNL     1      34.875 -20.081 -21.007  0.00  0.00    -0.258 N 
ATOM     25  C   UNL     1      35.444 -18.817 -21.125  0.00  0.00    +0.402 C 
ATOM     26  H   UNL     1      34.620 -20.515 -21.854  0.00  0.00    +0.154 HD
BRANCH  25  27
ATOM     27  O   UNL     1      35.512 -18.473 -22.449  0.00  0.00    -0.431 OA
ATOM     28  C   UNL     1      34.321 -18.684 -23.215  0.00  0.00    +0.257 C 
ENDBRANCH  25  27
ENDBRANCH  15  24
ENDBRANCH   7  14
BRANCH   2  29
ATOM     29  C   UNL     1      31.600 -24.682 -14.380  0.00  0.00    +0.146 C 
BRANCH  29  31
ATOM     30  F   UNL     1      30.795 -22.063 -13.656  0.00  0.00    -0.204 F 
ATOM     31  C   UNL     1      30.293 -24.071 -14.820  0.00  0.00    +0.027 C 
ATOM     32  C   UNL     1      29.959 -22.775 -14.426  0.00  0.00    +0.138 C 
ATOM     33  C   UNL     1      29.417 -24.803 -15.621  0.00  0.00    -0.000 C 
ATOM     34  C   UNL     1      28.751 -22.211 -14.833  0.00  0.00    +0.029 C 
ATOM     35  C   UNL     1      28.207 -24.240 -16.028  0.00  0.00    -0.000 C 
ATOM     36  C   UNL     1      27.873 -22.944 -15.634  0.00  0.00    +0.002 C 
ENDBRANCH  29  31
ENDBRANCH   2  29
TORSDOF 5
ENDMDL
MODEL 3
REMARK VINA RESULT:     -11.1      1.375      4.660
REMARK  Name = 54674461
REMARK  5 active torsions:
REMARK  status: ('A' for Active; 'I' for Inactive)
REMARK    1  A    between atoms: N_2  and  C_29
REMARK    2  A    between atoms: C_7  and  C_14
REMARK    3  A    between atoms: C_15  and  N_21
REMARK    4  A    between atoms: C_22  and  O_24
REMARK    5  A    between atoms: C_29  and  C_31
REMARK                            x       y       z     vdW  Elec       q    Type
REMARK                         _______ _______ _______ _____ _____    ______ ____
ROOT
ATOM      1  F   UNL     1      38.339 -23.933 -13.762  0.00  0.00    -0.207 F 
ATOM      2  N   UNL     1      33.039 -23.987 -14.638  0.00  0.00    -0.193 N 
ATOM      3  N   UNL     1      32.855 -23.339 -15.802  0.00  0.00    -0.168 NA
ATOM      4  N   UNL     1      34.821 -24.656 -13.144  0.00  0.00    -0.251 NA
ATOM      5  C   UNL     1      35.073 -23.425 -15.246  0.00  0.00    +0.133 C 
ATOM      6  C   UNL     1      34.346 -24.068 -14.257  0.00  0.00    +0.133 C 
ATOM      7  C   UNL     1      34.096 -22.999 -16.168  0.00  0.00    +0.172 C 
ATOM      8  C   UNL     1      36.464 -23.361 -15.102  0.00  0.00    +0.015 C 
ATOM      9  C   UNL     1      37.016 -23.955 -13.966  0.00  0.00    +0.139 C 
ATOM     10  C   UNL     1      36.169 -24.569 -13.049  0.00  0.00    +0.182 C 
ENDROOT
BRANCH   7  14
ATOM     11  N   UNL     1      33.218 -21.855 -18.050  0.00  0.00    -0.326 NA
ATOM     12  N   UNL     1      35.599 -22.089 -17.760  0.00  0.00    -0.326 NA
ATOM     13  N   UNL     1      32.345 -20.711 -19.931  0.00  0.00    -0.334 N 
ATOM     14  C   UNL     1      34.316 -22.274 -17.393  0.00  0.00    +0.156 C 
ATOM     15  C   UNL     1      34.726 -20.925 -19.678  0.00  0.00    +0.210 C 
ATOM     16  C   UNL     1      33.460 -21.181 -19.193  0.00  0.00    +0.193 C 
ATOM     17  C   UNL     1      35.768 -21.408 -18.913  0.00  0.00    +0.193 C 
ATOM     18  H   UNL     1      31.432 -20.881 -19.605  0.00  0.00    +0.144 HD
ATOM     19  H   UNL     1      32.484 -20.214 -20.769  0.00  0.00    +0.144 HD
ATOM     20  N   UNL     1      37.096 -21.181 -19.355  0.00  0.00    -0.334 N 
ATOM     21  H   UNL     1      37.854 -21.516 -18.825  0.00  0.00    +0.144 HD
ATOM     22  H   UNL     1      37.257 -20.689 -20.193  0.00  0.00    +0.144 HD
BRANCH  15  24
ATOM     23  O   UNL     1      35.952 -18.228 -20.178  0.00  0.00    -0.226 OA
ATOM     24  N   UNL     1      34.940 -20.226 -20.869  0.00  0.00    -0.258 N 
ATOM     25  C   UNL     1      35.516 -18.972 -21.047  0.00  0.00    +0.402 C 
ATOM     26  H   UNL     1      34.645 -20.682 -21.691  0.00  0.00    +0.154 HD
BRANCH  25  27
ATOM     27  O   UNL     1      35.530 -18.668 -22.382  0.00  0.00    -0.431 OA
ATOM     28  C   UNL     1      34.320 -18.932 -23.100  0.00  0.00    +0.257 C 
ENDBRANCH  25  27
ENDBRANCH  15  24
ENDBRANCH   7  14
BRANCH   2  29
ATOM     29  C   UNL     1      31.897 -24.513 -13.928  0.00  0.00    +0.146 C 
BRANCH  29  31
ATOM     30  F   UNL     1      30.173 -26.170 -15.450  0.00  0.00    -0.204 F 
ATOM     31  C   UNL     1      30.578 -24.039 -14.485  0.00  0.00    +0.027 C 
ATOM     32  C   UNL     1      29.778 -24.909 -15.226  0.00  0.00    +0.138 C 
ATOM     33  C   UNL     1      30.157 -22.728 -14.258  0.00  0.00    -0.000 C 
ATOM     34  C   UNL     1      28.558 -24.468 -15.740  0.00  0.00    +0.029 C 
ATOM     35  C   UNL     1      28.937 -22.287 -14.772  0.00  0.00    -0.000 C 
ATOM     36  C   UNL     1      28.138 -23.157 -15.513  0.00  0.00    +0.002 C 
ENDBRANCH  29  31
ENDBRANCH   2  29
TORSDOF 5
ENDMDL
MODEL 4
REMARK VINA RESULT:     -11.1      1.145      2.227
REMARK  Name = 54674461
REMARK  5 active torsions:
REMARK  status: ('A' for Active; 'I' for Inactive)
REMARK    1  A    between atoms: N_2  and  C_29
REMARK    2  A    between atoms: C_7  and  C_14
REMARK    3  A    between atoms: C_15  and  N_21
REMARK    4  A    between atoms: C_22  and  O_24
REMARK    5  A    between atoms: C_29  and  C_31
REMARK                            x       y       z     vdW  Elec       q    Type
REMARK                         _______ _______ _______ _____ _____    ______ ____
ROOT
ATOM      1  F   UNL     1      28.992 -23.782 -15.353  0.00  0.00    -0.207 F 
ATOM      2  N   UNL     1      34.213 -24.029 -14.112  0.00  0.00    -0.193 N 
ATOM      3  N   UNL     1      34.858 -23.432 -15.129  0.00  0.00    -0.168 NA
ATOM      4  N   UNL     1      31.967 -24.588 -13.407  0.00  0.00    -0.251 NA
ATOM      5  C   UNL     1      32.595 -23.429 -15.471  0.00  0.00    +0.133 C 
ATOM      6  C   UNL     1      32.857 -24.057 -14.263  0.00  0.00    +0.133 C 
ATOM      7  C   UNL     1      33.869 -23.068 -15.953  0.00  0.00    +0.172 C 
ATOM      8  C   UNL     1      31.260 -23.319 -15.877  0.00  0.00    +0.015 C 
ATOM      9  C   UNL     1      30.289 -23.852 -15.029  0.00  0.00    +0.139 C 
ATOM     10  C   UNL     1      30.691 -24.457 -13.843  0.00  0.00    +0.182 C 
ENDROOT
BRANCH   7  14
ATOM     11  N   UNL     1      35.472 -22.239 -17.491  0.00  0.00    -0.326 NA
ATOM     12  N   UNL     1      33.115 -21.953 -17.905  0.00  0.00    -0.326 NA
ATOM     13  N   UNL     1      37.069 -21.408 -19.031  0.00  0.00    -0.334 N 
ATOM     14  C   UNL     1      34.169 -22.382 -17.185  0.00  0.00    +0.156 C 
ATOM     15  C   UNL     1      34.727 -21.102 -19.478  0.00  0.00    +0.210 C 
ATOM     16  C   UNL     1      35.716 -21.591 -18.649  0.00  0.00    +0.193 C 
ATOM     17  C   UNL     1      33.432 -21.314 -19.051  0.00  0.00    +0.193 C 
ATOM     18  H   UNL     1      37.792 -21.749 -18.456  0.00  0.00    +0.144 HD
ATOM     19  H   UNL     1      37.285 -20.942 -19.870  0.00  0.00    +0.144 HD
ATOM     20  N   UNL     1      32.367 -20.835 -19.854  0.00  0.00    -0.334 N 
ATOM     21  H   UNL     1      31.435 -20.974 -19.570  0.00  0.00    +0.144 HD
ATOM     22  H   UNL     1      32.560 -20.362 -20.696  0.00  0.00    +0.144 HD
BRANCH  15  24
ATOM     23  O   UNL     1      36.224 -18.545 -19.980  0.00  0.00    -0.226 OA
ATOM     24  N   UNL     1      35.017 -20.433 -20.669  0.00  0.00    -0.258 N 
ATOM     25  C   UNL     1      35.718 -19.245 -20.849  0.00  0.00    +0.402 C 
ATOM     26  H   UNL     1      34.681 -20.859 -21.491  0.00  0.00    +0.154 HD
BRANCH  25  27
ATOM     27  O   UNL     1      35.770 -18.949 -22.184  0.00  0.00    -0.431 OA
ATOM     28  C   UNL     1      34.527 -19.020 -22.893  0.00  0.00    +0.257 C 
ENDBRANCH  25  27
ENDBRANCH  15  24
ENDBRANCH   7  14
BRANCH   2  29
ATOM     29  C   UNL     1      34.970 -24.564 -13.005  0.00  0.00    +0.146 C 
BRANCH  29  31
ATOM     30  F   UNL     1      37.335 -23.144 -12.352  0.00  0.00    -0.204 F 
ATOM     31  C   UNL     1      36.348 -25.035 -13.396  0.00  0.00    +0.027 C 
ATOM     32  C   UNL     1      37.471 -24.285 -13.042  0.00  0.00    +0.138 C 
ATOM     33  C   UNL     1      36.501 -26.221 -14.114  0.00  0.00    -0.000 C 
ATOM     34  C   UNL     1      38.745 -24.723 -13.405  0.00  0.00    +0.029 C 
ATOM     35  C   UNL     1      37.775 -26.658 -14.477  0.00  0.00    -0.000 C 
ATOM     36  C   UNL     1      38.897 -25.909 -14.124  0.00  0.00    +0.002 C 
ENDBRANCH  29  31
ENDBRANCH   2  29
TORSDOF 5
ENDMDL
MODEL 5
REMARK VINA RESULT:     -10.9      3.909      7.565
REMARK  Name = 54674461
REMARK  5 active torsions:
REMARK  status: ('A' for Active; 'I' for Inactive)
REMARK    1  A    between atoms: N_2  and  C_29
REMARK    2  A    between atoms: C_7  and  C_14
REMARK    3  A    between atoms: C_15  and  N_21
REMARK    4  A    between atoms: C_22  and  O_24
REMARK    5  A    between atoms: C_29  and  C_31
REMARK                            x       y       z     vdW  Elec       q    Type
REMARK                         _______ _______ _______ _____ _____    ______ ____
ROOT
ATOM      1  F   UNL     1      30.787 -23.798 -12.056  0.00  0.00    -0.207 F 
ATOM      2  N   UNL     1      33.074 -22.842 -16.822  0.00  0.00    -0.193 N 
ATOM      3  N   UNL     1      34.363 -23.201 -16.686  0.00  0.00    -0.168 NA
ATOM      4  N   UNL     1      31.026 -22.748 -15.538  0.00  0.00    -0.251 NA
ATOM      5  C   UNL     1      33.204 -23.536 -14.742  0.00  0.00    +0.133 C 
ATOM      6  C   UNL     1      32.334 -23.021 -15.690  0.00  0.00    +0.133 C 
ATOM      7  C   UNL     1      34.437 -23.623 -15.419  0.00  0.00    +0.172 C 
ATOM      8  C   UNL     1      32.695 -23.816 -13.468  0.00  0.00    +0.015 C 
ATOM      9  C   UNL     1      31.342 -23.554 -13.249  0.00  0.00    +0.139 C 
ATOM     10  C   UNL     1      30.580 -23.035 -14.292  0.00  0.00    +0.182 C 
ENDROOT
BRANCH   7  14
ATOM     11  N   UNL     1      36.806 -23.540 -15.385  0.00  0.00    -0.326 NA
ATOM     12  N   UNL     1      35.613 -25.058 -13.944  0.00  0.00    -0.326 NA
ATOM     13  N   UNL     1      39.173 -23.460 -15.347  0.00  0.00    -0.334 N 
ATOM     14  C   UNL     1      35.688 -24.100 -14.886  0.00  0.00    +0.156 C 
ATOM     15  C   UNL     1      38.019 -24.990 -13.896  0.00  0.00    +0.210 C 
ATOM     16  C   UNL     1      37.959 -24.010 -14.866  0.00  0.00    +0.193 C 
ATOM     17  C   UNL     1      36.803 -25.483 -13.469  0.00  0.00    +0.193 C 
ATOM     18  H   UNL     1      39.155 -22.760 -16.039  0.00  0.00    +0.144 HD
ATOM     19  H   UNL     1      40.033 -23.778 -14.990  0.00  0.00    +0.144 HD
ATOM     20  N   UNL     1      36.793 -26.494 -12.475  0.00  0.00    -0.334 N 
ATOM     21  H   UNL     1      35.937 -26.860 -12.155  0.00  0.00    +0.144 HD
ATOM     22  H   UNL     1      37.642 -26.829 -12.106  0.00  0.00    +0.144 HD
BRANCH  15  24
ATOM     23  O   UNL     1      40.456 -26.068 -15.286  0.00  0.00    -0.226 OA
ATOM     24  N   UNL     1      39.232 -25.456 -13.383  0.00  0.00    -0.258 N 
ATOM     25  C   UNL     1      40.335 -25.947 -14.073  0.00  0.00    +0.402 C 
ATOM     26  H   UNL     1      39.317 -25.434 -12.402  0.00  0.00    +0.154 HD
BRANCH  25  27
ATOM     27  O   UNL     1      41.311 -26.294 -13.178  0.00  0.00    -0.431 OA
ATOM     28  C   UNL     1      41.763 -27.652 -13.235  0.00  0.00    +0.257 C 
ENDBRANCH  25  27
ENDBRANCH  15  24
ENDBRANCH   7  14
BRANCH   2  29
ATOM     29  C   UNL     1      32.609 -22.324 -18.087  0.00  0.00    +0.146 C 
BRANCH  29  31
ATOM     30  F   UNL     1      32.040 -20.102 -19.751  0.00  0.00    -0.204 F 
ATOM     31  C   UNL     1      33.671 -21.575 -18.852  0.00  0.00    +0.027 C 
ATOM     32  C   UNL     1      33.320 -20.488 -19.654  0.00  0.00    +0.138 C 
ATOM     33  C   UNL     1      35.006 -21.969 -18.758  0.00  0.00    -0.000 C 
ATOM     34  C   UNL     1      34.304 -19.796 -20.360  0.00  0.00    +0.029 C 
ATOM     35  C   UNL     1      35.990 -21.277 -19.465  0.00  0.00    -0.000 C 
ATOM     36  C   UNL     1      35.639 -20.191 -20.267  0.00  0.00    +0.002 C 
ENDBRANCH  29  31
ENDBRANCH   2  29
TORSDOF 5
ENDMDL
MODEL 6
REMARK VINA RESULT:      -9.5     10.769     15.748
REMARK  Name = 54674461
REMARK  5 active torsions:
REMARK  status: ('A' for Active; 'I' for Inactive)
REMARK    1  A    between atoms: N_2  and  C_29
REMARK    2  A    between atoms: C_7  and  C_14
REMARK    3  A    between atoms: C_15  and  N_21
REMARK    4  A    between atoms: C_22  and  O_24
REMARK    5  A    between atoms: C_29  and  C_31
REMARK                            x       y       z     vdW  Elec       q    Type
REMARK                         _______ _______ _______ _____ _____    ______ ____
ROOT
ATOM      1  F   UNL     1      30.476  -9.595 -18.653  0.00  0.00    -0.207 F 
ATOM      2  N   UNL     1      33.763  -7.703 -22.457  0.00  0.00    -0.193 N 
ATOM      3  N   UNL     1      34.053  -8.755 -23.244  0.00  0.00    -0.168 NA
ATOM      4  N   UNL     1      32.472  -7.158 -20.485  0.00  0.00    -0.251 NA
ATOM      5  C   UNL     1      32.648  -9.360 -21.542  0.00  0.00    +0.133 C 
ATOM      6  C   UNL     1      32.927  -8.008 -21.423  0.00  0.00    +0.133 C 
ATOM      7  C   UNL     1      33.372  -9.760 -22.683  0.00  0.00    +0.172 C 
ATOM      8  C   UNL     1      31.798  -9.941 -20.593  0.00  0.00    +0.015 C 
ATOM      9  C   UNL     1      31.294  -9.109 -19.593  0.00  0.00    +0.139 C 
ATOM     10  C   UNL     1      31.656  -7.765 -19.591  0.00  0.00    +0.182 C 
ENDROOT
BRANCH   7  14
ATOM     11  N   UNL     1      33.450 -12.112 -22.387  0.00  0.00    -0.326 NA
ATOM     12  N   UNL     1      33.461 -11.155 -24.598  0.00  0.00    -0.326 NA
ATOM     13  N   UNL     1      33.528 -14.461 -22.096  0.00  0.00    -0.334 N 
ATOM     14  C   UNL     1      33.430 -11.082 -23.254  0.00  0.00    +0.156 C 
ATOM     15  C   UNL     1      33.543 -13.544 -24.318  0.00  0.00    +0.210 C 
ATOM     16  C   UNL     1      33.506 -13.334 -22.955  0.00  0.00    +0.193 C 
ATOM     17  C   UNL     1      33.518 -12.407 -25.099  0.00  0.00    +0.193 C 
ATOM     18  H   UNL     1      33.503 -14.335 -21.120  0.00  0.00    +0.144 HD
ATOM     19  H   UNL     1      33.568 -15.368 -22.475  0.00  0.00    +0.144 HD
ATOM     20  N   UNL     1      33.555 -12.552 -26.509  0.00  0.00    -0.334 N 
ATOM     21  H   UNL     1      33.538 -11.754 -27.086  0.00  0.00    +0.144 HD
ATOM     22  H   UNL     1      33.598 -13.450 -26.910  0.00  0.00    +0.144 HD
BRANCH  15  24
ATOM     23  O   UNL     1      35.466 -15.803 -23.835  0.00  0.00    -0.226 OA
ATOM     24  N   UNL     1      33.605 -14.825 -24.872  0.00  0.00    -0.258 N 
ATOM     25  C   UNL     1      34.521 -15.840 -24.613  0.00  0.00    +0.402 C 
ATOM     26  H   UNL     1      32.907 -15.038 -25.534  0.00  0.00    +0.154 HD
BRANCH  25  27
ATOM     27  O   UNL     1      34.212 -16.933 -25.376  0.00  0.00    -0.431 OA
ATOM     28  C   UNL     1      33.869 -18.125 -24.658  0.00  0.00    +0.257 C 
ENDBRANCH  25  27
ENDBRANCH  15  24
ENDBRANCH   7  14
BRANCH   2  29
ATOM     29  C   UNL     1      34.333  -6.411 -22.757  0.00  0.00    +0.146 C 
BRANCH  29  31
ATOM     30  F   UNL     1      34.957  -5.940 -25.482  0.00  0.00    -0.204 F 
ATOM     31  C   UNL     1      33.469  -5.575 -23.668  0.00  0.00    +0.027 C 
ATOM     32  C   UNL     1      33.837  -5.384 -25.000  0.00  0.00    +0.138 C 
ATOM     33  C   UNL     1      32.301  -4.992 -23.177  0.00  0.00    -0.000 C 
ATOM     34  C   UNL     1      33.036  -4.610 -25.840  0.00  0.00    +0.029 C 
ATOM     35  C   UNL     1      31.501  -4.217 -24.017  0.00  0.00    -0.000 C 
ATOM     36  C   UNL     1      31.868  -4.026 -25.349  0.00  0.00    +0.002 C 
ENDBRANCH  29  31
ENDBRANCH   2  29
TORSDOF 5
ENDMDL
MODEL 7
REMARK VINA RESULT:      -9.5     10.780     15.748
REMARK  Name = 54674461
REMARK  5 active torsions:
REMARK  status: ('A' for Active; 'I' for Inactive)
REMARK    1  A    between atoms: N_2  and  C_29
REMARK    2  A    between atoms: C_7  and  C_14
REMARK    3  A    between atoms: C_15  and  N_21
REMARK    4  A    between atoms: C_22  and  O_24
REMARK    5  A    between atoms: C_29  and  C_31
REMARK                            x       y       z     vdW  Elec       q    Type
REMARK                         _______ _______ _______ _____ _____    ______ ____
ROOT
ATOM      1  F   UNL     1      30.448  -9.586 -18.667  0.00  0.00    -0.207 F 
ATOM      2  N   UNL     1      33.761  -7.690 -22.447  0.00  0.00    -0.193 N 
ATOM      3  N   UNL     1      34.054  -8.741 -23.234  0.00  0.00    -0.168 NA
ATOM      4  N   UNL     1      32.458  -7.148 -20.482  0.00  0.00    -0.251 NA
ATOM      5  C   UNL     1      32.637  -9.347 -21.543  0.00  0.00    +0.133 C 
ATOM      6  C   UNL     1      32.918  -7.996 -21.419  0.00  0.00    +0.133 C 
ATOM      7  C   UNL     1      33.368  -9.746 -22.680  0.00  0.00    +0.172 C 
ATOM      8  C   UNL     1      31.782  -9.929 -20.600  0.00  0.00    +0.015 C 
ATOM      9  C   UNL     1      31.272  -9.098 -19.602  0.00  0.00    +0.139 C 
ATOM     10  C   UNL     1      31.636  -7.755 -19.594  0.00  0.00    +0.182 C 
ENDROOT
BRANCH   7  14
ATOM     11  N   UNL     1      33.468 -11.137 -24.598  0.00  0.00    -0.326 NA
ATOM     12  N   UNL     1      33.438 -12.098 -22.388  0.00  0.00    -0.326 NA
ATOM     13  N   UNL     1      33.568 -12.530 -26.510  0.00  0.00    -0.334 N 
ATOM     14  C   UNL     1      33.428 -11.067 -23.254  0.00  0.00    +0.156 C 
ATOM     15  C   UNL     1      33.538 -13.527 -24.323  0.00  0.00    +0.210 C 
ATOM     16  C   UNL     1      33.523 -12.387 -25.101  0.00  0.00    +0.193 C 
ATOM     17  C   UNL     1      33.493 -13.320 -22.959  0.00  0.00    +0.193 C 
ATOM     18  H   UNL     1      33.558 -11.732 -27.086  0.00  0.00    +0.144 HD
ATOM     19  H   UNL     1      33.610 -13.427 -26.913  0.00  0.00    +0.144 HD
ATOM     20  N   UNL     1      33.504 -14.448 -22.102  0.00  0.00    -0.334 N 
ATOM     21  H   UNL     1      33.473 -14.324 -21.126  0.00  0.00    +0.144 HD
ATOM     22  H   UNL     1      33.543 -15.355 -22.483  0.00  0.00    +0.144 HD
BRANCH  15  24
ATOM     23  O   UNL     1      35.429 -15.807 -23.820  0.00  0.00    -0.226 OA
ATOM     24  N   UNL     1      33.592 -14.807 -24.879  0.00  0.00    -0.258 N 
ATOM     25  C   UNL     1      34.493 -15.833 -24.610  0.00  0.00    +0.402 C 
ATOM     26  H   UNL     1      32.900 -15.012 -25.549  0.00  0.00    +0.154 HD
BRANCH  25  27
ATOM     27  O   UNL     1      34.181 -16.921 -25.379  0.00  0.00    -0.431 OA
ATOM     28  C   UNL     1      33.850 -18.120 -24.667  0.00  0.00    +0.257 C 
ENDBRANCH  25  27
ENDBRANCH  15  24
ENDBRANCH   7  14
BRANCH   2  29
ATOM     29  C   UNL     1      34.334  -6.398 -22.741  0.00  0.00    +0.146 C 
BRANCH  29  31
ATOM     30  F   UNL     1      34.963  -5.956 -25.469  0.00  0.00    -0.204 F 
ATOM     31  C   UNL     1      33.479  -5.560 -23.658  0.00  0.00    +0.027 C 
ATOM     32  C   UNL     1      33.848  -5.384 -24.992  0.00  0.00    +0.138 C 
ATOM     33  C   UNL     1      32.317  -4.961 -23.172  0.00  0.00    -0.000 C 
ATOM     34  C   UNL     1      33.056  -4.609 -25.839  0.00  0.00    +0.029 C 
ATOM     35  C   UNL     1      31.524  -4.186 -24.019  0.00  0.00    -0.000 C 
ATOM     36  C   UNL     1      31.894  -4.009 -25.352  0.00  0.00    +0.002 C 
ENDBRANCH  29  31
ENDBRANCH   2  29
TORSDOF 5
ENDMDL
MODEL 8
REMARK VINA RESULT:      -9.2      8.996     13.997
REMARK  Name = 54674461
REMARK  5 active torsions:
REMARK  status: ('A' for Active; 'I' for Inactive)
REMARK    1  A    between atoms: N_2  and  C_29
REMARK    2  A    between atoms: C_7  and  C_14
REMARK    3  A    between atoms: C_15  and  N_21
REMARK    4  A    between atoms: C_22  and  O_24
REMARK    5  A    between atoms: C_29  and  C_31
REMARK                            x       y       z     vdW  Elec       q    Type
REMARK                         _______ _______ _______ _____ _____    ______ ____
ROOT
ATOM      1  F   UNL     1      35.920  -9.786 -25.947  0.00  0.00    -0.207 F 
ATOM      2  N   UNL     1      32.330 -10.549 -22.025  0.00  0.00    -0.193 N 
ATOM      3  N   UNL     1      32.530 -11.805 -21.588  0.00  0.00    -0.168 NA
ATOM      4  N   UNL     1      33.194  -8.992 -23.663  0.00  0.00    -0.251 NA
ATOM      5  C   UNL     1      33.978 -11.280 -23.279  0.00  0.00    +0.133 C 
ATOM      6  C   UNL     1      33.168 -10.182 -23.037  0.00  0.00    +0.133 C 
ATOM      7  C   UNL     1      33.534 -12.245 -22.354  0.00  0.00    +0.172 C 
ATOM      8  C   UNL     1      34.945 -11.173 -24.286  0.00  0.00    +0.015 C 
ATOM      9  C   UNL     1      35.020  -9.960 -24.973  0.00  0.00    +0.139 C 
ATOM     10  C   UNL     1      34.144  -8.937 -24.627  0.00  0.00    +0.182 C 
ENDROOT
BRANCH   7  14
ATOM     11  N   UNL     1      34.185 -14.012 -20.912  0.00  0.00    -0.326 NA
ATOM     12  N   UNL     1      34.330 -14.266 -23.304  0.00  0.00    -0.326 NA
ATOM     13  N   UNL     1      34.836 -15.780 -19.477  0.00  0.00    -0.334 N 
ATOM     14  C   UNL     1      34.044 -13.582 -22.181  0.00  0.00    +0.156 C 
ATOM     15  C   UNL     1      34.998 -16.070 -21.858  0.00  0.00    +0.210 C 
ATOM     16  C   UNL     1      34.666 -15.266 -20.787  0.00  0.00    +0.193 C 
ATOM     17  C   UNL     1      34.808 -15.513 -23.106  0.00  0.00    +0.193 C 
ATOM     18  H   UNL     1      34.606 -15.224 -18.697  0.00  0.00    +0.144 HD
ATOM     19  H   UNL     1      35.183 -16.691 -19.347  0.00  0.00    +0.144 HD
ATOM     20  N   UNL     1      35.131 -16.284 -24.249  0.00  0.00    -0.334 N 
ATOM     21  H   UNL     1      35.003 -15.907 -25.149  0.00  0.00    +0.144 HD
ATOM     22  H   UNL     1      35.483 -17.198 -24.143  0.00  0.00    +0.144 HD
BRANCH  15  24
ATOM     23  O   UNL     1      33.953 -18.718 -22.820  0.00  0.00    -0.226 OA
ATOM     24  N   UNL     1      35.497 -17.364 -21.690  0.00  0.00    -0.258 N 
ATOM     25  C   UNL     1      34.972 -18.564 -22.159  0.00  0.00    +0.402 C 
ATOM     26  H   UNL     1      36.332 -17.437 -21.172  0.00  0.00    +0.154 HD
BRANCH  25  27
ATOM     27  O   UNL     1      35.782 -19.596 -21.767  0.00  0.00    -0.431 OA
ATOM     28  C   UNL     1      35.663 -20.003 -20.399  0.00  0.00    +0.257 C 
ENDBRANCH  25  27
ENDBRANCH  15  24
ENDBRANCH   7  14
BRANCH   2  29
ATOM     29  C   UNL     1      31.299  -9.740 -21.419  0.00  0.00    +0.146 C 
BRANCH  29  31
ATOM     30  F   UNL     1      30.220  -7.499 -22.779  0.00  0.00    -0.204 F 
ATOM     31  C   UNL     1      31.736  -8.322 -21.146  0.00  0.00    +0.027 C 
ATOM     32  C   UNL     1      31.162  -7.265 -21.854  0.00  0.00    +0.138 C 
ATOM     33  C   UNL     1      32.714  -8.068 -20.186  0.00  0.00    -0.000 C 
ATOM     34  C   UNL     1      31.566  -5.955 -21.599  0.00  0.00    +0.029 C 
ATOM     35  C   UNL     1      33.120  -6.757 -19.932  0.00  0.00    -0.000 C 
ATOM     36  C   UNL     1      32.546  -5.701 -20.639  0.00  0.00    +0.002 C 
ENDBRANCH  29  31
ENDBRANCH   2  29
TORSDOF 5
ENDMDL
MODEL 9
REMARK VINA RESULT:      -9.2      2.171      4.722
REMARK  Name = 54674461
REMARK  5 active torsions:
REMARK  status: ('A' for Active; 'I' for Inactive)
REMARK    1  A    between atoms: N_2  and  C_29
REMARK    2  A    between atoms: C_7  and  C_14
REMARK    3  A    between atoms: C_15  and  N_21
REMARK    4  A    between atoms: C_22  and  O_24
REMARK    5  A    between atoms: C_29  and  C_31
REMARK                            x       y       z     vdW  Elec       q    Type
REMARK                         _______ _______ _______ _____ _____    ______ ____
ROOT
ATOM      1  F   UNL     1      38.581 -22.428 -15.541  0.00  0.00    -0.207 F 
ATOM      2  N   UNL     1      33.376 -23.505 -16.318  0.00  0.00    -0.193 N 
ATOM      3  N   UNL     1      33.010 -22.779 -17.389  0.00  0.00    -0.168 NA
ATOM      4  N   UNL     1      35.323 -23.950 -14.952  0.00  0.00    -0.251 NA
ATOM      5  C   UNL     1      35.219 -22.456 -16.889  0.00  0.00    +0.133 C 
ATOM      6  C   UNL     1      34.687 -23.350 -15.974  0.00  0.00    +0.133 C 
ATOM      7  C   UNL     1      34.135 -22.143 -17.733  0.00  0.00    +0.172 C 
ATOM      8  C   UNL     1      36.571 -22.115 -16.764  0.00  0.00    +0.015 C 
ATOM      9  C   UNL     1      37.285 -22.707 -15.721  0.00  0.00    +0.139 C 
ATOM     10  C   UNL     1      36.626 -23.590 -14.872  0.00  0.00    +0.182 C 
ENDROOT
BRANCH   7  14
ATOM     11  N   UNL     1      32.967 -21.056 -19.487  0.00  0.00    -0.326 NA
ATOM     12  N   UNL     1      35.330 -20.696 -19.183  0.00  0.00    -0.326 NA
ATOM     13  N   UNL     1      31.805 -19.968 -21.241  0.00  0.00    -0.334 N 
ATOM     14  C   UNL     1      34.145 -21.248 -18.863  0.00  0.00    +0.156 C 
ATOM     15  C   UNL     1      34.162 -19.585 -20.971  0.00  0.00    +0.210 C 
ATOM     16  C   UNL     1      33.012 -20.215 -20.541  0.00  0.00    +0.193 C 
ATOM     17  C   UNL     1      35.303 -19.866 -20.246  0.00  0.00    +0.193 C 
ATOM     18  H   UNL     1      30.971 -20.406 -20.953  0.00  0.00    +0.144 HD
ATOM     19  H   UNL     1      31.799 -19.359 -22.014  0.00  0.00    +0.144 HD
ATOM     20  N   UNL     1      36.521 -19.253 -20.635  0.00  0.00    -0.334 N 
ATOM     21  H   UNL     1      37.347 -19.439 -20.134  0.00  0.00    +0.144 HD
ATOM     22  H   UNL     1      36.539 -18.643 -21.408  0.00  0.00    +0.144 HD
BRANCH  15  24
ATOM     23  O   UNL     1      34.827 -20.089 -23.858  0.00  0.00    -0.226 OA
ATOM     24  N   UNL     1      34.173 -18.722 -22.069  0.00  0.00    -0.258 N 
ATOM     25  C   UNL     1      34.490 -19.007 -23.393  0.00  0.00    +0.402 C 
ATOM     26  H   UNL     1      33.923 -17.788 -21.881  0.00  0.00    +0.154 HD
BRANCH  25  27
ATOM     27  O   UNL     1      34.370 -17.867 -24.142  0.00  0.00    -0.431 OA
ATOM     28  C   UNL     1      34.818 -16.657 -23.520  0.00  0.00    +0.257 C 
ENDBRANCH  25  27
ENDBRANCH  15  24
ENDBRANCH   7  14
BRANCH   2  29
ATOM     29  C   UNL     1      32.401 -24.341 -15.658  0.00  0.00    +0.146 C 
BRANCH  29  31
ATOM     30  F   UNL     1      31.939 -22.447 -13.601  0.00  0.00    -0.204 F 
ATOM     31  C   UNL     1      31.073 -23.659 -15.450  0.00  0.00    +0.027 C 
ATOM     32  C   UNL     1      30.915 -22.735 -14.416  0.00  0.00    +0.138 C 
ATOM     33  C   UNL     1      30.000 -23.952 -16.293  0.00  0.00    -0.000 C 
ATOM     34  C   UNL     1      29.685 -22.105 -14.226  0.00  0.00    +0.029 C 
ATOM     35  C   UNL     1      28.770 -23.322 -16.102  0.00  0.00    -0.000 C 
ATOM     36  C   UNL     1      28.612 -22.399 -15.068  0.00  0.00    +0.002 C 
ENDBRANCH  29  31
ENDBRANCH   2  29
TORSDOF 5
ENDMDL
