MODEL 1
REMARK VINA RESULT:     -12.7      0.000      0.000
REMARK  Name = 9826451
REMARK  9 active torsions:
REMARK  status: ('A' for Active; 'I' for Inactive)
REMARK    1  A    between atoms: C_1  and  N_2
REMARK    2  A    between atoms: C_1  and  C_19
REMARK    3  A    between atoms: C_8  and  O_10
REMARK    4  A    between atoms: O_10  and  C_11
REMARK    5  A    between atoms: C_14  and  O_17
REMARK    6  A    between atoms: C_19  and  O_20
REMARK    7  A    between atoms: O_20  and  C_24
REMARK    8  A    between atoms: C_21  and  C_27
REMARK    9  A    between atoms: C_27  and  C_32
REMARK                            x       y       z     vdW  Elec       q    Type
REMARK                         _______ _______ _______ _____ _____    ______ ____
ROOT
ATOM      1  C   UNL     1      36.124 -21.978 -17.293  0.00  0.00    +0.139 C 
ENDROOT
BRANCH   1   2
ATOM      2  N   UNL     1      34.970 -22.568 -16.658  0.00  0.00    -0.291 N 
ATOM      3  C   UNL     1      33.750 -22.743 -17.447  0.00  0.00    +0.113 C 
ATOM      4  N   UNL     1      36.134 -22.787 -14.607  0.00  0.00    -0.233 NA
ATOM      5  N   UNL     1      35.013 -23.731 -12.694  0.00  0.00    -0.214 NA
ATOM      6  C   UNL     1      34.996 -22.959 -15.313  0.00  0.00    +0.115 C 
ATOM      7  C   UNL     1      33.842 -23.502 -14.785  0.00  0.00    +0.146 C 
ATOM      8  C   UNL     1      33.910 -23.874 -13.457  0.00  0.00    +0.210 C 
ATOM      9  C   UNL     1      36.073 -23.189 -13.323  0.00  0.00    +0.254 C 
BRANCH   8  10
ATOM     10  O   UNL     1      32.805 -24.421 -12.860  0.00  0.00    -0.440 OA
BRANCH  10  11
ATOM     11  C   UNL     1      31.588 -24.232 -13.483  0.00  0.00    +0.147 C 
ATOM     12  C   UNL     1      31.150 -22.942 -13.783  0.00  0.00    +0.041 C 
ATOM     13  C   UNL     1      30.795 -25.332 -13.813  0.00  0.00    +0.041 C 
ATOM     14  C   UNL     1      29.128 -23.850 -14.742  0.00  0.00    +0.139 C 
ATOM     15  C   UNL     1      29.921 -22.751 -14.412  0.00  0.00    +0.040 C 
ATOM     16  C   UNL     1      29.566 -25.141 -14.443  0.00  0.00    +0.040 C 
BRANCH  14  17
ATOM     17  O   UNL     1      27.928 -23.664 -15.357  0.00  0.00    -0.471 OA
ATOM     18  C   UNL     1      27.907 -22.802 -16.494  0.00  0.00    +0.252 C 
ENDBRANCH  14  17
ENDBRANCH  10  11
ENDBRANCH   8  10
ENDBRANCH   1   2
BRANCH   1  19
ATOM     19  C   UNL     1      35.801 -21.626 -18.736  0.00  0.00    +0.227 C 
BRANCH  19  20
ATOM     20  O   UNL     1      36.395 -20.371 -19.062  0.00  0.00    -0.474 OA
BRANCH  20  24
ATOM     21  C   UNL     1      35.013 -18.455 -22.475  0.00  0.00    -0.021 C 
ATOM     22  C   UNL     1      34.159 -19.283 -21.746  0.00  0.00    -0.001 C 
ATOM     23  C   UNL     1      36.331 -18.271 -22.057  0.00  0.00    -0.001 C 
ATOM     24  C   UNL     1      35.941 -19.743 -20.182  0.00  0.00    +0.139 C 
ATOM     25  C   UNL     1      34.623 -19.927 -20.600  0.00  0.00    +0.037 C 
ATOM     26  C   UNL     1      36.795 -18.915 -20.911  0.00  0.00    +0.037 C 
BRANCH  21  27
ATOM     27  C   UNL     1      34.511 -17.759 -23.714  0.00  0.00    +0.047 C 
BRANCH  27  32
ATOM     28  S   UNL     1      34.845 -15.530 -22.131  0.00  0.00    -0.048 S 
ATOM     29  O   UNL     1      33.870 -15.760 -25.858  0.00  0.00    -0.274 OA
ATOM     30  O   UNL     1      33.389 -13.350 -21.949  0.00  0.00    -0.263 OA
ATOM     31  N   UNL     1      33.519 -14.416 -24.008  0.00  0.00    -0.246 N 
ATOM     32  C   UNL     1      34.958 -16.310 -23.771  0.00  0.00    +0.137 C 
ATOM     33  C   UNL     1      34.067 -15.491 -24.678  0.00  0.00    +0.239 C 
ATOM     34  C   UNL     1      33.794 -14.242 -22.678  0.00  0.00    +0.279 C 
ATOM     35  H   UNL     1      32.935 -13.781 -24.483  0.00  0.00    +0.158 HD
ENDBRANCH  27  32
ENDBRANCH  21  27
ENDBRANCH  20  24
ENDBRANCH  19  20
ENDBRANCH   1  19
TORSDOF 9
ENDMDL
MODEL 2
REMARK VINA RESULT:     -12.3      4.690      9.375
REMARK  Name = 9826451
REMARK  9 active torsions:
REMARK  status: ('A' for Active; 'I' for Inactive)
REMARK    1  A    between atoms: C_1  and  N_2
REMARK    2  A    between atoms: C_1  and  C_19
REMARK    3  A    between atoms: C_8  and  O_10
REMARK    4  A    between atoms: O_10  and  C_11
REMARK    5  A    between atoms: C_14  and  O_17
REMARK    6  A    between atoms: C_19  and  O_20
REMARK    7  A    between atoms: O_20  and  C_24
REMARK    8  A    between atoms: C_21  and  C_27
REMARK    9  A    between atoms: C_27  and  C_32
REMARK                            x       y       z     vdW  Elec       q    Type
REMARK                         _______ _______ _______ _____ _____    ______ ____
ROOT
ATOM      1  C   UNL     1      33.825 -15.187 -25.143  0.00  0.00    +0.139 C 
ENDROOT
BRANCH   1   2
ATOM      2  N   UNL     1      34.380 -15.686 -23.907  0.00  0.00    -0.291 N 
ATOM      3  C   UNL     1      34.759 -14.724 -22.871  0.00  0.00    +0.113 C 
ATOM      4  N   UNL     1      34.212 -17.924 -24.665  0.00  0.00    -0.233 NA
ATOM      5  N   UNL     1      34.954 -19.723 -23.244  0.00  0.00    -0.214 NA
ATOM      6  C   UNL     1      34.570 -17.057 -23.694  0.00  0.00    +0.115 C 
ATOM      7  C   UNL     1      35.119 -17.443 -22.487  0.00  0.00    +0.146 C 
ATOM      8  C   UNL     1      35.289 -18.803 -22.317  0.00  0.00    +0.210 C 
ATOM      9  C   UNL     1      34.429 -19.221 -24.378  0.00  0.00    +0.254 C 
BRANCH   8  10
ATOM     10  O   UNL     1      35.828 -19.266 -21.145  0.00  0.00    -0.440 OA
BRANCH  10  11
ATOM     11  C   UNL     1      35.032 -20.070 -20.355  0.00  0.00    +0.147 C 
ATOM     12  C   UNL     1      33.649 -19.886 -20.341  0.00  0.00    +0.041 C 
ATOM     13  C   UNL     1      35.610 -21.068 -19.569  0.00  0.00    +0.041 C 
ATOM     14  C   UNL     1      33.424 -21.696 -18.758  0.00  0.00    +0.139 C 
ATOM     15  C   UNL     1      32.845 -20.699 -19.542  0.00  0.00    +0.040 C 
ATOM     16  C   UNL     1      34.806 -21.882 -18.772  0.00  0.00    +0.040 C 
BRANCH  14  17
ATOM     17  O   UNL     1      32.639 -22.491 -17.979  0.00  0.00    -0.471 OA
ATOM     18  C   UNL     1      33.260 -23.122 -16.861  0.00  0.00    +0.252 C 
ENDBRANCH  14  17
ENDBRANCH  10  11
ENDBRANCH   8  10
ENDBRANCH   1   2
BRANCH   1  19
ATOM     19  C   UNL     1      33.101 -13.874 -24.895  0.00  0.00    +0.227 C 
BRANCH  19  20
ATOM     20  O   UNL     1      33.892 -12.795 -25.387  0.00  0.00    -0.474 OA
BRANCH  20  24
ATOM     21  C   UNL     1      33.865  -9.274 -23.190  0.00  0.00    -0.021 C 
ATOM     22  C   UNL     1      33.048 -10.338 -22.811  0.00  0.00    -0.001 C 
ATOM     23  C   UNL     1      34.692  -9.392 -24.308  0.00  0.00    -0.001 C 
ATOM     24  C   UNL     1      33.883 -11.640 -24.667  0.00  0.00    +0.139 C 
ATOM     25  C   UNL     1      33.056 -11.521 -23.549  0.00  0.00    +0.037 C 
ATOM     26  C   UNL     1      34.699 -10.575 -25.046  0.00  0.00    +0.037 C 
BRANCH  21  27
ATOM     27  C   UNL     1      33.855  -7.995 -22.392  0.00  0.00    +0.047 C 
BRANCH  27  32
ATOM     28  S   UNL     1      31.391  -6.919 -22.990  0.00  0.00    -0.048 S 
ATOM     29  O   UNL     1      33.293  -6.958 -19.633  0.00  0.00    -0.274 OA
ATOM     30  O   UNL     1      30.337  -4.613 -22.296  0.00  0.00    -0.263 OA
ATOM     31  N   UNL     1      31.795  -5.648 -20.813  0.00  0.00    -0.246 N 
ATOM     32  C   UNL     1      32.492  -7.718 -21.782  0.00  0.00    +0.137 C 
ATOM     33  C   UNL     1      32.592  -6.757 -20.618  0.00  0.00    +0.239 C 
ATOM     34  C   UNL     1      31.080  -5.528 -21.974  0.00  0.00    +0.279 C 
ATOM     35  H   UNL     1      31.743  -4.948 -20.122  0.00  0.00    +0.158 HD
ENDBRANCH  27  32
ENDBRANCH  21  27
ENDBRANCH  20  24
ENDBRANCH  19  20
ENDBRANCH   1  19
TORSDOF 9
ENDMDL
MODEL 3
REMARK VINA RESULT:     -12.1      5.251     13.517
REMARK  Name = 9826451
REMARK  9 active torsions:
REMARK  status: ('A' for Active; 'I' for Inactive)
REMARK    1  A    between atoms: C_1  and  N_2
REMARK    2  A    between atoms: C_1  and  C_19
REMARK    3  A    between atoms: C_8  and  O_10
REMARK    4  A    between atoms: O_10  and  C_11
REMARK    5  A    between atoms: C_14  and  O_17
REMARK    6  A    between atoms: C_19  and  O_20
REMARK    7  A    between atoms: O_20  and  C_24
REMARK    8  A    between atoms: C_21  and  C_27
REMARK    9  A    between atoms: C_27  and  C_32
REMARK                            x       y       z     vdW  Elec       q    Type
REMARK                         _______ _______ _______ _____ _____    ______ ____
ROOT
ATOM      1  C   UNL     1      33.438 -13.214 -23.278  0.00  0.00    +0.139 C 
ENDROOT
BRANCH   1   2
ATOM      2  N   UNL     1      33.432 -11.780 -23.107  0.00  0.00    -0.291 N 
ATOM      3  C   UNL     1      34.305 -10.971 -23.958  0.00  0.00    +0.113 C 
ATOM      4  N   UNL     1      31.828 -11.932 -21.371  0.00  0.00    -0.233 NA
ATOM      5  N   UNL     1      31.062  -9.928 -20.276  0.00  0.00    -0.214 NA
ATOM      6  C   UNL     1      32.624 -11.163 -22.143  0.00  0.00    +0.115 C 
ATOM      7  C   UNL     1      32.693  -9.788 -22.042  0.00  0.00    +0.146 C 
ATOM      8  C   UNL     1      31.881  -9.219 -21.081  0.00  0.00    +0.210 C 
ATOM      9  C   UNL     1      31.086 -11.259 -20.472  0.00  0.00    +0.254 C 
BRANCH   8  10
ATOM     10  O   UNL     1      31.892  -7.859 -20.918  0.00  0.00    -0.440 OA
BRANCH  10  11
ATOM     11  C   UNL     1      32.019  -7.085 -22.054  0.00  0.00    +0.147 C 
ATOM     12  C   UNL     1      30.951  -6.972 -22.944  0.00  0.00    +0.041 C 
ATOM     13  C   UNL     1      33.215  -6.415 -22.312  0.00  0.00    +0.041 C 
ATOM     14  C   UNL     1      32.275  -5.520 -24.349  0.00  0.00    +0.139 C 
ATOM     15  C   UNL     1      31.079  -6.190 -24.092  0.00  0.00    +0.040 C 
ATOM     16  C   UNL     1      33.343  -5.632 -23.458  0.00  0.00    +0.040 C 
BRANCH  14  17
ATOM     17  O   UNL     1      32.400  -4.756 -25.468  0.00  0.00    -0.471 OA
ATOM     18  C   UNL     1      32.078  -3.371 -25.349  0.00  0.00    +0.252 C 
ENDBRANCH  14  17
ENDBRANCH  10  11
ENDBRANCH   8  10
ENDBRANCH   1   2
BRANCH   1  19
ATOM     19  C   UNL     1      34.475 -13.843 -22.363  0.00  0.00    +0.227 C 
BRANCH  19  20
ATOM     20  O   UNL     1      35.222 -14.816 -23.090  0.00  0.00    -0.474 OA
BRANCH  20  24
ATOM     21  C   UNL     1      34.985 -18.748 -21.782  0.00  0.00    -0.021 C 
ATOM     22  C   UNL     1      34.822 -18.453 -23.135  0.00  0.00    -0.001 C 
ATOM     23  C   UNL     1      35.227 -17.722 -20.868  0.00  0.00    -0.001 C 
ATOM     24  C   UNL     1      35.144 -16.106 -22.661  0.00  0.00    +0.139 C 
ATOM     25  C   UNL     1      34.902 -17.132 -23.575  0.00  0.00    +0.037 C 
ATOM     26  C   UNL     1      35.306 -16.402 -21.308  0.00  0.00    +0.037 C 
BRANCH  21  27
ATOM     27  C   UNL     1      34.899 -20.176 -21.307  0.00  0.00    +0.047 C 
BRANCH  27  32
ATOM     28  S   UNL     1      35.439 -21.512 -18.960  0.00  0.00    -0.048 S 
ATOM     29  O   UNL     1      32.085 -20.123 -20.268  0.00  0.00    -0.274 OA
ATOM     30  O   UNL     1      34.105 -23.432 -17.760  0.00  0.00    -0.263 OA
ATOM     31  N   UNL     1      32.908 -21.849 -18.966  0.00  0.00    -0.246 N 
ATOM     32  C   UNL     1      34.462 -20.266 -19.856  0.00  0.00    +0.137 C 
ATOM     33  C   UNL     1      33.021 -20.712 -19.739  0.00  0.00    +0.239 C 
ATOM     34  C   UNL     1      34.038 -22.431 -18.455  0.00  0.00    +0.279 C 
ATOM     35  H   UNL     1      32.022 -22.238 -18.784  0.00  0.00    +0.158 HD
ENDBRANCH  27  32
ENDBRANCH  21  27
ENDBRANCH  20  24
ENDBRANCH  19  20
ENDBRANCH   1  19
TORSDOF 9
ENDMDL
MODEL 4
REMARK VINA RESULT:     -12.0      2.504      4.951
REMARK  Name = 9826451
REMARK  9 active torsions:
REMARK  status: ('A' for Active; 'I' for Inactive)
REMARK    1  A    between atoms: C_1  and  N_2
REMARK    2  A    between atoms: C_1  and  C_19
REMARK    3  A    between atoms: C_8  and  O_10
REMARK    4  A    between atoms: O_10  and  C_11
REMARK    5  A    between atoms: C_14  and  O_17
REMARK    6  A    between atoms: C_19  and  O_20
REMARK    7  A    between atoms: O_20  and  C_24
REMARK    8  A    between atoms: C_21  and  C_27
REMARK    9  A    between atoms: C_27  and  C_32
REMARK                            x       y       z     vdW  Elec       q    Type
REMARK                         _______ _______ _______ _____ _____    ______ ____
ROOT
ATOM      1  C   UNL     1      33.507 -21.987 -19.181  0.00  0.00    +0.139 C 
ENDROOT
BRANCH   1   2
ATOM      2  N   UNL     1      34.292 -22.271 -18.003  0.00  0.00    -0.291 N 
ATOM      3  C   UNL     1      35.735 -22.030 -18.050  0.00  0.00    +0.113 C 
ATOM      4  N   UNL     1      32.371 -22.991 -16.820  0.00  0.00    -0.233 NA
ATOM      5  N   UNL     1      32.589 -23.766 -14.549  0.00  0.00    -0.214 NA
ATOM      6  C   UNL     1      33.704 -22.778 -16.837  0.00  0.00    +0.115 C 
ATOM      7  C   UNL     1      34.534 -23.032 -15.764  0.00  0.00    +0.146 C 
ATOM      8  C   UNL     1      33.915 -23.530 -14.635  0.00  0.00    +0.210 C 
ATOM      9  C   UNL     1      31.888 -23.479 -15.662  0.00  0.00    +0.254 C 
BRANCH   8  10
ATOM     10  O   UNL     1      34.671 -23.808 -13.527  0.00  0.00    -0.440 OA
BRANCH  10  11
ATOM     11  C   UNL     1      35.839 -24.519 -13.718  0.00  0.00    +0.147 C 
ATOM     12  C   UNL     1      35.812 -25.740 -14.390  0.00  0.00    +0.041 C 
ATOM     13  C   UNL     1      37.049 -24.013 -13.238  0.00  0.00    +0.041 C 
ATOM     14  C   UNL     1      38.201 -25.952 -14.103  0.00  0.00    +0.139 C 
ATOM     15  C   UNL     1      36.992 -26.457 -14.583  0.00  0.00    +0.040 C 
ATOM     16  C   UNL     1      38.229 -24.730 -13.431  0.00  0.00    +0.040 C 
BRANCH  14  17
ATOM     17  O   UNL     1      39.353 -26.651 -14.292  0.00  0.00    -0.471 OA
ATOM     18  C   UNL     1      40.574 -25.998 -13.946  0.00  0.00    +0.252 C 
ENDBRANCH  14  17
ENDBRANCH  10  11
ENDBRANCH   8  10
ENDBRANCH   1   2
BRANCH   1  19
ATOM     19  C   UNL     1      33.713 -20.544 -19.608  0.00  0.00    +0.227 C 
BRANCH  19  20
ATOM     20  O   UNL     1      34.791 -20.474 -20.539  0.00  0.00    -0.474 OA
BRANCH  20  24
ATOM     21  C   UNL     1      35.148 -16.989 -22.765  0.00  0.00    -0.021 C 
ATOM     22  C   UNL     1      35.584 -17.018 -21.441  0.00  0.00    -0.001 C 
ATOM     23  C   UNL     1      34.591 -18.131 -23.342  0.00  0.00    -0.001 C 
ATOM     24  C   UNL     1      34.908 -19.331 -21.269  0.00  0.00    +0.139 C 
ATOM     25  C   UNL     1      35.464 -18.189 -20.692  0.00  0.00    +0.037 C 
ATOM     26  C   UNL     1      34.471 -19.301 -22.593  0.00  0.00    +0.037 C 
BRANCH  21  27
ATOM     27  C   UNL     1      35.278 -15.724 -23.573  0.00  0.00    +0.047 C 
BRANCH  27  32
ATOM     28  S   UNL     1      33.411 -14.523 -25.204  0.00  0.00    -0.048 S 
ATOM     29  O   UNL     1      34.712 -13.412 -21.745  0.00  0.00    -0.274 OA
ATOM     30  O   UNL     1      33.086 -11.990 -25.827  0.00  0.00    -0.263 OA
ATOM     31  N   UNL     1      33.905 -12.508 -23.716  0.00  0.00    -0.246 N 
ATOM     32  C   UNL     1      34.011 -14.888 -23.526  0.00  0.00    +0.137 C 
ATOM     33  C   UNL     1      34.259 -13.544 -22.877  0.00  0.00    +0.239 C 
ATOM     34  C   UNL     1      33.436 -12.789 -24.972  0.00  0.00    +0.279 C 
ATOM     35  H   UNL     1      33.990 -11.575 -23.414  0.00  0.00    +0.158 HD
ENDBRANCH  27  32
ENDBRANCH  21  27
ENDBRANCH  20  24
ENDBRANCH  19  20
ENDBRANCH   1  19
TORSDOF 9
ENDMDL
MODEL 5
REMARK VINA RESULT:     -11.9      4.710     13.041
REMARK  Name = 9826451
REMARK  9 active torsions:
REMARK  status: ('A' for Active; 'I' for Inactive)
REMARK    1  A    between atoms: C_1  and  N_2
REMARK    2  A    between atoms: C_1  and  C_19
REMARK    3  A    between atoms: C_8  and  O_10
REMARK    4  A    between atoms: O_10  and  C_11
REMARK    5  A    between atoms: C_14  and  O_17
REMARK    6  A    between atoms: C_19  and  O_20
REMARK    7  A    between atoms: O_20  and  C_24
REMARK    8  A    between atoms: C_21  and  C_27
REMARK    9  A    between atoms: C_27  and  C_32
REMARK                            x       y       z     vdW  Elec       q    Type
REMARK                         _______ _______ _______ _____ _____    ______ ____
ROOT
ATOM      1  C   UNL     1      33.066 -14.739 -24.965  0.00  0.00    +0.139 C 
ENDROOT
BRANCH   1   2
ATOM      2  N   UNL     1      33.431 -13.349 -25.094  0.00  0.00    -0.291 N 
ATOM      3  C   UNL     1      33.989 -12.887 -26.366  0.00  0.00    +0.113 C 
ATOM      4  N   UNL     1      32.756 -12.900 -22.868  0.00  0.00    -0.233 NA
ATOM      5  N   UNL     1      32.978 -10.672 -21.980  0.00  0.00    -0.214 NA
ATOM      6  C   UNL     1      33.273 -12.450 -24.031  0.00  0.00    +0.115 C 
ATOM      7  C   UNL     1      33.661 -11.142 -24.240  0.00  0.00    +0.146 C 
ATOM      8  C   UNL     1      33.489 -10.289 -23.168  0.00  0.00    +0.210 C 
ATOM      9  C   UNL     1      32.638 -11.972 -21.900  0.00  0.00    +0.254 C 
BRANCH   8  10
ATOM     10  O   UNL     1      33.850  -8.974 -23.297  0.00  0.00    -0.440 OA
BRANCH  10  11
ATOM     11  C   UNL     1      32.986  -8.026 -22.788  0.00  0.00    +0.147 C 
ATOM     12  C   UNL     1      33.417  -7.150 -21.792  0.00  0.00    +0.041 C 
ATOM     13  C   UNL     1      31.679  -7.944 -23.270  0.00  0.00    +0.041 C 
ATOM     14  C   UNL     1      31.238  -6.110 -21.761  0.00  0.00    +0.139 C 
ATOM     15  C   UNL     1      32.544  -6.192 -21.279  0.00  0.00    +0.040 C 
ATOM     16  C   UNL     1      30.805  -6.986 -22.758  0.00  0.00    +0.040 C 
BRANCH  14  17
ATOM     17  O   UNL     1      30.385  -5.174 -21.261  0.00  0.00    -0.471 OA
ATOM     18  C   UNL     1      30.568  -3.828 -21.697  0.00  0.00    +0.252 C 
ENDBRANCH  14  17
ENDBRANCH  10  11
ENDBRANCH   8  10
ENDBRANCH   1   2
BRANCH   1  19
ATOM     19  C   UNL     1      34.315 -15.601 -24.895  0.00  0.00    +0.227 C 
BRANCH  19  20
ATOM     20  O   UNL     1      34.818 -15.600 -23.560  0.00  0.00    -0.474 OA
BRANCH  20  24
ATOM     21  C   UNL     1      35.078 -19.265 -21.630  0.00  0.00    -0.021 C 
ATOM     22  C   UNL     1      34.621 -19.201 -22.946  0.00  0.00    -0.001 C 
ATOM     23  C   UNL     1      35.448 -18.097 -20.963  0.00  0.00    -0.001 C 
ATOM     24  C   UNL     1      34.903 -16.802 -22.927  0.00  0.00    +0.139 C 
ATOM     25  C   UNL     1      34.533 -17.970 -23.595  0.00  0.00    +0.037 C 
ATOM     26  C   UNL     1      35.360 -16.866 -21.611  0.00  0.00    +0.037 C 
BRANCH  21  27
ATOM     27  C   UNL     1      35.173 -20.596 -20.930  0.00  0.00    +0.047 C 
BRANCH  27  32
ATOM     28  S   UNL     1      35.356 -21.781 -18.450  0.00  0.00    -0.048 S 
ATOM     29  O   UNL     1      32.273 -20.282 -20.223  0.00  0.00    -0.274 OA
ATOM     30  O   UNL     1      33.762 -23.514 -17.281  0.00  0.00    -0.263 OA
ATOM     31  N   UNL     1      32.822 -21.953 -18.721  0.00  0.00    -0.246 N 
ATOM     32  C   UNL     1      34.575 -20.547 -19.535  0.00  0.00    +0.137 C 
ATOM     33  C   UNL     1      33.101 -20.888 -19.553  0.00  0.00    +0.239 C 
ATOM     34  C   UNL     1      33.844 -22.566 -18.047  0.00  0.00    +0.279 C 
ATOM     35  H   UNL     1      31.896 -22.269 -18.615  0.00  0.00    +0.158 HD
ENDBRANCH  27  32
ENDBRANCH  21  27
ENDBRANCH  20  24
ENDBRANCH  19  20
ENDBRANCH   1  19
TORSDOF 9
ENDMDL
MODEL 6
REMARK VINA RESULT:     -11.9      1.211      2.124
REMARK  Name = 9826451
REMARK  9 active torsions:
REMARK  status: ('A' for Active; 'I' for Inactive)
REMARK    1  A    between atoms: C_1  and  N_2
REMARK    2  A    between atoms: C_1  and  C_19
REMARK    3  A    between atoms: C_8  and  O_10
REMARK    4  A    between atoms: O_10  and  C_11
REMARK    5  A    between atoms: C_14  and  O_17
REMARK    6  A    between atoms: C_19  and  O_20
REMARK    7  A    between atoms: O_20  and  C_24
REMARK    8  A    between atoms: C_21  and  C_27
REMARK    9  A    between atoms: C_27  and  C_32
REMARK                            x       y       z     vdW  Elec       q    Type
REMARK                         _______ _______ _______ _____ _____    ______ ____
ROOT
ATOM      1  C   UNL     1      36.245 -22.665 -16.291  0.00  0.00    +0.139 C 
ENDROOT
BRANCH   1   2
ATOM      2  N   UNL     1      34.880 -22.976 -15.942  0.00  0.00    -0.291 N 
ATOM      3  C   UNL     1      33.848 -22.851 -16.973  0.00  0.00    +0.113 C 
ATOM      4  N   UNL     1      35.500 -23.485 -13.714  0.00  0.00    -0.233 NA
ATOM      5  N   UNL     1      33.814 -24.163 -12.131  0.00  0.00    -0.214 NA
ATOM      6  C   UNL     1      34.530 -23.378 -14.646  0.00  0.00    +0.115 C 
ATOM      7  C   UNL     1      33.198 -23.641 -14.399  0.00  0.00    +0.146 C 
ATOM      8  C   UNL     1      32.896 -24.034 -13.111  0.00  0.00    +0.210 C 
ATOM      9  C   UNL     1      35.078 -23.876 -12.496  0.00  0.00    +0.254 C 
BRANCH   8  10
ATOM     10  O   UNL     1      31.595 -24.315 -12.786  0.00  0.00    -0.440 OA
BRANCH  10  11
ATOM     11  C   UNL     1      30.644 -24.150 -13.774  0.00  0.00    +0.147 C 
ATOM     12  C   UNL     1      30.038 -25.265 -14.353  0.00  0.00    +0.041 C 
ATOM     13  C   UNL     1      30.290 -22.867 -14.194  0.00  0.00    +0.041 C 
ATOM     14  C   UNL     1      28.725 -23.816 -15.770  0.00  0.00    +0.139 C 
ATOM     15  C   UNL     1      29.079 -25.098 -15.351  0.00  0.00    +0.040 C 
ATOM     16  C   UNL     1      29.330 -22.700 -15.190  0.00  0.00    +0.040 C 
BRANCH  14  17
ATOM     17  O   UNL     1      27.787 -23.652 -16.743  0.00  0.00    -0.471 OA
ATOM     18  C   UNL     1      27.096 -22.405 -16.777  0.00  0.00    +0.252 C 
ENDBRANCH  14  17
ENDBRANCH  10  11
ENDBRANCH   8  10
ENDBRANCH   1   2
BRANCH   1  19
ATOM     19  C   UNL     1      36.289 -21.427 -17.170  0.00  0.00    +0.227 C 
BRANCH  19  20
ATOM     20  O   UNL     1      36.043 -21.798 -18.525  0.00  0.00    -0.474 OA
BRANCH  20  24
ATOM     21  C   UNL     1      36.111 -18.767 -21.360  0.00  0.00    -0.021 C 
ATOM     22  C   UNL     1      37.232 -19.002 -20.564  0.00  0.00    -0.001 C 
ATOM     23  C   UNL     1      34.967 -19.550 -21.203  0.00  0.00    -0.001 C 
ATOM     24  C   UNL     1      36.066 -20.804 -19.454  0.00  0.00    +0.139 C 
ATOM     25  C   UNL     1      37.210 -20.020 -19.611  0.00  0.00    +0.037 C 
ATOM     26  C   UNL     1      34.944 -20.567 -20.250  0.00  0.00    +0.037 C 
BRANCH  21  27
ATOM     27  C   UNL     1      36.136 -17.667 -22.389  0.00  0.00    +0.047 C 
BRANCH  27  32
ATOM     28  S   UNL     1      34.281 -17.561 -24.423  0.00  0.00    -0.048 S 
ATOM     29  O   UNL     1      34.956 -15.025 -21.593  0.00  0.00    -0.274 OA
ATOM     30  O   UNL     1      33.576 -15.555 -25.968  0.00  0.00    -0.263 OA
ATOM     31  N   UNL     1      34.228 -15.088 -23.788  0.00  0.00    -0.246 N 
ATOM     32  C   UNL     1      34.741 -17.157 -22.709  0.00  0.00    +0.137 C 
ATOM     33  C   UNL     1      34.666 -15.650 -22.607  0.00  0.00    +0.239 C 
ATOM     34  C   UNL     1      33.965 -15.896 -24.862  0.00  0.00    +0.279 C 
ATOM     35  H   UNL     1      34.108 -14.113 -23.858  0.00  0.00    +0.158 HD
ENDBRANCH  27  32
ENDBRANCH  21  27
ENDBRANCH  20  24
ENDBRANCH  19  20
ENDBRANCH   1  19
TORSDOF 9
ENDMDL
MODEL 7
REMARK VINA RESULT:     -11.9      5.136      9.559
REMARK  Name = 9826451
REMARK  9 active torsions:
REMARK  status: ('A' for Active; 'I' for Inactive)
REMARK    1  A    between atoms: C_1  and  N_2
REMARK    2  A    between atoms: C_1  and  C_19
REMARK    3  A    between atoms: C_8  and  O_10
REMARK    4  A    between atoms: O_10  and  C_11
REMARK    5  A    between atoms: C_14  and  O_17
REMARK    6  A    between atoms: C_19  and  O_20
REMARK    7  A    between atoms: O_20  and  C_24
REMARK    8  A    between atoms: C_21  and  C_27
REMARK    9  A    between atoms: C_27  and  C_32
REMARK                            x       y       z     vdW  Elec       q    Type
REMARK                         _______ _______ _______ _____ _____    ______ ____
ROOT
ATOM      1  C   UNL     1      33.898 -14.723 -24.365  0.00  0.00    +0.139 C 
ENDROOT
BRANCH   1   2
ATOM      2  N   UNL     1      34.478 -15.405 -23.232  0.00  0.00    -0.291 N 
ATOM      3  C   UNL     1      34.923 -14.608 -22.088  0.00  0.00    +0.113 C 
ATOM      4  N   UNL     1      34.211 -17.510 -24.285  0.00  0.00    -0.233 NA
ATOM      5  N   UNL     1      34.941 -19.509 -23.156  0.00  0.00    -0.214 NA
ATOM      6  C   UNL     1      34.630 -16.798 -23.218  0.00  0.00    +0.115 C 
ATOM      7  C   UNL     1      35.206 -17.363 -22.098  0.00  0.00    +0.146 C 
ATOM      8  C   UNL     1      35.338 -18.737 -22.124  0.00  0.00    +0.210 C 
ATOM      9  C   UNL     1      34.394 -18.840 -24.189  0.00  0.00    +0.254 C 
BRANCH   8  10
ATOM     10  O   UNL     1      35.900 -19.374 -21.049  0.00  0.00    -0.440 OA
BRANCH  10  11
ATOM     11  C   UNL     1      35.077 -20.178 -20.286  0.00  0.00    +0.147 C 
ATOM     12  C   UNL     1      35.620 -21.222 -19.537  0.00  0.00    +0.041 C 
ATOM     13  C   UNL     1      33.702 -19.945 -20.262  0.00  0.00    +0.041 C 
ATOM     14  C   UNL     1      33.414 -21.800 -18.743  0.00  0.00    +0.139 C 
ATOM     15  C   UNL     1      34.789 -22.033 -18.766  0.00  0.00    +0.040 C 
ATOM     16  C   UNL     1      32.870 -20.755 -19.491  0.00  0.00    +0.040 C 
BRANCH  14  17
ATOM     17  O   UNL     1      32.602 -22.592 -17.989  0.00  0.00    -0.471 OA
ATOM     18  C   UNL     1      33.144 -23.111 -16.776  0.00  0.00    +0.252 C 
ENDBRANCH  14  17
ENDBRANCH  10  11
ENDBRANCH   8  10
ENDBRANCH   1   2
BRANCH   1  19
ATOM     19  C   UNL     1      33.095 -13.522 -23.894  0.00  0.00    +0.227 C 
BRANCH  19  20
ATOM     20  O   UNL     1      33.939 -12.373 -23.852  0.00  0.00    -0.474 OA
BRANCH  20  24
ATOM     21  C   UNL     1      32.404  -8.964 -22.052  0.00  0.00    -0.021 C 
ATOM     22  C   UNL     1      33.301  -8.848 -23.113  0.00  0.00    -0.001 C 
ATOM     23  C   UNL     1      32.023 -10.226 -21.595  0.00  0.00    -0.001 C 
ATOM     24  C   UNL     1      33.436 -11.255 -23.262  0.00  0.00    +0.139 C 
ATOM     25  C   UNL     1      33.817  -9.993 -23.719  0.00  0.00    +0.037 C 
ATOM     26  C   UNL     1      32.540 -11.371 -22.199  0.00  0.00    +0.037 C 
BRANCH  21  27
ATOM     27  C   UNL     1      31.846  -7.725 -21.398  0.00  0.00    +0.047 C 
BRANCH  27  32
ATOM     28  S   UNL     1      32.429  -5.047 -21.127  0.00  0.00    -0.048 S 
ATOM     29  O   UNL     1      30.448  -6.850 -23.905  0.00  0.00    -0.274 OA
ATOM     30  O   UNL     1      30.905  -2.937 -21.496  0.00  0.00    -0.263 OA
ATOM     31  N   UNL     1      30.530  -4.810 -22.818  0.00  0.00    -0.246 N 
ATOM     32  C   UNL     1      32.133  -6.476 -22.213  0.00  0.00    +0.137 C 
ATOM     33  C   UNL     1      30.951  -6.097 -23.078  0.00  0.00    +0.239 C 
ATOM     34  C   UNL     1      31.159  -4.080 -21.845  0.00  0.00    +0.279 C 
ATOM     35  H   UNL     1      29.782  -4.421 -23.326  0.00  0.00    +0.158 HD
ENDBRANCH  27  32
ENDBRANCH  21  27
ENDBRANCH  20  24
ENDBRANCH  19  20
ENDBRANCH   1  19
TORSDOF 9
ENDMDL
MODEL 8
REMARK VINA RESULT:     -11.8      3.441     11.650
REMARK  Name = 9826451
REMARK  9 active torsions:
REMARK  status: ('A' for Active; 'I' for Inactive)
REMARK    1  A    between atoms: C_1  and  N_2
REMARK    2  A    between atoms: C_1  and  C_19
REMARK    3  A    between atoms: C_8  and  O_10
REMARK    4  A    between atoms: O_10  and  C_11
REMARK    5  A    between atoms: C_14  and  O_17
REMARK    6  A    between atoms: C_19  and  O_20
REMARK    7  A    between atoms: O_20  and  C_24
REMARK    8  A    between atoms: C_21  and  C_27
REMARK    9  A    between atoms: C_27  and  C_32
REMARK                            x       y       z     vdW  Elec       q    Type
REMARK                         _______ _______ _______ _____ _____    ______ ____
ROOT
ATOM      1  C   UNL     1      35.489 -18.280 -22.910  0.00  0.00    +0.139 C 
ENDROOT
BRANCH   1   2
ATOM      2  N   UNL     1      34.743 -17.193 -23.498  0.00  0.00    -0.291 N 
ATOM      3  C   UNL     1      34.145 -17.389 -24.820  0.00  0.00    +0.113 C 
ATOM      4  N   UNL     1      35.158 -15.811 -21.620  0.00  0.00    -0.233 NA
ATOM      5  N   UNL     1      34.291 -13.563 -21.578  0.00  0.00    -0.214 NA
ATOM      6  C   UNL     1      34.596 -15.966 -22.838  0.00  0.00    +0.115 C 
ATOM      7  C   UNL     1      33.878 -14.979 -23.481  0.00  0.00    +0.146 C 
ATOM      8  C   UNL     1      33.756 -13.786 -22.796  0.00  0.00    +0.210 C 
ATOM      9  C   UNL     1      34.969 -14.603 -21.057  0.00  0.00    +0.254 C 
BRANCH   8  10
ATOM     10  O   UNL     1      33.057 -12.756 -23.368  0.00  0.00    -0.440 OA
BRANCH  10  11
ATOM     11  C   UNL     1      32.687 -11.708 -22.549  0.00  0.00    +0.147 C 
ATOM     12  C   UNL     1      31.929 -11.952 -21.403  0.00  0.00    +0.041 C 
ATOM     13  C   UNL     1      33.071 -10.405 -22.867  0.00  0.00    +0.041 C 
ATOM     14  C   UNL     1      31.940  -9.591 -20.894  0.00  0.00    +0.139 C 
ATOM     15  C   UNL     1      31.556 -10.893 -20.576  0.00  0.00    +0.040 C 
ATOM     16  C   UNL     1      32.699  -9.347 -22.039  0.00  0.00    +0.040 C 
BRANCH  14  17
ATOM     17  O   UNL     1      31.577  -8.557 -20.086  0.00  0.00    -0.471 OA
ATOM     18  C   UNL     1      32.602  -7.643 -19.700  0.00  0.00    +0.252 C 
ENDBRANCH  14  17
ENDBRANCH  10  11
ENDBRANCH   8  10
ENDBRANCH   1   2
BRANCH   1  19
ATOM     19  C   UNL     1      34.613 -19.043 -21.931  0.00  0.00    +0.227 C 
BRANCH  19  20
ATOM     20  O   UNL     1      35.360 -19.331 -20.751  0.00  0.00    -0.474 OA
BRANCH  20  24
ATOM     21  C   UNL     1      33.886 -22.305 -18.259  0.00  0.00    -0.021 C 
ATOM     22  C   UNL     1      35.262 -22.095 -18.356  0.00  0.00    -0.001 C 
ATOM     23  C   UNL     1      33.006 -21.515 -18.999  0.00  0.00    -0.001 C 
ATOM     24  C   UNL     1      34.877 -20.307 -19.934  0.00  0.00    +0.139 C 
ATOM     25  C   UNL     1      35.758 -21.096 -19.193  0.00  0.00    +0.037 C 
ATOM     26  C   UNL     1      33.502 -20.517 -19.837  0.00  0.00    +0.037 C 
BRANCH  21  27
ATOM     27  C   UNL     1      33.352 -23.384 -17.353  0.00  0.00    +0.047 C 
BRANCH  27  32
ATOM     28  S   UNL     1      33.807 -23.677 -14.653  0.00  0.00    -0.048 S 
ATOM     29  O   UNL     1      30.565 -22.678 -16.493  0.00  0.00    -0.274 OA
ATOM     30  O   UNL     1      32.331 -24.818 -12.801  0.00  0.00    -0.263 OA
ATOM     31  N   UNL     1      31.257 -23.777 -14.578  0.00  0.00    -0.246 N 
ATOM     32  C   UNL     1      32.927 -22.834 -16.004  0.00  0.00    +0.137 C 
ATOM     33  C   UNL     1      31.456 -23.073 -15.747  0.00  0.00    +0.239 C 
ATOM     34  C   UNL     1      32.340 -24.188 -13.848  0.00  0.00    +0.279 C 
ATOM     35  H   UNL     1      30.344 -23.984 -14.273  0.00  0.00    +0.158 HD
ENDBRANCH  27  32
ENDBRANCH  21  27
ENDBRANCH  20  24
ENDBRANCH  19  20
ENDBRANCH   1  19
TORSDOF 9
ENDMDL
MODEL 9
REMARK VINA RESULT:     -11.7      4.139     11.800
REMARK  Name = 9826451
REMARK  9 active torsions:
REMARK  status: ('A' for Active; 'I' for Inactive)
REMARK    1  A    between atoms: C_1  and  N_2
REMARK    2  A    between atoms: C_1  and  C_19
REMARK    3  A    between atoms: C_8  and  O_10
REMARK    4  A    between atoms: O_10  and  C_11
REMARK    5  A    between atoms: C_14  and  O_17
REMARK    6  A    between atoms: C_19  and  O_20
REMARK    7  A    between atoms: O_20  and  C_24
REMARK    8  A    between atoms: C_21  and  C_27
REMARK    9  A    between atoms: C_27  and  C_32
REMARK                            x       y       z     vdW  Elec       q    Type
REMARK                         _______ _______ _______ _____ _____    ______ ____
ROOT
ATOM      1  C   UNL     1      34.924 -19.942 -21.424  0.00  0.00    +0.139 C 
ENDROOT
BRANCH   1   2
ATOM      2  N   UNL     1      35.274 -18.542 -21.407  0.00  0.00    -0.291 N 
ATOM      3  C   UNL     1      36.017 -18.021 -20.259  0.00  0.00    +0.113 C 
ATOM      4  N   UNL     1      34.221 -18.189 -23.499  0.00  0.00    -0.233 NA
ATOM      5  N   UNL     1      34.206 -15.985 -24.471  0.00  0.00    -0.214 NA
ATOM      6  C   UNL     1      34.906 -17.684 -22.452  0.00  0.00    +0.115 C 
ATOM      7  C   UNL     1      35.272 -16.358 -22.345  0.00  0.00    +0.146 C 
ATOM      8  C   UNL     1      34.891 -15.546 -23.395  0.00  0.00    +0.210 C 
ATOM      9  C   UNL     1      33.907 -17.298 -24.458  0.00  0.00    +0.254 C 
BRANCH   8  10
ATOM     10  O   UNL     1      35.217 -14.216 -23.363  0.00  0.00    -0.440 OA
BRANCH  10  11
ATOM     11  C   UNL     1      34.287 -13.347 -22.828  0.00  0.00    +0.147 C 
ATOM     12  C   UNL     1      33.587 -13.697 -21.674  0.00  0.00    +0.041 C 
ATOM     13  C   UNL     1      34.047 -12.117 -23.443  0.00  0.00    +0.041 C 
ATOM     14  C   UNL     1      32.408 -11.590 -21.748  0.00  0.00    +0.139 C 
ATOM     15  C   UNL     1      32.648 -12.819 -21.134  0.00  0.00    +0.040 C 
ATOM     16  C   UNL     1      33.109 -11.239 -22.903  0.00  0.00    +0.040 C 
BRANCH  14  17
ATOM     17  O   UNL     1      31.492 -10.732 -21.221  0.00  0.00    -0.471 OA
ATOM     18  C   UNL     1      31.560  -9.371 -21.641  0.00  0.00    +0.252 C 
ENDBRANCH  14  17
ENDBRANCH  10  11
ENDBRANCH   8  10
ENDBRANCH   1   2
BRANCH   1  19
ATOM     19  C   UNL     1      34.187 -20.310 -20.148  0.00  0.00    +0.227 C 
BRANCH  19  20
ATOM     20  O   UNL     1      34.461 -21.670 -19.816  0.00  0.00    -0.474 OA
BRANCH  20  24
ATOM     21  C   UNL     1      36.180 -22.404 -16.110  0.00  0.00    -0.021 C 
ATOM     22  C   UNL     1      36.909 -21.741 -17.098  0.00  0.00    -0.001 C 
ATOM     23  C   UNL     1      34.873 -22.820 -16.368  0.00  0.00    -0.001 C 
ATOM     24  C   UNL     1      35.025 -21.911 -18.601  0.00  0.00    +0.139 C 
ATOM     25  C   UNL     1      36.332 -21.495 -18.343  0.00  0.00    +0.037 C 
ATOM     26  C   UNL     1      34.297 -22.574 -17.613  0.00  0.00    +0.037 C 
BRANCH  21  27
ATOM     27  C   UNL     1      36.804 -22.669 -14.765  0.00  0.00    +0.047 C 
BRANCH  27  32
ATOM     28  S   UNL     1      35.680 -24.599 -13.151  0.00  0.00    -0.048 S 
ATOM     29  O   UNL     1      39.278 -24.350 -14.524  0.00  0.00    -0.274 OA
ATOM     30  O   UNL     1      36.643 -25.791 -11.016  0.00  0.00    -0.263 OA
ATOM     31  N   UNL     1      38.129 -25.151 -12.683  0.00  0.00    -0.246 N 
ATOM     32  C   UNL     1      36.871 -24.154 -14.454  0.00  0.00    +0.137 C 
ATOM     33  C   UNL     1      38.230 -24.547 -13.919  0.00  0.00    +0.239 C 
ATOM     34  C   UNL     1      36.898 -25.286 -12.098  0.00  0.00    +0.279 C 
ATOM     35  H   UNL     1      38.936 -25.481 -12.225  0.00  0.00    +0.158 HD
ENDBRANCH  27  32
ENDBRANCH  21  27
ENDBRANCH  20  24
ENDBRANCH  19  20
ENDBRANCH   1  19
TORSDOF 9
ENDMDL
