MODEL 1
REMARK VINA RESULT:     -12.5      0.000      0.000
REMARK  Name = 5288711
REMARK  4 active torsions:
REMARK  status: ('A' for Active; 'I' for Inactive)
REMARK    1  A    between atoms: C_1  and  S_7
REMARK    2  A    between atoms: C_2  and  N_17
REMARK    3  A    between atoms: S_7  and  N_11
REMARK    4  A    between atoms: N_17  and  C_25
REMARK                            x       y       z     vdW  Elec       q    Type
REMARK                         _______ _______ _______ _____ _____    ______ ____
ROOT
ATOM      1  C   UNL     1      34.508 -21.760 -18.785  0.00  0.00    +0.125 C 
ATOM      2  C   UNL     1      35.680 -19.737 -20.318  0.00  0.00    +0.048 C 
ATOM      3  C   UNL     1      33.707 -20.909 -19.547  0.00  0.00    +0.021 C 
ATOM      4  C   UNL     1      35.894 -21.601 -18.788  0.00  0.00    +0.021 C 
ATOM      5  C   UNL     1      34.292 -19.900 -20.312  0.00  0.00    +0.016 C 
ATOM      6  C   UNL     1      36.479 -20.593 -19.554  0.00  0.00    +0.016 C 
ENDROOT
BRANCH   1   7
ATOM      7  S   UNL     1      33.777 -23.023 -17.826  0.00  0.00    +0.075 S 
ATOM      8  O   UNL     1      33.577 -24.190 -18.676  0.00  0.00    -0.150 OA
ATOM      9  O   UNL     1      34.553 -23.153 -16.599  0.00  0.00    -0.150 OA
BRANCH   7  11
ATOM     10  S   UNL     1      29.913 -23.083 -16.173  0.00  0.00    -0.050 S 
ATOM     11  N   UNL     1      32.245 -22.327 -17.473  0.00  0.00    -0.194 N 
ATOM     12  N   UNL     1      32.284 -23.006 -15.147  0.00  0.00    -0.221 NA
ATOM     13  C   UNL     1      31.592 -22.798 -16.231  0.00  0.00    +0.179 C 
ATOM     14  C   UNL     1      30.091 -23.539 -14.529  0.00  0.00    +0.059 C 
ATOM     15  C   UNL     1      31.417 -23.435 -14.161  0.00  0.00    +0.108 C 
ATOM     16  H   UNL     1      31.828 -21.656 -18.060  0.00  0.00    +0.176 HD
ENDBRANCH   7  11
ENDBRANCH   1   7
BRANCH   2  17
ATOM     17  N   UNL     1      36.268 -18.721 -21.089  0.00  0.00    -0.311 N 
ATOM     18  H   UNL     1      37.180 -18.460 -20.827  0.00  0.00    +0.152 HD
BRANCH  17  25
ATOM     19  O   UNL     1      35.407 -16.270 -19.801  0.00  0.00    -0.270 OA
ATOM     20  N   UNL     1      34.422 -14.823 -21.387  0.00  0.00    -0.280 N 
ATOM     21  C   UNL     1      34.624 -16.106 -23.286  0.00  0.00    +0.019 C 
ATOM     22  C   UNL     1      35.189 -16.838 -22.157  0.00  0.00    +0.069 C 
ATOM     23  C   UNL     1      34.173 -14.890 -22.763  0.00  0.00    +0.051 C 
ATOM     24  C   UNL     1      35.048 -15.987 -20.928  0.00  0.00    +0.251 C 
ATOM     25  C   UNL     1      35.746 -18.050 -22.147  0.00  0.00    +0.066 C 
ATOM     26  C   UNL     1      34.481 -16.392 -24.630  0.00  0.00    +0.001 C 
ATOM     27  C   UNL     1      33.571 -13.926 -23.547  0.00  0.00    +0.015 C 
ATOM     28  C   UNL     1      33.874 -15.429 -25.443  0.00  0.00    +0.000 C 
ATOM     29  C   UNL     1      33.424 -14.208 -24.907  0.00  0.00    +0.001 C 
ATOM     30  H   UNL     1      34.187 -14.057 -20.817  0.00  0.00    +0.155 HD
ENDBRANCH  17  25
ENDBRANCH   2  17
TORSDOF 4
ENDMDL
MODEL 2
REMARK VINA RESULT:     -12.5      1.355      1.974
REMARK  Name = 5288711
REMARK  4 active torsions:
REMARK  status: ('A' for Active; 'I' for Inactive)
REMARK    1  A    between atoms: C_1  and  S_7
REMARK    2  A    between atoms: C_2  and  N_17
REMARK    3  A    between atoms: S_7  and  N_11
REMARK    4  A    between atoms: N_17  and  C_25
REMARK                            x       y       z     vdW  Elec       q    Type
REMARK                         _______ _______ _______ _____ _____    ______ ____
ROOT
ATOM      1  C   UNL     1      34.381 -21.832 -18.653  0.00  0.00    +0.125 C 
ATOM      2  C   UNL     1      35.536 -19.920 -20.333  0.00  0.00    +0.048 C 
ATOM      3  C   UNL     1      35.767 -21.688 -18.696  0.00  0.00    +0.021 C 
ATOM      4  C   UNL     1      33.570 -21.022 -19.447  0.00  0.00    +0.021 C 
ATOM      5  C   UNL     1      36.344 -20.734 -19.534  0.00  0.00    +0.016 C 
ATOM      6  C   UNL     1      34.146 -20.067 -20.286  0.00  0.00    +0.016 C 
ENDROOT
BRANCH   1   7
ATOM      7  S   UNL     1      33.659 -23.027 -17.604  0.00  0.00    +0.075 S 
ATOM      8  O   UNL     1      33.476 -24.258 -18.363  0.00  0.00    -0.150 OA
ATOM      9  O   UNL     1      34.430 -23.055 -16.368  0.00  0.00    -0.150 OA
BRANCH   7  11
ATOM     10  S   UNL     1      29.708 -23.096 -16.173  0.00  0.00    -0.050 S 
ATOM     11  N   UNL     1      32.117 -22.325 -17.311  0.00  0.00    -0.194 N 
ATOM     12  N   UNL     1      32.018 -23.089 -15.014  0.00  0.00    -0.221 NA
ATOM     13  C   UNL     1      31.391 -22.832 -16.127  0.00  0.00    +0.179 C 
ATOM     14  C   UNL     1      29.788 -23.615 -14.540  0.00  0.00    +0.059 C 
ATOM     15  C   UNL     1      31.091 -23.542 -14.095  0.00  0.00    +0.108 C 
ATOM     16  H   UNL     1      31.742 -21.627 -17.896  0.00  0.00    +0.176 HD
ENDBRANCH   7  11
ENDBRANCH   1   7
BRANCH   2  17
ATOM     17  N   UNL     1      36.116 -18.959 -21.177  0.00  0.00    -0.311 N 
ATOM     18  H   UNL     1      36.905 -19.257 -21.685  0.00  0.00    +0.152 HD
BRANCH  17  25
ATOM     19  O   UNL     1      34.851 -19.191 -23.775  0.00  0.00    -0.270 OA
ATOM     20  N   UNL     1      34.043 -17.084 -24.474  0.00  0.00    -0.280 N 
ATOM     21  C   UNL     1      34.674 -15.791 -22.679  0.00  0.00    +0.019 C 
ATOM     22  C   UNL     1      35.091 -17.170 -22.441  0.00  0.00    +0.069 C 
ATOM     23  C   UNL     1      34.043 -15.795 -23.927  0.00  0.00    +0.051 C 
ATOM     24  C   UNL     1      34.672 -17.998 -23.622  0.00  0.00    +0.251 C 
ATOM     25  C   UNL     1      35.734 -17.673 -21.386  0.00  0.00    +0.066 C 
ATOM     26  C   UNL     1      34.792 -14.623 -21.952  0.00  0.00    +0.001 C 
ATOM     27  C   UNL     1      33.513 -14.653 -24.491  0.00  0.00    +0.015 C 
ATOM     28  C   UNL     1      34.261 -13.452 -22.504  0.00  0.00    +0.000 C 
ATOM     29  C   UNL     1      33.627 -13.467 -23.761  0.00  0.00    +0.001 C 
ATOM     30  H   UNL     1      33.652 -17.317 -25.347  0.00  0.00    +0.155 HD
ENDBRANCH  17  25
ENDBRANCH   2  17
TORSDOF 4
ENDMDL
MODEL 3
REMARK VINA RESULT:     -12.1      2.648      9.481
REMARK  Name = 5288711
REMARK  4 active torsions:
REMARK  status: ('A' for Active; 'I' for Inactive)
REMARK    1  A    between atoms: C_1  and  S_7
REMARK    2  A    between atoms: C_2  and  N_17
REMARK    3  A    between atoms: S_7  and  N_11
REMARK    4  A    between atoms: N_17  and  C_25
REMARK                            x       y       z     vdW  Elec       q    Type
REMARK                         _______ _______ _______ _____ _____    ______ ____
ROOT
ATOM      1  C   UNL     1      35.503 -19.669 -20.357  0.00  0.00    +0.125 C 
ATOM      2  C   UNL     1      34.454 -21.916 -19.065  0.00  0.00    +0.048 C 
ATOM      3  C   UNL     1      34.124 -19.881 -20.334  0.00  0.00    +0.021 C 
ATOM      4  C   UNL     1      36.358 -20.578 -19.735  0.00  0.00    +0.021 C 
ATOM      5  C   UNL     1      33.601 -21.001 -19.689  0.00  0.00    +0.016 C 
ATOM      6  C   UNL     1      35.836 -21.699 -19.090  0.00  0.00    +0.016 C 
ENDROOT
BRANCH   1   7
ATOM      7  S   UNL     1      36.158 -18.267 -21.165  0.00  0.00    +0.075 S 
ATOM      8  O   UNL     1      35.449 -17.086 -20.688  0.00  0.00    -0.150 OA
ATOM      9  O   UNL     1      37.610 -18.327 -21.048  0.00  0.00    -0.150 OA
BRANCH   7  11
ATOM     10  S   UNL     1      33.690 -17.750 -24.527  0.00  0.00    -0.050 S 
ATOM     11  N   UNL     1      35.693 -18.571 -22.791  0.00  0.00    -0.194 N 
ATOM     12  N   UNL     1      35.395 -16.226 -23.323  0.00  0.00    -0.221 NA
ATOM     13  C   UNL     1      35.008 -17.460 -23.487  0.00  0.00    +0.179 C 
ATOM     14  C   UNL     1      33.597 -16.062 -24.811  0.00  0.00    +0.059 C 
ATOM     15  C   UNL     1      34.580 -15.416 -24.089  0.00  0.00    +0.108 C 
ATOM     16  H   UNL     1      35.871 -19.433 -23.233  0.00  0.00    +0.176 HD
ENDBRANCH   7  11
ENDBRANCH   1   7
BRANCH   2  17
ATOM     17  N   UNL     1      33.927 -23.044 -18.416  0.00  0.00    -0.311 N 
ATOM     18  H   UNL     1      34.319 -23.909 -18.677  0.00  0.00    +0.152 HD
BRANCH  17  25
ATOM     19  O   UNL     1      35.518 -23.216 -15.998  0.00  0.00    -0.270 OA
ATOM     20  N   UNL     1      34.106 -23.334 -14.107  0.00  0.00    -0.280 N 
ATOM     21  C   UNL     1      32.048 -23.253 -15.130  0.00  0.00    +0.019 C 
ATOM     22  C   UNL     1      33.089 -23.190 -16.152  0.00  0.00    +0.069 C 
ATOM     23  C   UNL     1      32.721 -23.339 -13.908  0.00  0.00    +0.051 C 
ATOM     24  C   UNL     1      34.424 -23.245 -15.466  0.00  0.00    +0.251 C 
ATOM     25  C   UNL     1      32.950 -23.101 -17.476  0.00  0.00    +0.066 C 
ATOM     26  C   UNL     1      30.667 -23.242 -15.177  0.00  0.00    +0.001 C 
ATOM     27  C   UNL     1      32.055 -23.416 -12.701  0.00  0.00    +0.015 C 
ATOM     28  C   UNL     1      29.971 -23.319 -13.965  0.00  0.00    +0.000 C 
ATOM     29  C   UNL     1      30.658 -23.405 -12.740  0.00  0.00    +0.001 C 
ATOM     30  H   UNL     1      34.772 -23.387 -13.384  0.00  0.00    +0.155 HD
ENDBRANCH  17  25
ENDBRANCH   2  17
TORSDOF 4
ENDMDL
MODEL 4
REMARK VINA RESULT:     -12.0      4.848     10.050
REMARK  Name = 5288711
REMARK  4 active torsions:
REMARK  status: ('A' for Active; 'I' for Inactive)
REMARK    1  A    between atoms: C_1  and  S_7
REMARK    2  A    between atoms: C_2  and  N_17
REMARK    3  A    between atoms: S_7  and  N_11
REMARK    4  A    between atoms: N_17  and  C_25
REMARK                            x       y       z     vdW  Elec       q    Type
REMARK                         _______ _______ _______ _____ _____    ______ ____
ROOT
ATOM      1  C   UNL     1      34.187 -13.482 -23.238  0.00  0.00    +0.125 C 
ATOM      2  C   UNL     1      35.014 -16.076 -22.603  0.00  0.00    +0.048 C 
ATOM      3  C   UNL     1      34.222 -14.465 -24.227  0.00  0.00    +0.021 C 
ATOM      4  C   UNL     1      34.565 -13.794 -21.932  0.00  0.00    +0.021 C 
ATOM      5  C   UNL     1      34.633 -15.759 -23.910  0.00  0.00    +0.016 C 
ATOM      6  C   UNL     1      34.978 -15.088 -21.615  0.00  0.00    +0.016 C 
ENDROOT
BRANCH   1   7
ATOM      7  S   UNL     1      33.672 -11.861 -23.633  0.00  0.00    +0.075 S 
ATOM      8  O   UNL     1      34.788 -10.953 -23.403  0.00  0.00    -0.150 OA
ATOM      9  O   UNL     1      33.043 -11.906 -24.947  0.00  0.00    -0.150 OA
BRANCH   7  11
ATOM     10  S   UNL     1      31.978  -9.717 -20.440  0.00  0.00    -0.050 S 
ATOM     11  N   UNL     1      32.479 -11.588 -22.427  0.00  0.00    -0.194 N 
ATOM     12  N   UNL     1      32.226  -9.239 -22.968  0.00  0.00    -0.221 NA
ATOM     13  C   UNL     1      32.241 -10.175 -22.061  0.00  0.00    +0.179 C 
ATOM     14  C   UNL     1      31.823  -8.093 -20.969  0.00  0.00    +0.059 C 
ATOM     15  C   UNL     1      31.984  -8.035 -22.338  0.00  0.00    +0.108 C 
ATOM     16  H   UNL     1      31.983 -12.327 -22.006  0.00  0.00    +0.176 HD
ENDBRANCH   7  11
ENDBRANCH   1   7
BRANCH   2  17
ATOM     17  N   UNL     1      35.429 -17.379 -22.285  0.00  0.00    -0.311 N 
ATOM     18  H   UNL     1      36.313 -17.643 -22.630  0.00  0.00    +0.152 HD
BRANCH  17  25
ATOM     19  O   UNL     1      37.646 -18.624 -20.891  0.00  0.00    -0.270 OA
ATOM     20  N   UNL     1      36.856 -20.365 -19.503  0.00  0.00    -0.280 N 
ATOM     21  C   UNL     1      34.601 -20.239 -19.938  0.00  0.00    +0.019 C 
ATOM     22  C   UNL     1      35.292 -19.218 -20.718  0.00  0.00    +0.069 C 
ATOM     23  C   UNL     1      35.597 -20.906 -19.218  0.00  0.00    +0.051 C 
ATOM     24  C   UNL     1      36.761 -19.315 -20.423  0.00  0.00    +0.251 C 
ATOM     25  C   UNL     1      34.774 -18.325 -21.564  0.00  0.00    +0.066 C 
ATOM     26  C   UNL     1      33.275 -20.606 -19.814  0.00  0.00    +0.001 C 
ATOM     27  C   UNL     1      35.315 -21.950 -18.360  0.00  0.00    +0.015 C 
ATOM     28  C   UNL     1      32.966 -21.661 -18.948  0.00  0.00    +0.000 C 
ATOM     29  C   UNL     1      33.977 -22.326 -18.229  0.00  0.00    +0.001 C 
ATOM     30  H   UNL     1      37.699 -20.682 -19.108  0.00  0.00    +0.155 HD
ENDBRANCH  17  25
ENDBRANCH   2  17
TORSDOF 4
ENDMDL
MODEL 5
REMARK VINA RESULT:     -11.9      2.247      2.934
REMARK  Name = 5288711
REMARK  4 active torsions:
REMARK  status: ('A' for Active; 'I' for Inactive)
REMARK    1  A    between atoms: C_1  and  S_7
REMARK    2  A    between atoms: C_2  and  N_17
REMARK    3  A    between atoms: S_7  and  N_11
REMARK    4  A    between atoms: N_17  and  C_25
REMARK                            x       y       z     vdW  Elec       q    Type
REMARK                         _______ _______ _______ _____ _____    ______ ____
ROOT
ATOM      1  C   UNL     1      34.584 -21.186 -19.350  0.00  0.00    +0.125 C 
ATOM      2  C   UNL     1      35.488 -19.216 -21.116  0.00  0.00    +0.048 C 
ATOM      3  C   UNL     1      35.941 -20.866 -19.404  0.00  0.00    +0.021 C 
ATOM      4  C   UNL     1      33.679 -20.523 -20.178  0.00  0.00    +0.021 C 
ATOM      5  C   UNL     1      36.392 -19.883 -20.284  0.00  0.00    +0.016 C 
ATOM      6  C   UNL     1      34.129 -19.539 -21.059  0.00  0.00    +0.016 C 
ENDROOT
BRANCH   1   7
ATOM      7  S   UNL     1      34.019 -22.416 -18.248  0.00  0.00    +0.075 S 
ATOM      8  O   UNL     1      32.834 -21.914 -17.564  0.00  0.00    -0.150 OA
ATOM      9  O   UNL     1      33.943 -23.671 -18.986  0.00  0.00    -0.150 OA
BRANCH   7  11
ATOM     10  S   UNL     1      35.638 -22.465 -14.369  0.00  0.00    -0.050 S 
ATOM     11  N   UNL     1      35.319 -22.480 -17.126  0.00  0.00    -0.194 N 
ATOM     12  N   UNL     1      34.268 -24.171 -15.745  0.00  0.00    -0.221 NA
ATOM     13  C   UNL     1      35.017 -23.108 -15.821  0.00  0.00    +0.179 C 
ATOM     14  C   UNL     1      34.837 -23.721 -13.520  0.00  0.00    +0.059 C 
ATOM     15  C   UNL     1      34.163 -24.527 -14.415  0.00  0.00    +0.108 C 
ATOM     16  H   UNL     1      36.211 -22.121 -17.339  0.00  0.00    +0.176 HD
ENDBRANCH   7  11
ENDBRANCH   1   7
BRANCH   2  17
ATOM     17  N   UNL     1      35.942 -18.227 -22.004  0.00  0.00    -0.311 N 
ATOM     18  H   UNL     1      36.628 -18.514 -22.649  0.00  0.00    +0.152 HD
BRANCH  17  25
ATOM     19  O   UNL     1      34.459 -18.266 -24.495  0.00  0.00    -0.270 OA
ATOM     20  N   UNL     1      33.625 -16.109 -24.975  0.00  0.00    -0.280 N 
ATOM     21  C   UNL     1      34.423 -14.950 -23.155  0.00  0.00    +0.019 C 
ATOM     22  C   UNL     1      34.839 -16.345 -23.049  0.00  0.00    +0.069 C 
ATOM     23  C   UNL     1      33.689 -14.862 -24.341  0.00  0.00    +0.051 C 
ATOM     24  C   UNL     1      34.310 -17.085 -24.244  0.00  0.00    +0.251 C 
ATOM     25  C   UNL     1      35.562 -16.927 -22.090  0.00  0.00    +0.066 C 
ATOM     26  C   UNL     1      34.617 -13.837 -22.361  0.00  0.00    +0.001 C 
ATOM     27  C   UNL     1      33.128 -13.678 -24.778  0.00  0.00    +0.015 C 
ATOM     28  C   UNL     1      34.058 -12.626 -22.784  0.00  0.00    +0.000 C 
ATOM     29  C   UNL     1      33.320 -12.548 -23.980  0.00  0.00    +0.001 C 
ATOM     30  H   UNL     1      33.158 -16.277 -25.825  0.00  0.00    +0.155 HD
ENDBRANCH  17  25
ENDBRANCH   2  17
TORSDOF 4
ENDMDL
MODEL 6
REMARK VINA RESULT:     -11.9      1.521      2.017
REMARK  Name = 5288711
REMARK  4 active torsions:
REMARK  status: ('A' for Active; 'I' for Inactive)
REMARK    1  A    between atoms: C_1  and  S_7
REMARK    2  A    between atoms: C_2  and  N_17
REMARK    3  A    between atoms: S_7  and  N_11
REMARK    4  A    between atoms: N_17  and  C_25
REMARK                            x       y       z     vdW  Elec       q    Type
REMARK                         _______ _______ _______ _____ _____    ______ ____
ROOT
ATOM      1  C   UNL     1      34.516 -21.409 -19.089  0.00  0.00    +0.125 C 
ATOM      2  C   UNL     1      35.699 -19.375 -20.598  0.00  0.00    +0.048 C 
ATOM      3  C   UNL     1      35.903 -21.253 -19.086  0.00  0.00    +0.021 C 
ATOM      4  C   UNL     1      33.721 -20.549 -19.845  0.00  0.00    +0.021 C 
ATOM      5  C   UNL     1      36.493 -20.239 -19.838  0.00  0.00    +0.016 C 
ATOM      6  C   UNL     1      34.310 -19.533 -20.598  0.00  0.00    +0.016 C 
ENDROOT
BRANCH   1   7
ATOM      7  S   UNL     1      33.777 -22.679 -18.147  0.00  0.00    +0.075 S 
ATOM      8  O   UNL     1      32.541 -22.166 -17.569  0.00  0.00    -0.150 OA
ATOM      9  O   UNL     1      33.738 -23.878 -18.974  0.00  0.00    -0.150 OA
BRANCH   7  11
ATOM     10  S   UNL     1      34.999 -22.657 -14.125  0.00  0.00    -0.050 S 
ATOM     11  N   UNL     1      34.933 -22.878 -16.890  0.00  0.00    -0.194 N 
ATOM     12  N   UNL     1      33.450 -24.200 -15.503  0.00  0.00    -0.221 NA
ATOM     13  C   UNL     1      34.397 -23.308 -15.581  0.00  0.00    +0.179 C 
ATOM     14  C   UNL     1      33.893 -23.652 -13.272  0.00  0.00    +0.059 C 
ATOM     15  C   UNL     1      33.158 -24.399 -14.168  0.00  0.00    +0.108 C 
ATOM     16  H   UNL     1      35.894 -22.716 -17.034  0.00  0.00    +0.176 HD
ENDBRANCH   7  11
ENDBRANCH   1   7
BRANCH   2  17
ATOM     17  N   UNL     1      36.294 -18.353 -21.357  0.00  0.00    -0.311 N 
ATOM     18  H   UNL     1      37.219 -18.122 -21.111  0.00  0.00    +0.152 HD
BRANCH  17  25
ATOM     19  O   UNL     1      35.237 -16.060 -19.931  0.00  0.00    -0.270 OA
ATOM     20  N   UNL     1      34.211 -14.566 -21.446  0.00  0.00    -0.280 N 
ATOM     21  C   UNL     1      34.554 -15.693 -23.422  0.00  0.00    +0.019 C 
ATOM     22  C   UNL     1      35.130 -16.468 -22.328  0.00  0.00    +0.069 C 
ATOM     23  C   UNL     1      34.010 -14.548 -22.831  0.00  0.00    +0.051 C 
ATOM     24  C   UNL     1      34.896 -15.719 -21.048  0.00  0.00    +0.251 C 
ATOM     25  C   UNL     1      35.763 -17.641 -22.383  0.00  0.00    +0.066 C 
ATOM     26  C   UNL     1      34.472 -15.890 -24.787  0.00  0.00    +0.001 C 
ATOM     27  C   UNL     1      33.372 -13.569 -23.566  0.00  0.00    +0.015 C 
ATOM     28  C   UNL     1      33.830 -14.909 -25.552  0.00  0.00    +0.000 C 
ATOM     29  C   UNL     1      33.286 -13.761 -24.947  0.00  0.00    +0.001 C 
ATOM     30  H   UNL     1      33.909 -13.860 -20.832  0.00  0.00    +0.155 HD
ENDBRANCH  17  25
ENDBRANCH   2  17
TORSDOF 4
ENDMDL
MODEL 7
REMARK VINA RESULT:     -11.8      4.284      6.299
REMARK  Name = 5288711
REMARK  4 active torsions:
REMARK  status: ('A' for Active; 'I' for Inactive)
REMARK    1  A    between atoms: C_1  and  S_7
REMARK    2  A    between atoms: C_2  and  N_17
REMARK    3  A    between atoms: S_7  and  N_11
REMARK    4  A    between atoms: N_17  and  C_25
REMARK                            x       y       z     vdW  Elec       q    Type
REMARK                         _______ _______ _______ _____ _____    ______ ____
ROOT
ATOM      1  C   UNL     1      35.517 -23.417 -13.573  0.00  0.00    +0.125 C 
ATOM      2  C   UNL     1      34.989 -22.810 -16.250  0.00  0.00    +0.048 C 
ATOM      3  C   UNL     1      34.319 -23.826 -14.158  0.00  0.00    +0.021 C 
ATOM      4  C   UNL     1      36.452 -22.706 -14.324  0.00  0.00    +0.021 C 
ATOM      5  C   UNL     1      34.055 -23.524 -15.493  0.00  0.00    +0.016 C 
ATOM      6  C   UNL     1      36.189 -22.402 -15.660  0.00  0.00    +0.016 C 
ENDROOT
BRANCH   1   7
ATOM      7  S   UNL     1      35.848 -23.796 -11.901  0.00  0.00    +0.075 S 
ATOM      8  O   UNL     1      36.901 -22.907 -11.426  0.00  0.00    -0.150 OA
ATOM      9  O   UNL     1      34.572 -23.836 -11.196  0.00  0.00    -0.150 OA
BRANCH   7  11
ATOM     10  S   UNL     1      38.027 -26.814 -13.851  0.00  0.00    -0.050 S 
ATOM     11  N   UNL     1      36.486 -25.386 -12.039  0.00  0.00    -0.194 N 
ATOM     12  N   UNL     1      38.702 -24.624 -12.656  0.00  0.00    -0.221 NA
ATOM     13  C   UNL     1      37.755 -25.509 -12.789  0.00  0.00    +0.179 C 
ATOM     14  C   UNL     1      39.574 -26.157 -14.193  0.00  0.00    +0.059 C 
ATOM     15  C   UNL     1      39.755 -24.998 -13.468  0.00  0.00    +0.108 C 
ATOM     16  H   UNL     1      36.035 -26.166 -11.644  0.00  0.00    +0.176 HD
ENDBRANCH   7  11
ENDBRANCH   1   7
BRANCH   2  17
ATOM     17  N   UNL     1      34.723 -22.505 -17.595  0.00  0.00    -0.311 N 
ATOM     18  H   UNL     1      33.973 -22.994 -18.004  0.00  0.00    +0.152 HD
BRANCH  17  25
ATOM     19  O   UNL     1      32.518 -21.592 -19.242  0.00  0.00    -0.270 OA
ATOM     20  N   UNL     1      33.285 -20.004 -20.814  0.00  0.00    -0.280 N 
ATOM     21  C   UNL     1      35.517 -19.935 -20.266  0.00  0.00    +0.019 C 
ATOM     22  C   UNL     1      34.842 -20.884 -19.387  0.00  0.00    +0.069 C 
ATOM     23  C   UNL     1      34.526 -19.430 -21.113  0.00  0.00    +0.051 C 
ATOM     24  C   UNL     1      33.388 -20.916 -19.759  0.00  0.00    +0.251 C 
ATOM     25  C   UNL     1      35.363 -21.625 -18.407  0.00  0.00    +0.066 C 
ATOM     26  C   UNL     1      36.827 -19.509 -20.380  0.00  0.00    +0.001 C 
ATOM     27  C   UNL     1      34.796 -18.495 -22.092  0.00  0.00    +0.015 C 
ATOM     28  C   UNL     1      37.123 -18.561 -21.366  0.00  0.00    +0.000 C 
ATOM     29  C   UNL     1      36.117 -18.059 -22.212  0.00  0.00    +0.001 C 
ATOM     30  H   UNL     1      32.447 -19.794 -21.286  0.00  0.00    +0.155 HD
ENDBRANCH  17  25
ENDBRANCH   2  17
TORSDOF 4
ENDMDL
MODEL 8
REMARK VINA RESULT:     -11.4      2.453      3.033
REMARK  Name = 5288711
REMARK  4 active torsions:
REMARK  status: ('A' for Active; 'I' for Inactive)
REMARK    1  A    between atoms: C_1  and  S_7
REMARK    2  A    between atoms: C_2  and  N_17
REMARK    3  A    between atoms: S_7  and  N_11
REMARK    4  A    between atoms: N_17  and  C_25
REMARK                            x       y       z     vdW  Elec       q    Type
REMARK                         _______ _______ _______ _____ _____    ______ ____
ROOT
ATOM      1  C   UNL     1      33.994 -22.031 -18.179  0.00  0.00    +0.125 C 
ATOM      2  C   UNL     1      35.295 -20.308 -19.954  0.00  0.00    +0.048 C 
ATOM      3  C   UNL     1      35.385 -21.934 -18.164  0.00  0.00    +0.021 C 
ATOM      4  C   UNL     1      33.252 -21.268 -19.079  0.00  0.00    +0.021 C 
ATOM      5  C   UNL     1      36.034 -21.075 -19.049  0.00  0.00    +0.016 C 
ATOM      6  C   UNL     1      33.900 -20.408 -19.966  0.00  0.00    +0.016 C 
ENDROOT
BRANCH   1   7
ATOM      7  S   UNL     1      33.180 -23.108 -17.070  0.00  0.00    +0.075 S 
ATOM      8  O   UNL     1      31.753 -22.815 -17.106  0.00  0.00    -0.150 OA
ATOM      9  O   UNL     1      33.641 -24.462 -17.350  0.00  0.00    -0.150 OA
BRANCH   7  11
ATOM     10  S   UNL     1      34.567 -23.720 -13.150  0.00  0.00    -0.050 S 
ATOM     11  N   UNL     1      33.816 -22.577 -15.564  0.00  0.00    -0.194 N 
ATOM     12  N   UNL     1      35.518 -24.300 -15.483  0.00  0.00    -0.221 NA
ATOM     13  C   UNL     1      34.667 -23.548 -14.843  0.00  0.00    +0.179 C 
ATOM     14  C   UNL     1      35.782 -24.926 -13.244  0.00  0.00    +0.059 C 
ATOM     15  C   UNL     1      36.164 -25.097 -14.559  0.00  0.00    +0.108 C 
ATOM     16  H   UNL     1      33.626 -21.680 -15.204  0.00  0.00    +0.176 HD
ENDBRANCH   7  11
ENDBRANCH   1   7
BRANCH   2  17
ATOM     17  N   UNL     1      35.949 -19.443 -20.846  0.00  0.00    -0.311 N 
ATOM     18  H   UNL     1      36.727 -19.822 -21.316  0.00  0.00    +0.152 HD
BRANCH  17  25
ATOM     19  O   UNL     1      34.873 -19.749 -23.521  0.00  0.00    -0.270 OA
ATOM     20  N   UNL     1      34.232 -17.644 -24.382  0.00  0.00    -0.280 N 
ATOM     21  C   UNL     1      34.793 -16.292 -22.608  0.00  0.00    +0.019 C 
ATOM     22  C   UNL     1      35.118 -17.675 -22.272  0.00  0.00    +0.069 C 
ATOM     23  C   UNL     1      34.259 -16.331 -23.900  0.00  0.00    +0.051 C 
ATOM     24  C   UNL     1      34.746 -18.542 -23.440  0.00  0.00    +0.251 C 
ATOM     25  C   UNL     1      35.652 -18.153 -21.147  0.00  0.00    +0.066 C 
ATOM     26  C   UNL     1      34.917 -15.094 -21.931  0.00  0.00    +0.001 C 
ATOM     27  C   UNL     1      33.833 -15.195 -24.558  0.00  0.00    +0.015 C 
ATOM     28  C   UNL     1      34.491 -13.929 -22.580  0.00  0.00    +0.000 C 
ATOM     29  C   UNL     1      33.954 -13.980 -23.880  0.00  0.00    +0.001 C 
ATOM     30  H   UNL     1      33.896 -17.904 -25.270  0.00  0.00    +0.155 HD
ENDBRANCH  17  25
ENDBRANCH   2  17
TORSDOF 4
ENDMDL
MODEL 9
REMARK VINA RESULT:     -11.2      4.803      9.959
REMARK  Name = 5288711
REMARK  4 active torsions:
REMARK  status: ('A' for Active; 'I' for Inactive)
REMARK    1  A    between atoms: C_1  and  S_7
REMARK    2  A    between atoms: C_2  and  N_17
REMARK    3  A    between atoms: S_7  and  N_11
REMARK    4  A    between atoms: N_17  and  C_25
REMARK                            x       y       z     vdW  Elec       q    Type
REMARK                         _______ _______ _______ _____ _____    ______ ____
ROOT
ATOM      1  C   UNL     1      34.059 -14.203 -24.220  0.00  0.00    +0.125 C 
ATOM      2  C   UNL     1      35.046 -16.492 -22.955  0.00  0.00    +0.048 C 
ATOM      3  C   UNL     1      34.467 -14.143 -22.887  0.00  0.00    +0.021 C 
ATOM      4  C   UNL     1      34.145 -15.405 -24.921  0.00  0.00    +0.021 C 
ATOM      5  C   UNL     1      34.960 -15.285 -22.256  0.00  0.00    +0.016 C 
ATOM      6  C   UNL     1      34.637 -16.548 -24.291  0.00  0.00    +0.016 C 
ENDROOT
BRANCH   1   7
ATOM      7  S   UNL     1      33.442 -12.773 -25.010  0.00  0.00    +0.075 S 
ATOM      8  O   UNL     1      33.842 -12.811 -26.411  0.00  0.00    -0.150 OA
ATOM      9  O   UNL     1      32.030 -12.655 -24.670  0.00  0.00    -0.150 OA
BRANCH   7  11
ATOM     10  S   UNL     1      33.856  -9.005 -23.196  0.00  0.00    -0.050 S 
ATOM     11  N   UNL     1      34.337 -11.541 -24.213  0.00  0.00    -0.194 N 
ATOM     12  N   UNL     1      32.653 -11.186 -22.507  0.00  0.00    -0.221 NA
ATOM     13  C   UNL     1      33.570 -10.682 -23.285  0.00  0.00    +0.179 C 
ATOM     14  C   UNL     1      32.636  -8.903 -21.995  0.00  0.00    +0.059 C 
ATOM     15  C   UNL     1      32.112 -10.158 -21.760  0.00  0.00    +0.108 C 
ATOM     16  H   UNL     1      35.302 -11.414 -24.365  0.00  0.00    +0.176 HD
ENDBRANCH   7  11
ENDBRANCH   1   7
BRANCH   2  17
ATOM     17  N   UNL     1      35.542 -17.642 -22.319  0.00  0.00    -0.311 N 
ATOM     18  H   UNL     1      36.506 -17.808 -22.428  0.00  0.00    +0.152 HD
BRANCH  17  25
ATOM     19  O   UNL     1      37.714 -18.783 -20.774  0.00  0.00    -0.270 OA
ATOM     20  N   UNL     1      36.886 -20.457 -19.326  0.00  0.00    -0.280 N 
ATOM     21  C   UNL     1      34.650 -20.383 -19.857  0.00  0.00    +0.019 C 
ATOM     22  C   UNL     1      35.361 -19.396 -20.663  0.00  0.00    +0.069 C 
ATOM     23  C   UNL     1      35.623 -20.998 -19.063  0.00  0.00    +0.051 C 
ATOM     24  C   UNL     1      36.818 -19.459 -20.304  0.00  0.00    +0.251 C 
ATOM     25  C   UNL     1      34.868 -18.556 -21.575  0.00  0.00    +0.066 C 
ATOM     26  C   UNL     1      33.323 -20.759 -19.766  0.00  0.00    +0.001 C 
ATOM     27  C   UNL     1      35.317 -21.998 -18.162  0.00  0.00    +0.015 C 
ATOM     28  C   UNL     1      32.991 -21.771 -18.858  0.00  0.00    +0.000 C 
ATOM     29  C   UNL     1      33.979 -22.383 -18.064  0.00  0.00    +0.001 C 
ATOM     30  H   UNL     1      37.716 -20.742 -18.882  0.00  0.00    +0.155 HD
ENDBRANCH  17  25
ENDBRANCH   2  17
TORSDOF 4
ENDMDL
