MODEL 1
REMARK VINA RESULT:     -12.8      0.000      0.000
REMARK  Name = 71245288
REMARK  5 active torsions:
REMARK  status: ('A' for Active; 'I' for Inactive)
REMARK    1  A    between atoms: C_3  and  C_9
REMARK    2  A    between atoms: C_6  and  N_14
REMARK    3  A    between atoms: C_15  and  C_18
REMARK    4  A    between atoms: C_22  and  C_30
REMARK    5  A    between atoms: N_27  and  C_32
REMARK                            x       y       z     vdW  Elec       q    Type
REMARK                         _______ _______ _______ _____ _____    ______ ____
ROOT
ATOM      1  O   UNL     1      34.535 -18.516 -23.940  0.00  0.00    -0.270 OA
ATOM      2  N   UNL     1      34.719 -16.553 -22.667  0.00  0.00    -0.259 N 
ATOM      3  C   UNL     1      34.830 -17.934 -22.885  0.00  0.00    +0.253 C 
ATOM      4  H   UNL     1      34.992 -16.237 -21.776  0.00  0.00    +0.157 HD
ATOM      5  N   UNL     1      34.241 -14.271 -23.139  0.00  0.00    -0.388 NA
ATOM      6  C   UNL     1      33.799 -13.353 -24.028  0.00  0.00    +0.166 C 
ATOM      7  C   UNL     1      34.265 -15.554 -23.562  0.00  0.00    +0.167 C 
ATOM      8  C   UNL     1      33.384 -13.657 -25.315  0.00  0.00    +0.031 C 
ATOM      9  C   UNL     1      33.872 -15.961 -24.828  0.00  0.00    +0.101 C 
ATOM     10  C   UNL     1      33.424 -14.988 -25.714  0.00  0.00    -0.015 C 
ENDROOT
BRANCH   3  15
ATOM     11  F   UNL     1      37.556 -17.917 -22.210  0.00  0.00    -0.204 F 
ATOM     12  C   UNL     1      35.007 -20.243 -19.940  0.00  0.00    +0.046 C 
ATOM     13  C   UNL     1      36.370 -20.202 -19.644  0.00  0.00    -0.006 C 
ATOM     14  C   UNL     1      34.502 -19.498 -21.006  0.00  0.00    +0.021 C 
ATOM     15  C   UNL     1      35.360 -18.711 -21.775  0.00  0.00    +0.082 C 
ATOM     16  C   UNL     1      37.227 -19.416 -20.412  0.00  0.00    +0.027 C 
ATOM     17  C   UNL     1      36.943 -20.989 -18.509  0.00  0.00    +0.032 C 
ATOM     18  C   UNL     1      36.722 -18.670 -21.478  0.00  0.00    +0.144 C 
BRANCH  12  20
ATOM     19  N   UNL     1      32.229 -21.814 -18.381  0.00  0.00    -0.255 NA
ATOM     20  N   UNL     1      34.139 -21.018 -19.190  0.00  0.00    -0.282 N 
ATOM     21  C   UNL     1      33.292 -22.471 -17.814  0.00  0.00    +0.053 C 
ATOM     22  C   UNL     1      34.487 -21.995 -18.299  0.00  0.00    +0.134 C 
ATOM     23  C   UNL     1      32.773 -20.946 -19.205  0.00  0.00    +0.219 C 
BRANCH  21  24
ATOM     24  C   UNL     1      33.156 -23.584 -16.780  0.00  0.00    +0.037 C 
ATOM     25  C   UNL     1      32.275 -23.354 -15.587  0.00  0.00    +0.006 C 
ATOM     26  C   UNL     1      33.766 -23.386 -15.424  0.00  0.00    +0.006 C 
ENDBRANCH  21  24
ENDBRANCH  12  20
ENDBRANCH   3  15
BRANCH   6  30
ATOM     27  N   UNL     1      33.029 -11.574 -22.492  0.00  0.00    -0.252 N 
ATOM     28  N   UNL     1      34.493 -10.997 -24.011  0.00  0.00    -0.129 NA
ATOM     29  N   UNL     1      34.186  -9.883 -23.256  0.00  0.00    -0.128 NA
ATOM     30  C   UNL     1      33.789 -12.000 -23.538  0.00  0.00    +0.188 C 
ATOM     31  C   UNL     1      33.308 -10.248 -22.351  0.00  0.00    +0.192 C 
BRANCH  27  32
ATOM     32  C   UNL     1      32.113 -12.344 -21.684  0.00  0.00    +0.080 C 
ATOM     33  C   UNL     1      32.852 -13.170 -20.628  0.00  0.00    +0.022 C 
ATOM     34  C   UNL     1      31.051 -11.454 -21.035  0.00  0.00    +0.022 C 
ENDBRANCH  27  32
ENDBRANCH   6  30
TORSDOF 5
ENDMDL
MODEL 2
REMARK VINA RESULT:     -12.3      3.123     10.905
REMARK  Name = 71245288
REMARK  5 active torsions:
REMARK  status: ('A' for Active; 'I' for Inactive)
REMARK    1  A    between atoms: C_3  and  C_9
REMARK    2  A    between atoms: C_6  and  N_14
REMARK    3  A    between atoms: C_15  and  C_18
REMARK    4  A    between atoms: C_22  and  C_30
REMARK    5  A    between atoms: N_27  and  C_32
REMARK                            x       y       z     vdW  Elec       q    Type
REMARK                         _______ _______ _______ _____ _____    ______ ____
ROOT
ATOM      1  O   UNL     1      32.798 -13.137 -24.047  0.00  0.00    -0.270 OA
ATOM      2  N   UNL     1      33.852 -14.113 -22.191  0.00  0.00    -0.259 N 
ATOM      3  C   UNL     1      33.129 -13.109 -22.851  0.00  0.00    +0.253 C 
ATOM      4  H   UNL     1      34.040 -13.948 -21.239  0.00  0.00    +0.157 HD
ATOM      5  N   UNL     1      35.026 -16.160 -21.891  0.00  0.00    -0.388 NA
ATOM      6  C   UNL     1      35.481 -17.310 -22.436  0.00  0.00    +0.166 C 
ATOM      7  C   UNL     1      34.348 -15.331 -22.715  0.00  0.00    +0.167 C 
ATOM      8  C   UNL     1      35.288 -17.669 -23.761  0.00  0.00    +0.031 C 
ATOM      9  C   UNL     1      34.103 -15.597 -24.053  0.00  0.00    +0.101 C 
ATOM     10  C   UNL     1      34.586 -16.791 -24.578  0.00  0.00    -0.015 C 
ENDROOT
BRANCH   3  15
ATOM     11  F   UNL     1      32.016 -13.422 -20.292  0.00  0.00    -0.204 F 
ATOM     12  C   UNL     1      32.512  -9.585 -21.738  0.00  0.00    +0.046 C 
ATOM     13  C   UNL     1      31.964  -9.792 -20.472  0.00  0.00    -0.006 C 
ATOM     14  C   UNL     1      32.894 -10.676 -22.519  0.00  0.00    +0.021 C 
ATOM     15  C   UNL     1      32.729 -11.973 -22.034  0.00  0.00    +0.082 C 
ATOM     16  C   UNL     1      31.797 -11.088 -19.988  0.00  0.00    +0.027 C 
ATOM     17  C   UNL     1      31.542  -8.645 -19.610  0.00  0.00    +0.032 C 
ATOM     18  C   UNL     1      32.180 -12.179 -20.769  0.00  0.00    +0.144 C 
BRANCH  12  20
ATOM     19  N   UNL     1      33.632  -6.335 -22.631  0.00  0.00    -0.255 NA
ATOM     20  N   UNL     1      32.685  -8.306 -22.238  0.00  0.00    -0.282 N 
ATOM     21  C   UNL     1      32.421  -6.412 -23.271  0.00  0.00    +0.053 C 
ATOM     22  C   UNL     1      31.814  -7.625 -23.042  0.00  0.00    +0.134 C 
ATOM     23  C   UNL     1      33.762  -7.491 -22.019  0.00  0.00    +0.219 C 
BRANCH  21  24
ATOM     24  C   UNL     1      31.831  -5.293 -24.123  0.00  0.00    +0.037 C 
ATOM     25  C   UNL     1      32.604  -4.812 -25.316  0.00  0.00    +0.006 C 
ATOM     26  C   UNL     1      32.488  -3.945 -24.096  0.00  0.00    +0.006 C 
ENDBRANCH  21  24
ENDBRANCH  12  20
ENDBRANCH   3  15
BRANCH   6  30
ATOM     27  N   UNL     1      35.602 -19.079 -20.711  0.00  0.00    -0.252 N 
ATOM     28  N   UNL     1      37.498 -18.193 -21.348  0.00  0.00    -0.129 NA
ATOM     29  N   UNL     1      37.764 -19.151 -20.391  0.00  0.00    -0.128 NA
ATOM     30  C   UNL     1      36.197 -18.164 -21.526  0.00  0.00    +0.188 C 
ATOM     31  C   UNL     1      36.616 -19.671 -20.022  0.00  0.00    +0.192 C 
BRANCH  27  32
ATOM     32  C   UNL     1      34.196 -19.379 -20.586  0.00  0.00    +0.080 C 
ATOM     33  C   UNL     1      33.542 -19.592 -21.954  0.00  0.00    +0.022 C 
ATOM     34  C   UNL     1      33.956 -20.584 -19.674  0.00  0.00    +0.022 C 
ENDBRANCH  27  32
ENDBRANCH   6  30
TORSDOF 5
ENDMDL
MODEL 3
REMARK VINA RESULT:     -12.2      3.172      6.128
REMARK  Name = 71245288
REMARK  5 active torsions:
REMARK  status: ('A' for Active; 'I' for Inactive)
REMARK    1  A    between atoms: C_3  and  C_9
REMARK    2  A    between atoms: C_6  and  N_14
REMARK    3  A    between atoms: C_15  and  C_18
REMARK    4  A    between atoms: C_22  and  C_30
REMARK    5  A    between atoms: N_27  and  C_32
REMARK                            x       y       z     vdW  Elec       q    Type
REMARK                         _______ _______ _______ _____ _____    ______ ____
ROOT
ATOM      1  O   UNL     1      36.710 -21.329 -18.072  0.00  0.00    -0.270 OA
ATOM      2  N   UNL     1      34.946 -20.620 -19.447  0.00  0.00    -0.259 N 
ATOM      3  C   UNL     1      35.506 -21.320 -18.368  0.00  0.00    +0.253 C 
ATOM      4  H   UNL     1      33.971 -20.710 -19.555  0.00  0.00    +0.157 HD
ATOM      5  N   UNL     1      34.856 -19.219 -21.366  0.00  0.00    -0.388 NA
ATOM      6  C   UNL     1      35.523 -18.448 -22.254  0.00  0.00    +0.166 C 
ATOM      7  C   UNL     1      35.599 -19.803 -20.401  0.00  0.00    +0.167 C 
ATOM      8  C   UNL     1      36.892 -18.235 -22.221  0.00  0.00    +0.031 C 
ATOM      9  C   UNL     1      36.971 -19.653 -20.280  0.00  0.00    +0.101 C 
ATOM     10  C   UNL     1      37.623 -18.852 -21.212  0.00  0.00    -0.015 C 
ENDROOT
BRANCH   3  15
ATOM     11  F   UNL     1      32.848 -21.779 -19.150  0.00  0.00    -0.204 F 
ATOM     12  C   UNL     1      34.087 -23.281 -15.508  0.00  0.00    +0.046 C 
ATOM     13  C   UNL     1      32.776 -23.483 -15.940  0.00  0.00    -0.006 C 
ATOM     14  C   UNL     1      34.983 -22.569 -16.306  0.00  0.00    +0.021 C 
ATOM     15  C   UNL     1      34.569 -22.061 -17.537  0.00  0.00    +0.082 C 
ATOM     16  C   UNL     1      32.362 -22.974 -17.170  0.00  0.00    +0.027 C 
ATOM     17  C   UNL     1      31.790 -24.239 -15.108  0.00  0.00    +0.032 C 
ATOM     18  C   UNL     1      33.258 -22.263 -17.969  0.00  0.00    +0.144 C 
BRANCH  12  20
ATOM     19  N   UNL     1      34.518 -24.262 -12.121  0.00  0.00    -0.255 NA
ATOM     20  N   UNL     1      34.519 -23.777 -14.289  0.00  0.00    -0.282 N 
ATOM     21  C   UNL     1      35.668 -24.728 -12.709  0.00  0.00    +0.053 C 
ATOM     22  C   UNL     1      35.691 -24.439 -14.053  0.00  0.00    +0.134 C 
ATOM     23  C   UNL     1      33.849 -23.695 -13.100  0.00  0.00    +0.219 C 
BRANCH  21  24
ATOM     24  C   UNL     1      36.771 -25.468 -11.960  0.00  0.00    +0.037 C 
ATOM     25  C   UNL     1      38.028 -24.726 -11.610  0.00  0.00    +0.006 C 
ATOM     26  C   UNL     1      38.050 -25.777 -12.682  0.00  0.00    +0.006 C 
ENDBRANCH  21  24
ENDBRANCH  12  20
ENDBRANCH   3  15
BRANCH   6  30
ATOM     27  N   UNL     1      34.509 -16.502 -23.396  0.00  0.00    -0.252 N 
ATOM     28  N   UNL     1      34.017 -18.479 -24.194  0.00  0.00    -0.129 NA
ATOM     29  N   UNL     1      33.365 -17.527 -24.953  0.00  0.00    -0.128 NA
ATOM     30  C   UNL     1      34.696 -17.845 -23.266  0.00  0.00    +0.188 C 
ATOM     31  C   UNL     1      33.672 -16.350 -24.460  0.00  0.00    +0.192 C 
BRANCH  27  32
ATOM     32  C   UNL     1      35.068 -15.443 -22.591  0.00  0.00    +0.080 C 
ATOM     33  C   UNL     1      34.574 -14.068 -23.049  0.00  0.00    +0.022 C 
ATOM     34  C   UNL     1      34.782 -15.656 -21.103  0.00  0.00    +0.022 C 
ENDBRANCH  27  32
ENDBRANCH   6  30
TORSDOF 5
ENDMDL
MODEL 4
REMARK VINA RESULT:     -11.7      2.398      9.501
REMARK  Name = 71245288
REMARK  5 active torsions:
REMARK  status: ('A' for Active; 'I' for Inactive)
REMARK    1  A    between atoms: C_3  and  C_9
REMARK    2  A    between atoms: C_6  and  N_14
REMARK    3  A    between atoms: C_15  and  C_18
REMARK    4  A    between atoms: C_22  and  C_30
REMARK    5  A    between atoms: N_27  and  C_32
REMARK                            x       y       z     vdW  Elec       q    Type
REMARK                         _______ _______ _______ _____ _____    ______ ____
ROOT
ATOM      1  O   UNL     1      33.144 -15.659 -25.600  0.00  0.00    -0.270 OA
ATOM      2  N   UNL     1      34.269 -15.758 -23.543  0.00  0.00    -0.259 N 
ATOM      3  C   UNL     1      33.630 -15.100 -24.604  0.00  0.00    +0.253 C 
ATOM      4  H   UNL     1      34.604 -15.179 -22.821  0.00  0.00    +0.157 HD
ATOM      5  N   UNL     1      35.141 -17.564 -22.264  0.00  0.00    -0.388 NA
ATOM      6  C   UNL     1      35.337 -18.896 -22.148  0.00  0.00    +0.166 C 
ATOM      7  C   UNL     1      34.498 -17.145 -23.375  0.00  0.00    +0.167 C 
ATOM      8  C   UNL     1      34.919 -19.825 -23.088  0.00  0.00    +0.031 C 
ATOM      9  C   UNL     1      34.040 -17.992 -24.372  0.00  0.00    +0.101 C 
ATOM     10  C   UNL     1      34.259 -19.357 -24.218  0.00  0.00    -0.015 C 
ENDROOT
BRANCH   3  15
ATOM     11  F   UNL     1      34.254 -13.366 -26.722  0.00  0.00    -0.204 F 
ATOM     12  C   UNL     1      32.990 -11.704 -23.159  0.00  0.00    +0.046 C 
ATOM     13  C   UNL     1      33.311 -10.883 -24.240  0.00  0.00    -0.006 C 
ATOM     14  C   UNL     1      33.095 -13.090 -23.279  0.00  0.00    +0.021 C 
ATOM     15  C   UNL     1      33.521 -13.655 -24.481  0.00  0.00    +0.082 C 
ATOM     16  C   UNL     1      33.738 -11.448 -25.441  0.00  0.00    +0.027 C 
ATOM     17  C   UNL     1      33.211  -9.394 -24.144  0.00  0.00    +0.032 C 
ATOM     18  C   UNL     1      33.843 -12.834 -25.562  0.00  0.00    +0.144 C 
BRANCH  12  20
ATOM     19  N   UNL     1      31.755 -11.062 -19.891  0.00  0.00    -0.255 NA
ATOM     20  N   UNL     1      32.565 -11.163 -21.957  0.00  0.00    -0.282 N 
ATOM     21  C   UNL     1      32.057  -9.802 -20.342  0.00  0.00    +0.053 C 
ATOM     22  C   UNL     1      32.560  -9.838 -21.620  0.00  0.00    +0.134 C 
ATOM     23  C   UNL     1      32.073 -11.859 -20.887  0.00  0.00    +0.219 C 
BRANCH  21  24
ATOM     24  C   UNL     1      31.856  -8.530 -19.523  0.00  0.00    +0.037 C 
ATOM     25  C   UNL     1      31.562  -7.248 -20.245  0.00  0.00    +0.006 C 
ATOM     26  C   UNL     1      32.899  -7.455 -19.595  0.00  0.00    +0.006 C 
ENDBRANCH  21  24
ENDBRANCH  12  20
ENDBRANCH   3  15
BRANCH   6  30
ATOM     27  N   UNL     1      35.537 -20.207 -20.060  0.00  0.00    -0.252 N 
ATOM     28  N   UNL     1      37.199 -18.871 -20.547  0.00  0.00    -0.129 NA
ATOM     29  N   UNL     1      37.488 -19.511 -19.359  0.00  0.00    -0.128 NA
ATOM     30  C   UNL     1      36.026 -19.301 -20.951  0.00  0.00    +0.188 C 
ATOM     31  C   UNL     1      36.481 -20.308 -19.084  0.00  0.00    +0.192 C 
BRANCH  27  32
ATOM     32  C   UNL     1      34.286 -20.925 -20.115  0.00  0.00    +0.080 C 
ATOM     33  C   UNL     1      34.225 -22.031 -19.058  0.00  0.00    +0.022 C 
ATOM     34  C   UNL     1      33.089 -19.982 -19.985  0.00  0.00    +0.022 C 
ENDBRANCH  27  32
ENDBRANCH   6  30
TORSDOF 5
ENDMDL
MODEL 5
REMARK VINA RESULT:     -11.6      3.069      5.618
REMARK  Name = 71245288
REMARK  5 active torsions:
REMARK  status: ('A' for Active; 'I' for Inactive)
REMARK    1  A    between atoms: C_3  and  C_9
REMARK    2  A    between atoms: C_6  and  N_14
REMARK    3  A    between atoms: C_15  and  C_18
REMARK    4  A    between atoms: C_22  and  C_30
REMARK    5  A    between atoms: N_27  and  C_32
REMARK                            x       y       z     vdW  Elec       q    Type
REMARK                         _______ _______ _______ _____ _____    ______ ____
ROOT
ATOM      1  O   UNL     1      36.568 -21.762 -19.369  0.00  0.00    -0.270 OA
ATOM      2  N   UNL     1      35.045 -19.978 -19.428  0.00  0.00    -0.259 N 
ATOM      3  C   UNL     1      35.511 -21.229 -18.998  0.00  0.00    +0.253 C 
ATOM      4  H   UNL     1      34.187 -19.686 -19.045  0.00  0.00    +0.157 HD
ATOM      5  N   UNL     1      35.018 -17.916 -20.614  0.00  0.00    -0.388 NA
ATOM      6  C   UNL     1      35.631 -17.091 -21.492  0.00  0.00    +0.166 C 
ATOM      7  C   UNL     1      35.648 -19.080 -20.342  0.00  0.00    +0.167 C 
ATOM      8  C   UNL     1      36.840 -17.375 -22.107  0.00  0.00    +0.031 C 
ATOM      9  C   UNL     1      36.858 -19.456 -20.903  0.00  0.00    +0.101 C 
ATOM     10  C   UNL     1      37.459 -18.582 -21.802  0.00  0.00    -0.015 C 
ENDROOT
BRANCH   3  15
ATOM     11  F   UNL     1      32.724 -21.429 -19.284  0.00  0.00    -0.204 F 
ATOM     12  C   UNL     1      34.466 -23.159 -15.962  0.00  0.00    +0.046 C 
ATOM     13  C   UNL     1      33.085 -23.232 -16.148  0.00  0.00    -0.006 C 
ATOM     14  C   UNL     1      35.262 -22.500 -16.899  0.00  0.00    +0.021 C 
ATOM     15  C   UNL     1      34.678 -21.915 -18.023  0.00  0.00    +0.082 C 
ATOM     16  C   UNL     1      32.501 -22.646 -17.270  0.00  0.00    +0.027 C 
ATOM     17  C   UNL     1      32.203 -23.929 -15.163  0.00  0.00    +0.032 C 
ATOM     18  C   UNL     1      33.297 -21.988 -18.208  0.00  0.00    +0.144 C 
BRANCH  12  20
ATOM     19  N   UNL     1      35.999 -25.278 -13.559  0.00  0.00    -0.255 NA
ATOM     20  N   UNL     1      35.066 -23.733 -14.854  0.00  0.00    -0.282 N 
ATOM     21  C   UNL     1      35.949 -24.076 -12.899  0.00  0.00    +0.053 C 
ATOM     22  C   UNL     1      35.374 -23.102 -13.682  0.00  0.00    +0.134 C 
ATOM     23  C   UNL     1      35.460 -25.037 -14.733  0.00  0.00    +0.219 C 
BRANCH  21  24
ATOM     24  C   UNL     1      36.466 -23.857 -11.480  0.00  0.00    +0.037 C 
ATOM     25  C   UNL     1      37.382 -22.697 -11.218  0.00  0.00    +0.006 C 
ATOM     26  C   UNL     1      37.920 -24.098 -11.199  0.00  0.00    +0.006 C 
ENDBRANCH  21  24
ENDBRANCH  12  20
ENDBRANCH   3  15
BRANCH   6  30
ATOM     27  N   UNL     1      34.471 -15.495 -22.983  0.00  0.00    -0.252 N 
ATOM     28  N   UNL     1      34.627 -14.937 -20.873  0.00  0.00    -0.129 NA
ATOM     29  N   UNL     1      33.954 -13.933 -21.542  0.00  0.00    -0.128 NA
ATOM     30  C   UNL     1      34.928 -15.863 -21.755  0.00  0.00    +0.188 C 
ATOM     31  C   UNL     1      33.870 -14.286 -22.804  0.00  0.00    +0.192 C 
BRANCH  27  32
ATOM     32  C   UNL     1      34.583 -16.216 -24.229  0.00  0.00    +0.080 C 
ATOM     33  C   UNL     1      33.928 -17.597 -24.141  0.00  0.00    +0.022 C 
ATOM     34  C   UNL     1      34.007 -15.413 -25.397  0.00  0.00    +0.022 C 
ENDBRANCH  27  32
ENDBRANCH   6  30
TORSDOF 5
ENDMDL
MODEL 6
REMARK VINA RESULT:     -11.4      1.703     10.210
REMARK  Name = 71245288
REMARK  5 active torsions:
REMARK  status: ('A' for Active; 'I' for Inactive)
REMARK    1  A    between atoms: C_3  and  C_9
REMARK    2  A    between atoms: C_6  and  N_14
REMARK    3  A    between atoms: C_15  and  C_18
REMARK    4  A    between atoms: C_22  and  C_30
REMARK    5  A    between atoms: N_27  and  C_32
REMARK                            x       y       z     vdW  Elec       q    Type
REMARK                         _______ _______ _______ _____ _____    ______ ____
ROOT
ATOM      1  O   UNL     1      36.977 -18.782 -21.590  0.00  0.00    -0.270 OA
ATOM      2  N   UNL     1      34.863 -19.453 -20.822  0.00  0.00    -0.259 N 
ATOM      3  C   UNL     1      35.738 -18.732 -21.648  0.00  0.00    +0.253 C 
ATOM      4  H   UNL     1      33.904 -19.309 -20.987  0.00  0.00    +0.157 HD
ATOM      5  N   UNL     1      34.168 -20.946 -19.106  0.00  0.00    -0.388 NA
ATOM      6  C   UNL     1      34.519 -21.803 -18.121  0.00  0.00    +0.166 C 
ATOM      7  C   UNL     1      35.180 -20.358 -19.780  0.00  0.00    +0.167 C 
ATOM      8  C   UNL     1      35.829 -22.097 -17.781  0.00  0.00    +0.031 C 
ATOM      9  C   UNL     1      36.522 -20.586 -19.517  0.00  0.00    +0.101 C 
ATOM     10  C   UNL     1      36.844 -21.473 -18.497  0.00  0.00    -0.015 C 
ENDROOT
BRANCH   3  15
ATOM     11  F   UNL     1      34.734 -19.776 -24.054  0.00  0.00    -0.204 F 
ATOM     12  C   UNL     1      34.393 -15.711 -23.407  0.00  0.00    +0.046 C 
ATOM     13  C   UNL     1      33.909 -16.276 -24.587  0.00  0.00    -0.006 C 
ATOM     14  C   UNL     1      34.995 -16.519 -22.442  0.00  0.00    +0.021 C 
ATOM     15  C   UNL     1      35.111 -17.892 -22.656  0.00  0.00    +0.082 C 
ATOM     16  C   UNL     1      34.027 -17.648 -24.802  0.00  0.00    +0.027 C 
ATOM     17  C   UNL     1      33.261 -15.438 -25.642  0.00  0.00    +0.032 C 
ATOM     18  C   UNL     1      34.628 -18.457 -23.836  0.00  0.00    +0.144 C 
BRANCH  12  20
ATOM     19  N   UNL     1      34.218 -12.428 -22.062  0.00  0.00    -0.255 NA
ATOM     20  N   UNL     1      34.287 -14.350 -23.174  0.00  0.00    -0.282 N 
ATOM     21  C   UNL     1      34.061 -12.201 -23.407  0.00  0.00    +0.053 C 
ATOM     22  C   UNL     1      34.100 -13.378 -24.117  0.00  0.00    +0.134 C 
ATOM     23  C   UNL     1      34.352 -13.731 -21.956  0.00  0.00    +0.219 C 
BRANCH  21  24
ATOM     24  C   UNL     1      33.868 -10.820 -24.024  0.00  0.00    +0.037 C 
ATOM     25  C   UNL     1      34.994 -10.222 -24.817  0.00  0.00    +0.006 C 
ATOM     26  C   UNL     1      34.648  -9.666 -23.466  0.00  0.00    +0.006 C 
ENDBRANCH  21  24
ENDBRANCH  12  20
ENDBRANCH   3  15
BRANCH   6  30
ATOM     27  N   UNL     1      33.535 -23.138 -16.286  0.00  0.00    -0.252 N 
ATOM     28  N   UNL     1      32.148 -22.346 -17.780  0.00  0.00    -0.129 NA
ATOM     29  N   UNL     1      31.422 -23.057 -16.845  0.00  0.00    -0.128 NA
ATOM     30  C   UNL     1      33.412 -22.407 -17.428  0.00  0.00    +0.188 C 
ATOM     31  C   UNL     1      32.271 -23.523 -15.958  0.00  0.00    +0.192 C 
BRANCH  27  32
ATOM     32  C   UNL     1      34.739 -23.453 -15.555  0.00  0.00    +0.080 C 
ATOM     33  C   UNL     1      34.998 -22.443 -14.435  0.00  0.00    +0.022 C 
ATOM     34  C   UNL     1      34.707 -24.880 -15.005  0.00  0.00    +0.022 C 
ENDBRANCH  27  32
ENDBRANCH   6  30
TORSDOF 5
ENDMDL
MODEL 7
REMARK VINA RESULT:     -11.0      1.378      2.165
REMARK  Name = 71245288
REMARK  5 active torsions:
REMARK  status: ('A' for Active; 'I' for Inactive)
REMARK    1  A    between atoms: C_3  and  C_9
REMARK    2  A    between atoms: C_6  and  N_14
REMARK    3  A    between atoms: C_15  and  C_18
REMARK    4  A    between atoms: C_22  and  C_30
REMARK    5  A    between atoms: N_27  and  C_32
REMARK                            x       y       z     vdW  Elec       q    Type
REMARK                         _______ _______ _______ _____ _____    ______ ____
ROOT
ATOM      1  O   UNL     1      35.151 -19.395 -23.293  0.00  0.00    -0.270 OA
ATOM      2  N   UNL     1      34.798 -17.459 -22.015  0.00  0.00    -0.259 N 
ATOM      3  C   UNL     1      35.157 -18.802 -22.204  0.00  0.00    +0.253 C 
ATOM      4  H   UNL     1      34.853 -17.128 -21.090  0.00  0.00    +0.157 HD
ATOM      5  N   UNL     1      34.071 -15.264 -22.574  0.00  0.00    -0.388 NA
ATOM      6  C   UNL     1      33.664 -14.402 -23.532  0.00  0.00    +0.166 C 
ATOM      7  C   UNL     1      34.368 -16.518 -22.982  0.00  0.00    +0.167 C 
ATOM      8  C   UNL     1      33.542 -14.733 -24.872  0.00  0.00    +0.031 C 
ATOM      9  C   UNL     1      34.278 -16.948 -24.296  0.00  0.00    +0.101 C 
ATOM     10  C   UNL     1      33.856 -16.032 -25.253  0.00  0.00    -0.015 C 
ENDROOT
BRANCH   3  15
ATOM     11  F   UNL     1      37.724 -18.483 -21.111  0.00  0.00    -0.204 F 
ATOM     12  C   UNL     1      35.122 -21.082 -19.232  0.00  0.00    +0.046 C 
ATOM     13  C   UNL     1      36.408 -20.890 -18.727  0.00  0.00    -0.006 C 
ATOM     14  C   UNL     1      34.712 -20.396 -20.375  0.00  0.00    +0.021 C 
ATOM     15  C   UNL     1      35.588 -19.517 -21.012  0.00  0.00    +0.082 C 
ATOM     16  C   UNL     1      37.284 -20.013 -19.364  0.00  0.00    +0.027 C 
ATOM     17  C   UNL     1      36.880 -21.612 -17.505  0.00  0.00    +0.032 C 
ATOM     18  C   UNL     1      36.873 -19.326 -20.507  0.00  0.00    +0.144 C 
BRANCH  12  20
ATOM     19  N   UNL     1      33.240 -23.854 -18.051  0.00  0.00    -0.255 NA
ATOM     20  N   UNL     1      34.237 -21.950 -18.614  0.00  0.00    -0.282 N 
ATOM     21  C   UNL     1      32.648 -22.800 -17.400  0.00  0.00    +0.053 C 
ATOM     22  C   UNL     1      33.249 -21.609 -17.734  0.00  0.00    +0.134 C 
ATOM     23  C   UNL     1      34.193 -23.308 -18.773  0.00  0.00    +0.219 C 
BRANCH  21  24
ATOM     24  C   UNL     1      31.475 -22.941 -16.435  0.00  0.00    +0.037 C 
ATOM     25  C   UNL     1      31.714 -22.705 -14.972  0.00  0.00    +0.006 C 
ATOM     26  C   UNL     1      31.466 -24.097 -15.478  0.00  0.00    +0.006 C 
ENDBRANCH  21  24
ENDBRANCH  12  20
ENDBRANCH   3  15
BRANCH   6  30
ATOM     27  N   UNL     1      33.626 -11.938 -23.753  0.00  0.00    -0.252 N 
ATOM     28  N   UNL     1      32.787 -12.775 -21.914  0.00  0.00    -0.129 NA
ATOM     29  N   UNL     1      32.679 -11.400 -21.856  0.00  0.00    -0.128 NA
ATOM     30  C   UNL     1      33.358 -13.078 -23.057  0.00  0.00    +0.188 C 
ATOM     31  C   UNL     1      33.186 -10.917 -22.966  0.00  0.00    +0.192 C 
BRANCH  27  32
ATOM     32  C   UNL     1      34.243 -11.811 -25.051  0.00  0.00    +0.080 C 
ATOM     33  C   UNL     1      33.210 -11.901 -26.177  0.00  0.00    +0.022 C 
ATOM     34  C   UNL     1      35.060 -10.521 -25.162  0.00  0.00    +0.022 C 
ENDBRANCH  27  32
ENDBRANCH   6  30
TORSDOF 5
ENDMDL
MODEL 8
REMARK VINA RESULT:     -10.7      4.077      7.243
REMARK  Name = 71245288
REMARK  5 active torsions:
REMARK  status: ('A' for Active; 'I' for Inactive)
REMARK    1  A    between atoms: C_3  and  C_9
REMARK    2  A    between atoms: C_6  and  N_14
REMARK    3  A    between atoms: C_15  and  C_18
REMARK    4  A    between atoms: C_22  and  C_30
REMARK    5  A    between atoms: N_27  and  C_32
REMARK                            x       y       z     vdW  Elec       q    Type
REMARK                         _______ _______ _______ _____ _____    ______ ____
ROOT
ATOM      1  O   UNL     1      32.198 -11.456 -21.175  0.00  0.00    -0.270 OA
ATOM      2  N   UNL     1      33.129 -10.153 -22.891  0.00  0.00    -0.259 N 
ATOM      3  C   UNL     1      32.839 -11.357 -22.233  0.00  0.00    +0.253 C 
ATOM      4  H   UNL     1      33.648 -10.235 -23.723  0.00  0.00    +0.157 HD
ATOM      5  N   UNL     1      33.163  -7.811 -23.303  0.00  0.00    -0.388 NA
ATOM      6  C   UNL     1      32.801  -6.572 -22.902  0.00  0.00    +0.166 C 
ATOM      7  C   UNL     1      32.774  -8.835 -22.513  0.00  0.00    +0.167 C 
ATOM      8  C   UNL     1      32.071  -6.311 -21.754  0.00  0.00    +0.031 C 
ATOM      9  C   UNL     1      32.043  -8.681 -21.346  0.00  0.00    +0.101 C 
ATOM     10  C   UNL     1      31.688  -7.391 -20.966  0.00  0.00    -0.015 C 
ENDROOT
BRANCH   3  15
ATOM     11  F   UNL     1      32.840 -11.659 -25.025  0.00  0.00    -0.204 F 
ATOM     12  C   UNL     1      34.261 -14.787 -22.734  0.00  0.00    +0.046 C 
ATOM     13  C   UNL     1      34.241 -14.889 -24.125  0.00  0.00    -0.006 C 
ATOM     14  C   UNL     1      33.799 -13.626 -22.113  0.00  0.00    +0.021 C 
ATOM     15  C   UNL     1      33.319 -12.567 -22.883  0.00  0.00    +0.082 C 
ATOM     16  C   UNL     1      33.760 -13.831 -24.895  0.00  0.00    +0.027 C 
ATOM     17  C   UNL     1      34.727 -16.120 -24.822  0.00  0.00    +0.032 C 
ATOM     18  C   UNL     1      33.300 -12.670 -24.274  0.00  0.00    +0.144 C 
BRANCH  12  20
ATOM     19  N   UNL     1      35.426 -16.927 -20.149  0.00  0.00    -0.255 NA
ATOM     20  N   UNL     1      34.734 -15.826 -21.950  0.00  0.00    -0.282 N 
ATOM     21  C   UNL     1      35.459 -17.750 -21.246  0.00  0.00    +0.053 C 
ATOM     22  C   UNL     1      35.034 -17.090 -22.376  0.00  0.00    +0.134 C 
ATOM     23  C   UNL     1      34.985 -15.777 -20.607  0.00  0.00    +0.219 C 
BRANCH  21  24
ATOM     24  C   UNL     1      35.910 -19.207 -21.209  0.00  0.00    +0.037 C 
ATOM     25  C   UNL     1      35.243 -20.142 -20.243  0.00  0.00    +0.006 C 
ATOM     26  C   UNL     1      36.658 -19.699 -20.005  0.00  0.00    +0.006 C 
ENDBRANCH  21  24
ENDBRANCH  12  20
ENDBRANCH   3  15
BRANCH   6  30
ATOM     27  N   UNL     1      32.643  -4.284 -23.829  0.00  0.00    -0.252 N 
ATOM     28  N   UNL     1      34.239  -5.557 -24.615  0.00  0.00    -0.129 NA
ATOM     29  N   UNL     1      34.309  -4.330 -25.246  0.00  0.00    -0.128 NA
ATOM     30  C   UNL     1      33.234  -5.509 -23.771  0.00  0.00    +0.188 C 
ATOM     31  C   UNL     1      33.345  -3.581 -24.761  0.00  0.00    +0.192 C 
BRANCH  27  32
ATOM     32  C   UNL     1      31.511  -3.804 -23.073  0.00  0.00    +0.080 C 
ATOM     33  C   UNL     1      31.947  -2.883 -21.930  0.00  0.00    +0.022 C 
ATOM     34  C   UNL     1      30.488  -3.107 -23.972  0.00  0.00    +0.022 C 
ENDBRANCH  27  32
ENDBRANCH   6  30
TORSDOF 5
ENDMDL
MODEL 9
REMARK VINA RESULT:     -10.0      3.007      5.636
REMARK  Name = 71245288
REMARK  5 active torsions:
REMARK  status: ('A' for Active; 'I' for Inactive)
REMARK    1  A    between atoms: C_3  and  C_9
REMARK    2  A    between atoms: C_6  and  N_14
REMARK    3  A    between atoms: C_15  and  C_18
REMARK    4  A    between atoms: C_22  and  C_30
REMARK    5  A    between atoms: N_27  and  C_32
REMARK                            x       y       z     vdW  Elec       q    Type
REMARK                         _______ _______ _______ _____ _____    ______ ____
ROOT
ATOM      1  O   UNL     1      33.260 -13.533 -19.938  0.00  0.00    -0.270 OA
ATOM      2  N   UNL     1      32.938 -12.216 -21.853  0.00  0.00    -0.259 N 
ATOM      3  C   UNL     1      33.313 -13.381 -21.168  0.00  0.00    +0.253 C 
ATOM      4  H   UNL     1      33.037 -12.245 -22.832  0.00  0.00    +0.157 HD
ATOM      5  N   UNL     1      32.138  -9.998 -22.173  0.00  0.00    -0.388 NA
ATOM      6  C   UNL     1      31.665  -8.860 -21.618  0.00  0.00    +0.166 C 
ATOM      7  C   UNL     1      32.438 -11.003 -21.320  0.00  0.00    +0.167 C 
ATOM      8  C   UNL     1      31.477  -8.681 -20.257  0.00  0.00    +0.031 C 
ATOM      9  C   UNL     1      32.286 -10.924 -19.945  0.00  0.00    +0.101 C 
ATOM     10  C   UNL     1      31.796  -9.737 -19.411  0.00  0.00    -0.015 C 
ENDROOT
BRANCH   3  15
ATOM     11  F   UNL     1      32.997 -13.389 -23.959  0.00  0.00    -0.204 F 
ATOM     12  C   UNL     1      34.826 -16.648 -22.201  0.00  0.00    +0.046 C 
ATOM     13  C   UNL     1      34.647 -16.607 -23.584  0.00  0.00    -0.006 C 
ATOM     14  C   UNL     1      34.387 -15.588 -21.408  0.00  0.00    +0.021 C 
ATOM     15  C   UNL     1      33.769 -14.485 -21.998  0.00  0.00    +0.082 C 
ATOM     16  C   UNL     1      34.028 -15.505 -24.173  0.00  0.00    +0.027 C 
ATOM     17  C   UNL     1      35.104 -17.727 -24.462  0.00  0.00    +0.032 C 
ATOM     18  C   UNL     1      33.590 -14.444 -23.380  0.00  0.00    +0.144 C 
BRANCH  12  20
ATOM     19  N   UNL     1      37.040 -19.000 -20.722  0.00  0.00    -0.255 NA
ATOM     20  N   UNL     1      35.437 -17.733 -21.595  0.00  0.00    -0.282 N 
ATOM     21  C   UNL     1      35.833 -19.650 -20.650  0.00  0.00    +0.053 C 
ATOM     22  C   UNL     1      34.824 -18.885 -21.186  0.00  0.00    +0.134 C 
ATOM     23  C   UNL     1      36.766 -17.849 -21.295  0.00  0.00    +0.219 C 
BRANCH  21  24
ATOM     24  C   UNL     1      35.646 -21.041 -20.053  0.00  0.00    +0.037 C 
ATOM     25  C   UNL     1      34.551 -21.251 -19.048  0.00  0.00    +0.006 C 
ATOM     26  C   UNL     1      35.986 -21.256 -18.608  0.00  0.00    +0.006 C 
ENDBRANCH  21  24
ENDBRANCH  12  20
ENDBRANCH   3  15
BRANCH   6  30
ATOM     27  N   UNL     1      32.278  -6.943 -23.056  0.00  0.00    -0.252 N 
ATOM     28  N   UNL     1      30.177  -7.553 -23.072  0.00  0.00    -0.129 NA
ATOM     29  N   UNL     1      30.325  -6.479 -23.926  0.00  0.00    -0.128 NA
ATOM     30  C   UNL     1      31.358  -7.816 -22.560  0.00  0.00    +0.188 C 
ATOM     31  C   UNL     1      31.590  -6.128 -23.904  0.00  0.00    +0.192 C 
BRANCH  27  32
ATOM     32  C   UNL     1      33.690  -6.875 -22.765  0.00  0.00    +0.080 C 
ATOM     33  C   UNL     1      34.393  -5.824 -23.628  0.00  0.00    +0.022 C 
ATOM     34  C   UNL     1      33.946  -6.619 -21.278  0.00  0.00    +0.022 C 
ENDBRANCH  27  32
ENDBRANCH   6  30
TORSDOF 5
ENDMDL
