MODEL 1
REMARK VINA RESULT:     -11.7      0.000      0.000
REMARK  Name = 11998575
REMARK  7 active torsions:
REMARK  status: ('A' for Active; 'I' for Inactive)
REMARK    1  A    between atoms: C_6  and  C_18
REMARK    2  A    between atoms: C_14  and  O_22
REMARK    3  A    between atoms: C_15  and  O_16
REMARK    4  A    between atoms: C_18  and  O_20
REMARK    5  A    between atoms: O_22  and  C_23
REMARK    6  A    between atoms: C_23  and  C_24
REMARK    7  A    between atoms: C_29  and  O_30
REMARK                            x       y       z     vdW  Elec       q    Type
REMARK                         _______ _______ _______ _____ _____    ______ ____
ROOT
ATOM      1  O   UNL     1      32.725 -22.077 -18.373  0.00  0.00    -0.421 OA
ATOM      2  O   UNL     1      32.226 -20.874 -20.244  0.00  0.00    -0.244 OA
ATOM      3  C   UNL     1      35.417 -21.229 -18.543  0.00  0.00    +0.009 A 
ATOM      4  C   UNL     1      34.989 -22.121 -17.458  0.00  0.00    +0.038 A 
ATOM      5  C   UNL     1      34.477 -20.801 -19.496  0.00  0.00    +0.076 A 
ATOM      6  C   UNL     1      36.160 -19.508 -20.666  0.00  0.00    +0.004 C 
ATOM      7  C   UNL     1      33.652 -22.520 -17.405  0.00  0.00    +0.152 A 
ATOM      8  C   UNL     1      34.846 -19.947 -20.548  0.00  0.00    +0.004 C 
ATOM      9  C   UNL     1      36.740 -20.768 -18.688  0.00  0.00    +0.000 C 
ATOM     10  C   UNL     1      35.832 -22.615 -16.450  0.00  0.00    +0.043 C 
ATOM     11  C   UNL     1      37.107 -19.918 -19.736  0.00  0.00    -0.002 C 
ATOM     12  C   UNL     1      33.061 -21.235 -19.425  0.00  0.00    +0.346 A 
ATOM     13  C   UNL     1      33.149 -23.367 -16.414  0.00  0.00    +0.078 C 
ATOM     14  C   UNL     1      34.007 -23.841 -15.430  0.00  0.00    +0.176 C 
ATOM     15  C   UNL     1      35.347 -23.466 -15.447  0.00  0.00    +0.173 C 
ENDROOT
BRANCH  15  16
ATOM     16  O   UNL     1      36.203 -23.923 -14.489  0.00  0.00    -0.468 OA
ATOM     17  C   UNL     1      37.575 -23.559 -14.620  0.00  0.00    +0.253 C 
ENDBRANCH  15  16
BRANCH   6  18
ATOM     18  C   UNL     1      36.552 -18.604 -21.784  0.00  0.00    +0.133 C 
ATOM     19  C   UNL     1      35.716 -17.320 -21.828  0.00  0.00    +0.037 C 
BRANCH  18  20
ATOM     20  O   UNL     1      37.933 -18.243 -21.662  0.00  0.00    -0.380 OA
ATOM     21  H   UNL     1      38.247 -18.465 -20.772  0.00  0.00    +0.211 HD
ENDBRANCH  18  20
ENDBRANCH   6  18
BRANCH  14  22
ATOM     22  O   UNL     1      33.528 -24.667 -14.460  0.00  0.00    -0.467 OA
BRANCH  22  23
ATOM     23  C   UNL     1      32.715 -24.076 -13.447  0.00  0.00    +0.232 C 
BRANCH  23  24
ATOM     24  C   UNL     1      31.317 -23.922 -13.970  0.00  0.00    +0.021 C 
ATOM     25  C   UNL     1      30.569 -25.051 -14.281  0.00  0.00    +0.002 C 
ATOM     26  C   UNL     1      30.783 -22.648 -14.141  0.00  0.00    +0.002 C 
ATOM     27  C   UNL     1      29.269 -24.907 -14.768  0.00  0.00    +0.037 C 
ATOM     28  C   UNL     1      29.484 -22.504 -14.628  0.00  0.00    +0.037 C 
ATOM     29  C   UNL     1      28.728 -23.633 -14.941  0.00  0.00    +0.139 C 
BRANCH  29  30
ATOM     30  O   UNL     1      27.460 -23.493 -15.416  0.00  0.00    -0.471 OA
ATOM     31  C   UNL     1      27.198 -22.363 -16.247  0.00  0.00    +0.252 C 
ENDBRANCH  29  30
ENDBRANCH  23  24
ENDBRANCH  22  23
ENDBRANCH  14  22
TORSDOF 7
ENDMDL
MODEL 2
REMARK VINA RESULT:     -11.6      2.904      8.939
REMARK  Name = 11998575
REMARK  7 active torsions:
REMARK  status: ('A' for Active; 'I' for Inactive)
REMARK    1  A    between atoms: C_6  and  C_18
REMARK    2  A    between atoms: C_14  and  O_22
REMARK    3  A    between atoms: C_15  and  O_16
REMARK    4  A    between atoms: C_18  and  O_20
REMARK    5  A    between atoms: O_22  and  C_23
REMARK    6  A    between atoms: C_23  and  C_24
REMARK    7  A    between atoms: C_29  and  O_30
REMARK                            x       y       z     vdW  Elec       q    Type
REMARK                         _______ _______ _______ _____ _____    ______ ____
ROOT
ATOM      1  O   UNL     1      37.342 -21.981 -17.045  0.00  0.00    -0.421 OA
ATOM      2  O   UNL     1      38.521 -22.672 -15.220  0.00  0.00    -0.244 OA
ATOM      3  C   UNL     1      34.946 -22.875 -15.837  0.00  0.00    +0.009 A 
ATOM      4  C   UNL     1      34.918 -22.257 -17.169  0.00  0.00    +0.038 A 
ATOM      5  C   UNL     1      36.174 -23.019 -15.169  0.00  0.00    +0.076 A 
ATOM      6  C   UNL     1      35.087 -24.056 -13.268  0.00  0.00    +0.004 C 
ATOM      7  C   UNL     1      36.120 -21.827 -17.735  0.00  0.00    +0.152 A 
ATOM      8  C   UNL     1      36.243 -23.604 -13.894  0.00  0.00    +0.004 C 
ATOM      9  C   UNL     1      33.792 -23.342 -15.178  0.00  0.00    +0.000 C 
ATOM     10  C   UNL     1      33.758 -22.059 -17.935  0.00  0.00    +0.043 C 
ATOM     11  C   UNL     1      33.862 -23.925 -13.909  0.00  0.00    -0.002 C 
ATOM     12  C   UNL     1      37.441 -22.557 -15.785  0.00  0.00    +0.346 A 
ATOM     13  C   UNL     1      36.197 -21.229 -18.995  0.00  0.00    +0.078 C 
ATOM     14  C   UNL     1      35.032 -21.047 -19.730  0.00  0.00    +0.176 C 
ATOM     15  C   UNL     1      33.814 -21.462 -19.202  0.00  0.00    +0.173 C 
ENDROOT
BRANCH  15  16
ATOM     16  O   UNL     1      32.662 -21.291 -19.910  0.00  0.00    -0.468 OA
ATOM     17  C   UNL     1      32.265 -19.950 -20.187  0.00  0.00    +0.253 C 
ENDBRANCH  15  16
BRANCH   6  18
ATOM     18  C   UNL     1      35.161 -24.678 -11.915  0.00  0.00    +0.133 C 
ATOM     19  C   UNL     1      36.547 -25.252 -11.602  0.00  0.00    +0.037 C 
BRANCH  18  20
ATOM     20  O   UNL     1      34.832 -23.711 -10.911  0.00  0.00    -0.380 OA
ATOM     21  H   UNL     1      35.642 -23.427 -10.460  0.00  0.00    +0.211 HD
ENDBRANCH  18  20
ENDBRANCH   6  18
BRANCH  14  22
ATOM     22  O   UNL     1      35.096 -20.467 -20.960  0.00  0.00    -0.467 OA
BRANCH  22  23
ATOM     23  C   UNL     1      35.740 -19.197 -21.046  0.00  0.00    +0.232 C 
BRANCH  23  24
ATOM     24  C   UNL     1      35.183 -18.444 -22.219  0.00  0.00    +0.021 C 
ATOM     25  C   UNL     1      34.513 -19.131 -23.223  0.00  0.00    +0.002 C 
ATOM     26  C   UNL     1      35.345 -17.063 -22.290  0.00  0.00    +0.002 C 
ATOM     27  C   UNL     1      33.996 -18.431 -24.314  0.00  0.00    +0.037 C 
ATOM     28  C   UNL     1      34.828 -16.364 -23.380  0.00  0.00    +0.037 C 
ATOM     29  C   UNL     1      34.154 -17.048 -24.392  0.00  0.00    +0.139 C 
BRANCH  29  30
ATOM     30  O   UNL     1      33.648 -16.365 -25.455  0.00  0.00    -0.471 OA
ATOM     31  C   UNL     1      33.773 -14.944 -25.434  0.00  0.00    +0.252 C 
ENDBRANCH  29  30
ENDBRANCH  23  24
ENDBRANCH  22  23
ENDBRANCH  14  22
TORSDOF 7
ENDMDL
MODEL 3
REMARK VINA RESULT:     -11.1      2.430      5.999
REMARK  Name = 11998575
REMARK  7 active torsions:
REMARK  status: ('A' for Active; 'I' for Inactive)
REMARK    1  A    between atoms: C_6  and  C_18
REMARK    2  A    between atoms: C_14  and  O_22
REMARK    3  A    between atoms: C_15  and  O_16
REMARK    4  A    between atoms: C_18  and  O_20
REMARK    5  A    between atoms: O_22  and  C_23
REMARK    6  A    between atoms: C_23  and  C_24
REMARK    7  A    between atoms: C_29  and  O_30
REMARK                            x       y       z     vdW  Elec       q    Type
REMARK                         _______ _______ _______ _____ _____    ______ ____
ROOT
ATOM      1  O   UNL     1      36.973 -20.152 -19.412  0.00  0.00    -0.421 OA
ATOM      2  O   UNL     1      38.126 -18.695 -20.734  0.00  0.00    -0.244 OA
ATOM      3  C   UNL     1      34.653 -19.739 -20.975  0.00  0.00    +0.009 A 
ATOM      4  C   UNL     1      34.620 -20.657 -19.830  0.00  0.00    +0.038 A 
ATOM      5  C   UNL     1      35.848 -19.067 -21.287  0.00  0.00    +0.076 A 
ATOM      6  C   UNL     1      34.801 -17.952 -23.167  0.00  0.00    +0.004 C 
ATOM      7  C   UNL     1      35.785 -20.837 -19.080  0.00  0.00    +0.152 A 
ATOM      8  C   UNL     1      35.920 -18.182 -22.375  0.00  0.00    +0.004 C 
ATOM      9  C   UNL     1      33.536 -19.487 -21.796  0.00  0.00    +0.000 C 
ATOM     10  C   UNL     1      33.491 -21.384 -19.419  0.00  0.00    +0.043 C 
ATOM     11  C   UNL     1      33.609 -18.604 -22.878  0.00  0.00    -0.002 C 
ATOM     12  C   UNL     1      37.075 -19.270 -20.480  0.00  0.00    +0.346 A 
ATOM     13  C   UNL     1      35.854 -21.687 -17.973  0.00  0.00    +0.078 C 
ATOM     14  C   UNL     1      34.719 -22.392 -17.590  0.00  0.00    +0.176 C 
ATOM     15  C   UNL     1      33.539 -22.241 -18.311  0.00  0.00    +0.173 C 
ENDROOT
BRANCH  15  16
ATOM     16  O   UNL     1      32.417 -22.925 -17.948  0.00  0.00    -0.468 OA
ATOM     17  C   UNL     1      31.773 -22.518 -16.743  0.00  0.00    +0.253 C 
ENDBRANCH  15  16
BRANCH   6  18
ATOM     18  C   UNL     1      34.878 -17.011 -24.320  0.00  0.00    +0.133 C 
ATOM     19  C   UNL     1      33.498 -16.607 -24.849  0.00  0.00    +0.037 C 
BRANCH  18  20
ATOM     20  O   UNL     1      35.584 -15.824 -23.938  0.00  0.00    -0.380 OA
ATOM     21  H   UNL     1      35.122 -15.399 -23.198  0.00  0.00    +0.211 HD
ENDBRANCH  18  20
ENDBRANCH   6  18
BRANCH  14  22
ATOM     22  O   UNL     1      34.775 -23.222 -16.512  0.00  0.00    -0.467 OA
BRANCH  22  23
ATOM     23  C   UNL     1      35.403 -22.716 -15.335  0.00  0.00    +0.232 C 
BRANCH  23  24
ATOM     24  C   UNL     1      36.423 -23.709 -14.860  0.00  0.00    +0.021 C 
ATOM     25  C   UNL     1      37.773 -23.381 -14.898  0.00  0.00    +0.002 C 
ATOM     26  C   UNL     1      36.008 -24.950 -14.386  0.00  0.00    +0.002 C 
ATOM     27  C   UNL     1      38.722 -24.305 -14.457  0.00  0.00    +0.037 C 
ATOM     28  C   UNL     1      36.956 -25.873 -13.945  0.00  0.00    +0.037 C 
ATOM     29  C   UNL     1      38.312 -25.551 -13.981  0.00  0.00    +0.139 C 
BRANCH  29  30
ATOM     30  O   UNL     1      39.237 -26.451 -13.550  0.00  0.00    -0.471 OA
ATOM     31  C   UNL     1      40.590 -26.233 -13.945  0.00  0.00    +0.252 C 
ENDBRANCH  29  30
ENDBRANCH  23  24
ENDBRANCH  22  23
ENDBRANCH  14  22
TORSDOF 7
ENDMDL
MODEL 4
REMARK VINA RESULT:     -11.0      1.982      8.959
REMARK  Name = 11998575
REMARK  7 active torsions:
REMARK  status: ('A' for Active; 'I' for Inactive)
REMARK    1  A    between atoms: C_6  and  C_18
REMARK    2  A    between atoms: C_14  and  O_22
REMARK    3  A    between atoms: C_15  and  O_16
REMARK    4  A    between atoms: C_18  and  O_20
REMARK    5  A    between atoms: O_22  and  C_23
REMARK    6  A    between atoms: C_23  and  C_24
REMARK    7  A    between atoms: C_29  and  O_30
REMARK                            x       y       z     vdW  Elec       q    Type
REMARK                         _______ _______ _______ _____ _____    ______ ____
ROOT
ATOM      1  O   UNL     1      35.900 -22.799 -16.367  0.00  0.00    -0.421 OA
ATOM      2  O   UNL     1      35.935 -23.947 -14.397  0.00  0.00    -0.244 OA
ATOM      3  C   UNL     1      33.075 -22.912 -16.386  0.00  0.00    +0.009 A 
ATOM      4  C   UNL     1      33.796 -22.244 -17.476  0.00  0.00    +0.038 A 
ATOM      5  C   UNL     1      33.801 -23.494 -15.333  0.00  0.00    +0.076 A 
ATOM      6  C   UNL     1      31.760 -24.217 -14.244  0.00  0.00    +0.004 C 
ATOM      7  C   UNL     1      35.191 -22.208 -17.434  0.00  0.00    +0.152 A 
ATOM      8  C   UNL     1      33.148 -24.141 -14.271  0.00  0.00    +0.004 C 
ATOM      9  C   UNL     1      31.670 -23.005 -16.331  0.00  0.00    +0.000 C 
ATOM     10  C   UNL     1      33.185 -21.628 -18.580  0.00  0.00    +0.043 C 
ATOM     11  C   UNL     1      31.021 -23.650 -15.274  0.00  0.00    -0.002 C 
ATOM     12  C   UNL     1      35.283 -23.446 -15.305  0.00  0.00    +0.346 A 
ATOM     13  C   UNL     1      35.967 -21.598 -18.424  0.00  0.00    +0.078 C 
ATOM     14  C   UNL     1      35.334 -20.997 -19.505  0.00  0.00    +0.176 C 
ATOM     15  C   UNL     1      33.945 -21.011 -19.584  0.00  0.00    +0.173 C 
ENDROOT
BRANCH  15  16
ATOM     16  O   UNL     1      33.308 -20.427 -20.638  0.00  0.00    -0.468 OA
ATOM     17  C   UNL     1      32.091 -19.740 -20.358  0.00  0.00    +0.253 C 
ENDBRANCH  15  16
BRANCH   6  18
ATOM     18  C   UNL     1      31.068 -24.906 -13.117  0.00  0.00    +0.133 C 
ATOM     19  C   UNL     1      30.513 -23.927 -12.077  0.00  0.00    +0.037 C 
BRANCH  18  20
ATOM     20  O   UNL     1      29.985 -25.699 -13.618  0.00  0.00    -0.380 OA
ATOM     21  H   UNL     1      30.310 -26.277 -14.326  0.00  0.00    +0.211 HD
ENDBRANCH  18  20
ENDBRANCH   6  18
BRANCH  14  22
ATOM     22  O   UNL     1      36.080 -20.401 -20.476  0.00  0.00    -0.467 OA
BRANCH  22  23
ATOM     23  C   UNL     1      36.193 -18.979 -20.427  0.00  0.00    +0.232 C 
BRANCH  23  24
ATOM     24  C   UNL     1      35.603 -18.398 -21.679  0.00  0.00    +0.021 C 
ATOM     25  C   UNL     1      35.555 -17.019 -21.841  0.00  0.00    +0.002 C 
ATOM     26  C   UNL     1      35.109 -19.246 -22.665  0.00  0.00    +0.002 C 
ATOM     27  C   UNL     1      35.006 -16.479 -23.005  0.00  0.00    +0.037 C 
ATOM     28  C   UNL     1      34.560 -18.706 -23.828  0.00  0.00    +0.037 C 
ATOM     29  C   UNL     1      34.509 -17.323 -23.997  0.00  0.00    +0.139 C 
BRANCH  29  30
ATOM     30  O   UNL     1      33.974 -16.796 -25.133  0.00  0.00    -0.471 OA
ATOM     31  C   UNL     1      33.655 -15.406 -25.116  0.00  0.00    +0.252 C 
ENDBRANCH  29  30
ENDBRANCH  23  24
ENDBRANCH  22  23
ENDBRANCH  14  22
TORSDOF 7
ENDMDL
MODEL 5
REMARK VINA RESULT:     -10.7      2.158      5.581
REMARK  Name = 11998575
REMARK  7 active torsions:
REMARK  status: ('A' for Active; 'I' for Inactive)
REMARK    1  A    between atoms: C_6  and  C_18
REMARK    2  A    between atoms: C_14  and  O_22
REMARK    3  A    between atoms: C_15  and  O_16
REMARK    4  A    between atoms: C_18  and  O_20
REMARK    5  A    between atoms: O_22  and  C_23
REMARK    6  A    between atoms: C_23  and  C_24
REMARK    7  A    between atoms: C_29  and  O_30
REMARK                            x       y       z     vdW  Elec       q    Type
REMARK                         _______ _______ _______ _____ _____    ______ ____
ROOT
ATOM      1  O   UNL     1      36.195 -22.035 -17.841  0.00  0.00    -0.421 OA
ATOM      2  O   UNL     1      37.465 -20.930 -19.379  0.00  0.00    -0.244 OA
ATOM      3  C   UNL     1      33.845 -21.132 -19.130  0.00  0.00    +0.009 A 
ATOM      4  C   UNL     1      33.755 -21.983 -17.937  0.00  0.00    +0.038 A 
ATOM      5  C   UNL     1      35.110 -20.770 -19.626  0.00  0.00    +0.076 A 
ATOM      6  C   UNL     1      34.107 -19.495 -21.426  0.00  0.00    +0.004 C 
ATOM      7  C   UNL     1      34.935 -22.411 -17.327  0.00  0.00    +0.152 A 
ATOM      8  C   UNL     1      35.239 -19.959 -20.764  0.00  0.00    +0.004 C 
ATOM      9  C   UNL     1      32.717 -20.647 -19.821  0.00  0.00    +0.000 C 
ATOM     10  C   UNL     1      32.553 -22.410 -17.349  0.00  0.00    +0.043 C 
ATOM     11  C   UNL     1      32.847 -19.839 -20.955  0.00  0.00    -0.002 C 
ATOM     12  C   UNL     1      36.353 -21.233 -18.964  0.00  0.00    +0.346 A 
ATOM     13  C   UNL     1      34.953 -23.221 -16.188  0.00  0.00    +0.078 C 
ATOM     14  C   UNL     1      33.749 -23.627 -15.627  0.00  0.00    +0.176 C 
ATOM     15  C   UNL     1      32.549 -23.222 -16.206  0.00  0.00    +0.173 C 
ENDROOT
BRANCH  15  16
ATOM     16  O   UNL     1      31.359 -23.612 -15.669  0.00  0.00    -0.468 OA
ATOM     17  C   UNL     1      30.812 -22.787 -14.642  0.00  0.00    +0.253 C 
ENDBRANCH  15  16
BRANCH   6  18
ATOM     18  C   UNL     1      34.245 -18.632 -22.634  0.00  0.00    +0.133 C 
ATOM     19  C   UNL     1      35.324 -17.555 -22.473  0.00  0.00    +0.037 C 
BRANCH  18  20
ATOM     20  O   UNL     1      34.571 -19.434 -23.775  0.00  0.00    -0.380 OA
ATOM     21  H   UNL     1      33.767 -19.864 -24.107  0.00  0.00    +0.211 HD
ENDBRANCH  18  20
ENDBRANCH   6  18
BRANCH  14  22
ATOM     22  O   UNL     1      33.754 -24.415 -14.517  0.00  0.00    -0.467 OA
BRANCH  22  23
ATOM     23  C   UNL     1      34.428 -23.909 -13.366  0.00  0.00    +0.232 C 
BRANCH  23  24
ATOM     24  C   UNL     1      35.803 -24.508 -13.301  0.00  0.00    +0.021 C 
ATOM     25  C   UNL     1      36.782 -23.901 -12.524  0.00  0.00    +0.002 C 
ATOM     26  C   UNL     1      36.085 -25.664 -14.022  0.00  0.00    +0.002 C 
ATOM     27  C   UNL     1      38.061 -24.458 -12.464  0.00  0.00    +0.037 C 
ATOM     28  C   UNL     1      37.362 -26.220 -13.963  0.00  0.00    +0.037 C 
ATOM     29  C   UNL     1      38.350 -25.617 -13.184  0.00  0.00    +0.139 C 
BRANCH  29  30
ATOM     30  O   UNL     1      39.597 -26.161 -13.126  0.00  0.00    -0.471 OA
ATOM     31  C   UNL     1      40.468 -25.908 -14.227  0.00  0.00    +0.252 C 
ENDBRANCH  29  30
ENDBRANCH  23  24
ENDBRANCH  22  23
ENDBRANCH  14  22
TORSDOF 7
ENDMDL
MODEL 6
REMARK VINA RESULT:     -10.5      2.923      9.018
REMARK  Name = 11998575
REMARK  7 active torsions:
REMARK  status: ('A' for Active; 'I' for Inactive)
REMARK    1  A    between atoms: C_6  and  C_18
REMARK    2  A    between atoms: C_14  and  O_22
REMARK    3  A    between atoms: C_15  and  O_16
REMARK    4  A    between atoms: C_18  and  O_20
REMARK    5  A    between atoms: O_22  and  C_23
REMARK    6  A    between atoms: C_23  and  C_24
REMARK    7  A    between atoms: C_29  and  O_30
REMARK                            x       y       z     vdW  Elec       q    Type
REMARK                         _______ _______ _______ _____ _____    ______ ____
ROOT
ATOM      1  O   UNL     1      32.855 -21.754 -18.819  0.00  0.00    -0.421 OA
ATOM      2  O   UNL     1      32.290 -23.118 -17.081  0.00  0.00    -0.244 OA
ATOM      3  C   UNL     1      35.519 -21.653 -17.876  0.00  0.00    +0.009 A 
ATOM      4  C   UNL     1      35.134 -20.920 -19.090  0.00  0.00    +0.038 A 
ATOM      5  C   UNL     1      34.551 -22.404 -17.188  0.00  0.00    +0.076 A 
ATOM      6  C   UNL     1      36.178 -23.093 -15.530  0.00  0.00    +0.004 C 
ATOM      7  C   UNL     1      33.810 -20.993 -19.526  0.00  0.00    +0.152 A 
ATOM      8  C   UNL     1      34.879 -23.119 -16.024  0.00  0.00    +0.004 C 
ATOM      9  C   UNL     1      36.826 -21.646 -17.352  0.00  0.00    +0.000 C 
ATOM     10  C   UNL     1      36.008 -20.137 -19.862  0.00  0.00    +0.043 C 
ATOM     11  C   UNL     1      37.151 -22.357 -16.192  0.00  0.00    -0.002 C 
ATOM     12  C   UNL     1      33.149 -22.470 -17.666  0.00  0.00    +0.346 A 
ATOM     13  C   UNL     1      33.347 -20.332 -20.667  0.00  0.00    +0.078 C 
ATOM     14  C   UNL     1      34.234 -19.564 -21.410  0.00  0.00    +0.176 C 
ATOM     15  C   UNL     1      35.563 -19.466 -21.009  0.00  0.00    +0.173 C 
ENDROOT
BRANCH  15  16
ATOM     16  O   UNL     1      36.446 -18.716 -21.727  0.00  0.00    -0.468 OA
ATOM     17  C   UNL     1      37.786 -18.656 -21.244  0.00  0.00    +0.253 C 
ENDBRANCH  15  16
BRANCH   6  18
ATOM     18  C   UNL     1      36.525 -23.851 -14.293  0.00  0.00    +0.133 C 
ATOM     19  C   UNL     1      36.274 -25.356 -14.431  0.00  0.00    +0.037 C 
BRANCH  18  20
ATOM     20  O   UNL     1      37.904 -23.648 -13.964  0.00  0.00    -0.380 OA
ATOM     21  H   UNL     1      38.422 -23.568 -14.781  0.00  0.00    +0.211 HD
ENDBRANCH  18  20
ENDBRANCH   6  18
BRANCH  14  22
ATOM     22  O   UNL     1      33.794 -18.914 -22.523  0.00  0.00    -0.467 OA
BRANCH  22  23
ATOM     23  C   UNL     1      34.786 -18.373 -23.394  0.00  0.00    +0.232 C 
BRANCH  23  24
ATOM     24  C   UNL     1      34.466 -16.932 -23.665  0.00  0.00    +0.021 C 
ATOM     25  C   UNL     1      33.783 -16.585 -24.824  0.00  0.00    +0.002 C 
ATOM     26  C   UNL     1      34.858 -15.957 -22.754  0.00  0.00    +0.002 C 
ATOM     27  C   UNL     1      33.486 -15.245 -25.076  0.00  0.00    +0.037 C 
ATOM     28  C   UNL     1      34.562 -14.618 -23.005  0.00  0.00    +0.037 C 
ATOM     29  C   UNL     1      33.876 -14.262 -24.166  0.00  0.00    +0.139 C 
BRANCH  29  30
ATOM     30  O   UNL     1      33.586 -12.955 -24.412  0.00  0.00    -0.471 OA
ATOM     31  C   UNL     1      33.934 -12.011 -23.401  0.00  0.00    +0.252 C 
ENDBRANCH  29  30
ENDBRANCH  23  24
ENDBRANCH  22  23
ENDBRANCH  14  22
TORSDOF 7
ENDMDL
MODEL 7
REMARK VINA RESULT:     -10.4      7.743     12.521
REMARK  Name = 11998575
REMARK  7 active torsions:
REMARK  status: ('A' for Active; 'I' for Inactive)
REMARK    1  A    between atoms: C_6  and  C_18
REMARK    2  A    between atoms: C_14  and  O_22
REMARK    3  A    between atoms: C_15  and  O_16
REMARK    4  A    between atoms: C_18  and  O_20
REMARK    5  A    between atoms: O_22  and  C_23
REMARK    6  A    between atoms: C_23  and  C_24
REMARK    7  A    between atoms: C_29  and  O_30
REMARK                            x       y       z     vdW  Elec       q    Type
REMARK                         _______ _______ _______ _____ _____    ______ ____
ROOT
ATOM      1  O   UNL     1      32.156 -11.669 -20.427  0.00  0.00    -0.421 OA
ATOM      2  O   UNL     1      31.376 -10.208 -18.859  0.00  0.00    -0.244 OA
ATOM      3  C   UNL     1      32.378  -9.554 -22.291  0.00  0.00    +0.009 A 
ATOM      4  C   UNL     1      32.752 -10.921 -22.674  0.00  0.00    +0.038 A 
ATOM      5  C   UNL     1      31.908  -9.307 -20.990  0.00  0.00    +0.076 A 
ATOM      6  C   UNL     1      31.635  -6.948 -21.471  0.00  0.00    +0.004 C 
ATOM      7  C   UNL     1      32.630 -11.941 -21.728  0.00  0.00    +0.152 A 
ATOM      8  C   UNL     1      31.540  -8.014 -20.583  0.00  0.00    +0.004 C 
ATOM      9  C   UNL     1      32.463  -8.454 -23.167  0.00  0.00    +0.000 C 
ATOM     10  C   UNL     1      33.233 -11.293 -23.940  0.00  0.00    +0.043 C 
ATOM     11  C   UNL     1      32.096  -7.167 -22.762  0.00  0.00    -0.002 C 
ATOM     12  C   UNL     1      31.783 -10.402 -19.998  0.00  0.00    +0.346 A 
ATOM     13  C   UNL     1      32.959 -13.272 -21.997  0.00  0.00    +0.078 C 
ATOM     14  C   UNL     1      33.432 -13.610 -23.259  0.00  0.00    +0.176 C 
ATOM     15  C   UNL     1      33.568 -12.623 -24.230  0.00  0.00    +0.173 C 
ENDROOT
BRANCH  15  16
ATOM     16  O   UNL     1      34.030 -12.938 -25.473  0.00  0.00    -0.468 OA
ATOM     17  C   UNL     1      33.142 -12.720 -26.567  0.00  0.00    +0.253 C 
ENDBRANCH  15  16
BRANCH   6  18
ATOM     18  C   UNL     1      31.242  -5.575 -21.040  0.00  0.00    +0.133 C 
ATOM     19  C   UNL     1      32.267  -4.511 -21.447  0.00  0.00    +0.037 C 
BRANCH  18  20
ATOM     20  O   UNL     1      29.974  -5.226 -21.607  0.00  0.00    -0.380 OA
ATOM     21  H   UNL     1      29.778  -4.297 -21.413  0.00  0.00    +0.211 HD
ENDBRANCH  18  20
ENDBRANCH   6  18
BRANCH  14  22
ATOM     22  O   UNL     1      33.754 -14.904 -23.533  0.00  0.00    -0.467 OA
BRANCH  22  23
ATOM     23  C   UNL     1      35.097 -15.309 -23.266  0.00  0.00    +0.232 C 
BRANCH  23  24
ATOM     24  C   UNL     1      35.077 -16.624 -22.543  0.00  0.00    +0.021 C 
ATOM     25  C   UNL     1      34.749 -17.784 -23.234  0.00  0.00    +0.002 C 
ATOM     26  C   UNL     1      35.385 -16.669 -21.187  0.00  0.00    +0.002 C 
ATOM     27  C   UNL     1      34.730 -19.007 -22.562  0.00  0.00    +0.037 C 
ATOM     28  C   UNL     1      35.366 -17.891 -20.515  0.00  0.00    +0.037 C 
ATOM     29  C   UNL     1      35.038 -19.060 -21.203  0.00  0.00    +0.139 C 
BRANCH  29  30
ATOM     30  O   UNL     1      35.020 -20.252 -20.547  0.00  0.00    -0.471 OA
ATOM     31  C   UNL     1      33.825 -20.590 -19.845  0.00  0.00    +0.252 C 
ENDBRANCH  29  30
ENDBRANCH  23  24
ENDBRANCH  22  23
ENDBRANCH  14  22
TORSDOF 7
ENDMDL
MODEL 8
REMARK VINA RESULT:     -10.4      5.847     10.013
REMARK  Name = 11998575
REMARK  7 active torsions:
REMARK  status: ('A' for Active; 'I' for Inactive)
REMARK    1  A    between atoms: C_6  and  C_18
REMARK    2  A    between atoms: C_14  and  O_22
REMARK    3  A    between atoms: C_15  and  O_16
REMARK    4  A    between atoms: C_18  and  O_20
REMARK    5  A    between atoms: O_22  and  C_23
REMARK    6  A    between atoms: C_23  and  C_24
REMARK    7  A    between atoms: C_29  and  O_30
REMARK                            x       y       z     vdW  Elec       q    Type
REMARK                         _______ _______ _______ _____ _____    ______ ____
ROOT
ATOM      1  O   UNL     1      32.937 -13.076 -19.833  0.00  0.00    -0.421 OA
ATOM      2  O   UNL     1      31.829 -11.208 -19.137  0.00  0.00    -0.244 OA
ATOM      3  C   UNL     1      33.345 -11.892 -22.369  0.00  0.00    +0.009 A 
ATOM      4  C   UNL     1      33.853 -13.241 -22.091  0.00  0.00    +0.038 A 
ATOM      5  C   UNL     1      32.653 -11.195 -21.363  0.00  0.00    +0.076 A 
ATOM      6  C   UNL     1      32.332  -9.287 -22.822  0.00  0.00    +0.004 C 
ATOM      7  C   UNL     1      33.633 -13.794 -20.828  0.00  0.00    +0.152 A 
ATOM      8  C   UNL     1      32.152  -9.902 -21.589  0.00  0.00    +0.004 C 
ATOM      9  C   UNL     1      33.512 -11.243 -23.608  0.00  0.00    +0.000 C 
ATOM     10  C   UNL     1      34.556 -14.036 -23.011  0.00  0.00    +0.043 C 
ATOM     11  C   UNL     1      33.012  -9.956 -23.831  0.00  0.00    -0.002 C 
ATOM     12  C   UNL     1      32.428 -11.798 -20.028  0.00  0.00    +0.346 A 
ATOM     13  C   UNL     1      34.076 -15.070 -20.469  0.00  0.00    +0.078 C 
ATOM     14  C   UNL     1      34.769 -15.834 -21.400  0.00  0.00    +0.176 C 
ATOM     15  C   UNL     1      35.008 -15.318 -22.671  0.00  0.00    +0.173 C 
ENDROOT
BRANCH  15  16
ATOM     16  O   UNL     1      35.686 -16.054 -23.597  0.00  0.00    -0.468 OA
ATOM     17  C   UNL     1      34.985 -16.395 -24.790  0.00  0.00    +0.253 C 
ENDBRANCH  15  16
BRANCH   6  18
ATOM     18  C   UNL     1      31.798  -7.915 -23.061  0.00  0.00    +0.133 C 
ATOM     19  C   UNL     1      31.149  -7.307 -21.814  0.00  0.00    +0.037 C 
BRANCH  18  20
ATOM     20  O   UNL     1      32.853  -7.047 -23.494  0.00  0.00    -0.380 OA
ATOM     21  H   UNL     1      33.664  -7.256 -23.005  0.00  0.00    +0.211 HD
ENDBRANCH  18  20
ENDBRANCH   6  18
BRANCH  14  22
ATOM     22  O   UNL     1      35.204 -17.078 -21.061  0.00  0.00    -0.467 OA
BRANCH  22  23
ATOM     23  C   UNL     1      34.536 -18.186 -21.664  0.00  0.00    +0.232 C 
BRANCH  23  24
ATOM     24  C   UNL     1      34.595 -19.360 -20.731  0.00  0.00    +0.021 C 
ATOM     25  C   UNL     1      33.416 -19.944 -20.285  0.00  0.00    +0.002 C 
ATOM     26  C   UNL     1      35.830 -19.850 -20.319  0.00  0.00    +0.002 C 
ATOM     27  C   UNL     1      33.471 -21.036 -19.416  0.00  0.00    +0.037 C 
ATOM     28  C   UNL     1      35.885 -20.941 -19.451  0.00  0.00    +0.037 C 
ATOM     29  C   UNL     1      34.706 -21.533 -19.000  0.00  0.00    +0.139 C 
BRANCH  29  30
ATOM     30  O   UNL     1      34.759 -22.598 -18.153  0.00  0.00    -0.471 OA
ATOM     31  C   UNL     1      33.555 -22.950 -17.475  0.00  0.00    +0.252 C 
ENDBRANCH  29  30
ENDBRANCH  23  24
ENDBRANCH  22  23
ENDBRANCH  14  22
TORSDOF 7
ENDMDL
MODEL 9
REMARK VINA RESULT:     -10.2      2.388      8.777
REMARK  Name = 11998575
REMARK  7 active torsions:
REMARK  status: ('A' for Active; 'I' for Inactive)
REMARK    1  A    between atoms: C_6  and  C_18
REMARK    2  A    between atoms: C_14  and  O_22
REMARK    3  A    between atoms: C_15  and  O_16
REMARK    4  A    between atoms: C_18  and  O_20
REMARK    5  A    between atoms: O_22  and  C_23
REMARK    6  A    between atoms: C_23  and  C_24
REMARK    7  A    between atoms: C_29  and  O_30
REMARK                            x       y       z     vdW  Elec       q    Type
REMARK                         _______ _______ _______ _____ _____    ______ ____
ROOT
ATOM      1  O   UNL     1      32.310 -22.312 -17.708  0.00  0.00    -0.421 OA
ATOM      2  O   UNL     1      31.515 -23.513 -15.940  0.00  0.00    -0.244 OA
ATOM      3  C   UNL     1      34.942 -22.579 -16.708  0.00  0.00    +0.009 A 
ATOM      4  C   UNL     1      34.694 -21.841 -17.953  0.00  0.00    +0.038 A 
ATOM      5  C   UNL     1      33.860 -23.152 -16.018  0.00  0.00    +0.076 A 
ATOM      6  C   UNL     1      35.334 -24.019 -14.302  0.00  0.00    +0.004 C 
ATOM      7  C   UNL     1      33.382 -21.729 -18.417  0.00  0.00    +0.152 A 
ATOM      8  C   UNL     1      34.055 -23.866 -14.825  0.00  0.00    +0.004 C 
ATOM      9  C   UNL     1      36.226 -22.751 -16.154  0.00  0.00    +0.000 C 
ATOM     10  C   UNL     1      35.689 -21.225 -18.730  0.00  0.00    +0.043 C 
ATOM     11  C   UNL     1      36.419 -23.462 -14.965  0.00  0.00    -0.002 C 
ATOM     12  C   UNL     1      32.472 -23.022 -16.525  0.00  0.00    +0.346 A 
ATOM     13  C   UNL     1      33.044 -21.046 -19.589  0.00  0.00    +0.078 C 
ATOM     14  C   UNL     1      34.050 -20.447 -20.336  0.00  0.00    +0.176 C 
ATOM     15  C   UNL     1      35.372 -20.536 -19.908  0.00  0.00    +0.173 C 
ENDROOT
BRANCH  15  16
ATOM     16  O   UNL     1      36.370 -19.953 -20.629  0.00  0.00    -0.468 OA
ATOM     17  C   UNL     1      37.133 -18.940 -19.977  0.00  0.00    +0.253 C 
ENDBRANCH  15  16
BRANCH   6  18
ATOM     18  C   UNL     1      35.540 -24.776 -13.034  0.00  0.00    +0.133 C 
ATOM     19  C   UNL     1      36.757 -24.285 -12.242  0.00  0.00    +0.037 C 
BRANCH  18  20
ATOM     20  O   UNL     1      34.380 -24.664 -12.201  0.00  0.00    -0.380 OA
ATOM     21  H   UNL     1      33.644 -24.305 -12.720  0.00  0.00    +0.211 HD
ENDBRANCH  18  20
ENDBRANCH   6  18
BRANCH  14  22
ATOM     22  O   UNL     1      33.733 -19.778 -21.479  0.00  0.00    -0.467 OA
BRANCH  22  23
ATOM     23  C   UNL     1      34.762 -19.639 -22.457  0.00  0.00    +0.232 C 
BRANCH  23  24
ATOM     24  C   UNL     1      34.537 -18.371 -23.228  0.00  0.00    +0.021 C 
ATOM     25  C   UNL     1      33.772 -18.397 -24.387  0.00  0.00    +0.002 C 
ATOM     26  C   UNL     1      35.098 -17.181 -22.774  0.00  0.00    +0.002 C 
ATOM     27  C   UNL     1      33.564 -17.218 -25.104  0.00  0.00    +0.037 C 
ATOM     28  C   UNL     1      34.890 -16.003 -23.490  0.00  0.00    +0.037 C 
ATOM     29  C   UNL     1      34.123 -16.021 -24.655  0.00  0.00    +0.139 C 
BRANCH  29  30
ATOM     30  O   UNL     1      33.919 -14.871 -25.354  0.00  0.00    -0.471 OA
ATOM     31  C   UNL     1      33.471 -13.734 -24.618  0.00  0.00    +0.252 C 
ENDBRANCH  29  30
ENDBRANCH  23  24
ENDBRANCH  22  23
ENDBRANCH  14  22
TORSDOF 7
ENDMDL
