MODEL 1
REMARK VINA RESULT:     -13.0      0.000      0.000
REMARK  Name = 51049992
REMARK  10 active torsions:
REMARK  status: ('A' for Active; 'I' for Inactive)
REMARK    1  A    between atoms: C_1  and  C_7
REMARK    2  A    between atoms: C_6  and  C_23
REMARK    3  A    between atoms: C_7  and  N_8
REMARK    4  A    between atoms: C_23  and  O_24
REMARK    5  A    between atoms: O_24  and  C_25
REMARK    6  A    between atoms: C_26  and  C_31
REMARK    7  A    between atoms: C_31  and  C_32
REMARK    8  A    between atoms: C_31  and  C_35
REMARK    9  A    between atoms: C_35  and  C_37
REMARK   10  A    between atoms: C_37  and  O_38
REMARK                            x       y       z     vdW  Elec       q    Type
REMARK                         _______ _______ _______ _____ _____    ______ ____
ROOT
ATOM      1  C   UNL     1      35.252 -17.786 -22.643  0.00  0.00    -0.043 C 
ATOM      2  C   UNL     1      34.306 -18.728 -22.236  0.00  0.00    -0.007 C 
ATOM      3  C   UNL     1      36.509 -17.754 -22.039  0.00  0.00    -0.007 C 
ATOM      4  C   UNL     1      34.618 -19.637 -21.226  0.00  0.00    -0.001 C 
ATOM      5  C   UNL     1      36.820 -18.664 -21.028  0.00  0.00    -0.001 C 
ATOM      6  C   UNL     1      35.875 -19.605 -20.622  0.00  0.00    +0.021 C 
ENDROOT
BRANCH   1   7
ATOM      7  C   UNL     1      34.915 -16.804 -23.733  0.00  0.00    -0.050 C 
BRANCH   7   8
ATOM      8  N   UNL     1      34.197 -15.640 -23.215  0.00  0.00    +0.390 N 
ATOM      9  C   UNL     1      33.552 -12.775 -22.960  0.00  0.00    +0.033 C 
ATOM     10  C   UNL     1      32.683 -13.758 -23.764  0.00  0.00    -0.015 C 
ATOM     11  C   UNL     1      34.376 -13.542 -21.910  0.00  0.00    -0.015 C 
ATOM     12  C   UNL     1      35.121 -14.737 -22.515  0.00  0.00    -0.076 C 
ATOM     13  C   UNL     1      33.493 -14.945 -24.300  0.00  0.00    -0.076 C 
ATOM     14  C   UNL     1      32.722 -11.676 -22.330  0.00  0.00    -0.019 C 
ATOM     15  C   UNL     1      34.447 -11.938 -23.873  0.00  0.00    -0.023 C 
ATOM     16  C   UNL     1      33.122 -10.431 -22.838  0.00  0.00    -0.004 C 
ATOM     17  C   UNL     1      34.195 -10.622 -23.794  0.00  0.00    -0.005 C 
ATOM     18  C   UNL     1      31.704 -11.765 -21.393  0.00  0.00    -0.004 C 
ATOM     19  C   UNL     1      32.517  -9.256 -22.423  0.00  0.00    -0.000 C 
ATOM     20  C   UNL     1      31.088 -10.585 -20.968  0.00  0.00    -0.000 C 
ATOM     21  C   UNL     1      31.491  -9.341 -21.479  0.00  0.00    -0.000 C 
ATOM     22  H   UNL     1      33.500 -15.957 -22.542  0.00  0.00    -0.079 HD
ENDBRANCH   7   8
ENDBRANCH   1   7
BRANCH   6  23
ATOM     23  C   UNL     1      36.210 -20.580 -19.544  0.00  0.00    +0.232 C 
BRANCH  23  24
ATOM     24  O   UNL     1      35.213 -21.595 -19.498  0.00  0.00    -0.471 OA
BRANCH  24  25
ATOM     25  C   UNL     1      34.922 -22.119 -18.267  0.00  0.00    +0.139 C 
ATOM     26  C   UNL     1      34.331 -23.189 -15.759  0.00  0.00    -0.010 C 
ATOM     27  C   UNL     1      35.879 -22.089 -17.252  0.00  0.00    +0.037 C 
ATOM     28  C   UNL     1      33.670 -22.684 -18.027  0.00  0.00    +0.037 C 
ATOM     29  C   UNL     1      35.583 -22.624 -15.998  0.00  0.00    -0.000 C 
ATOM     30  C   UNL     1      33.374 -23.219 -16.773  0.00  0.00    -0.000 C 
BRANCH  26  31
ATOM     31  C   UNL     1      34.014 -23.761 -14.418  0.00  0.00    +0.097 C 
BRANCH  31  32
ATOM     32  C   UNL     1      35.113 -23.519 -13.443  0.00  0.00    -0.087 C 
ATOM     33  C   UNL     1      35.991 -23.311 -12.649  0.00  0.00    -0.090 C 
ATOM     34  C   UNL     1      37.059 -23.056 -11.685  0.00  0.00    +0.090 C 
ENDBRANCH  31  32
BRANCH  31  35
ATOM     35  C   UNL     1      32.672 -23.224 -13.850  0.00  0.00    +0.127 C 
BRANCH  35  37
ATOM     36  O   UNL     1      30.883 -24.044 -12.407  0.00  0.00    -0.250 OA
ATOM     37  C   UNL     1      31.836 -24.270 -13.139  0.00  0.00    +0.315 C 
BRANCH  37  38
ATOM     38  O   UNL     1      32.270 -25.526 -13.425  0.00  0.00    -0.480 OA
ATOM     39  H   UNL     1      32.829 -25.672 -14.162  0.00  0.00    +0.295 HD
ENDBRANCH  37  38
ENDBRANCH  35  37
ENDBRANCH  31  35
ENDBRANCH  26  31
ENDBRANCH  24  25
ENDBRANCH  23  24
ENDBRANCH   6  23
TORSDOF 10
ENDMDL
MODEL 2
REMARK VINA RESULT:     -12.9      1.322      2.275
REMARK  Name = 51049992
REMARK  10 active torsions:
REMARK  status: ('A' for Active; 'I' for Inactive)
REMARK    1  A    between atoms: C_1  and  C_7
REMARK    2  A    between atoms: C_6  and  C_23
REMARK    3  A    between atoms: C_7  and  N_8
REMARK    4  A    between atoms: C_23  and  O_24
REMARK    5  A    between atoms: O_24  and  C_25
REMARK    6  A    between atoms: C_26  and  C_31
REMARK    7  A    between atoms: C_31  and  C_32
REMARK    8  A    between atoms: C_31  and  C_35
REMARK    9  A    between atoms: C_35  and  C_37
REMARK   10  A    between atoms: C_37  and  O_38
REMARK                            x       y       z     vdW  Elec       q    Type
REMARK                         _______ _______ _______ _____ _____    ______ ____
ROOT
ATOM      1  C   UNL     1      35.229 -17.830 -22.663  0.00  0.00    -0.043 C 
ATOM      2  C   UNL     1      34.292 -18.801 -22.308  0.00  0.00    -0.007 C 
ATOM      3  C   UNL     1      36.465 -17.785 -22.017  0.00  0.00    -0.007 C 
ATOM      4  C   UNL     1      34.591 -19.726 -21.309  0.00  0.00    -0.001 C 
ATOM      5  C   UNL     1      36.764 -18.711 -21.017  0.00  0.00    -0.001 C 
ATOM      6  C   UNL     1      35.827 -19.681 -20.663  0.00  0.00    +0.021 C 
ENDROOT
BRANCH   1   7
ATOM      7  C   UNL     1      34.906 -16.831 -23.742  0.00  0.00    -0.050 C 
BRANCH   7   8
ATOM      8  N   UNL     1      34.189 -15.671 -23.213  0.00  0.00    +0.390 N 
ATOM      9  C   UNL     1      33.544 -12.808 -22.935  0.00  0.00    +0.033 C 
ATOM     10  C   UNL     1      32.674 -13.786 -23.744  0.00  0.00    -0.015 C 
ATOM     11  C   UNL     1      34.371 -13.583 -21.893  0.00  0.00    -0.015 C 
ATOM     12  C   UNL     1      35.115 -14.773 -22.509  0.00  0.00    -0.076 C 
ATOM     13  C   UNL     1      33.482 -14.968 -24.291  0.00  0.00    -0.076 C 
ATOM     14  C   UNL     1      32.715 -11.714 -22.294  0.00  0.00    -0.019 C 
ATOM     15  C   UNL     1      34.437 -11.964 -23.844  0.00  0.00    -0.023 C 
ATOM     16  C   UNL     1      33.113 -10.465 -22.794  0.00  0.00    -0.004 C 
ATOM     17  C   UNL     1      34.184 -10.649 -23.755  0.00  0.00    -0.005 C 
ATOM     18  C   UNL     1      31.700 -11.811 -21.356  0.00  0.00    -0.004 C 
ATOM     19  C   UNL     1      32.509  -9.294 -22.369  0.00  0.00    -0.000 C 
ATOM     20  C   UNL     1      31.084 -10.635 -20.920  0.00  0.00    -0.000 C 
ATOM     21  C   UNL     1      31.485  -9.387 -21.423  0.00  0.00    -0.000 C 
ATOM     22  H   UNL     1      33.494 -15.993 -22.540  0.00  0.00    -0.079 HD
ENDBRANCH   7   8
ENDBRANCH   1   7
BRANCH   6  23
ATOM     23  C   UNL     1      36.148 -20.673 -19.597  0.00  0.00    +0.232 C 
BRANCH  23  24
ATOM     24  O   UNL     1      34.989 -21.446 -19.306  0.00  0.00    -0.471 OA
BRANCH  24  25
ATOM     25  C   UNL     1      34.930 -22.027 -18.067  0.00  0.00    +0.139 C 
ATOM     26  C   UNL     1      34.809 -23.208 -15.542  0.00  0.00    -0.010 C 
ATOM     27  C   UNL     1      33.760 -22.660 -17.648  0.00  0.00    +0.037 C 
ATOM     28  C   UNL     1      36.040 -21.985 -17.223  0.00  0.00    +0.037 C 
ATOM     29  C   UNL     1      33.699 -23.251 -16.386  0.00  0.00    -0.000 C 
ATOM     30  C   UNL     1      35.979 -22.575 -15.960  0.00  0.00    -0.000 C 
BRANCH  26  31
ATOM     31  C   UNL     1      34.745 -23.839 -14.192  0.00  0.00    +0.097 C 
BRANCH  31  32
ATOM     32  C   UNL     1      33.349 -24.198 -13.819  0.00  0.00    -0.087 C 
ATOM     33  C   UNL     1      32.227 -24.504 -13.515  0.00  0.00    -0.090 C 
ATOM     34  C   UNL     1      30.863 -24.878 -13.148  0.00  0.00    +0.090 C 
ENDBRANCH  31  32
BRANCH  31  35
ATOM     35  C   UNL     1      35.662 -25.087 -14.081  0.00  0.00    +0.127 C 
BRANCH  35  37
ATOM     36  O   UNL     1      37.738 -24.363 -13.020  0.00  0.00    -0.250 OA
ATOM     37  C   UNL     1      36.695 -25.001 -12.974  0.00  0.00    +0.315 C 
BRANCH  37  38
ATOM     38  O   UNL     1      36.315 -25.722 -11.886  0.00  0.00    -0.480 OA
ATOM     39  H   UNL     1      35.737 -26.451 -11.987  0.00  0.00    +0.295 HD
ENDBRANCH  37  38
ENDBRANCH  35  37
ENDBRANCH  31  35
ENDBRANCH  26  31
ENDBRANCH  24  25
ENDBRANCH  23  24
ENDBRANCH   6  23
TORSDOF 10
ENDMDL
MODEL 3
REMARK VINA RESULT:     -12.8      1.715      2.286
REMARK  Name = 51049992
REMARK  10 active torsions:
REMARK  status: ('A' for Active; 'I' for Inactive)
REMARK    1  A    between atoms: C_1  and  C_7
REMARK    2  A    between atoms: C_6  and  C_23
REMARK    3  A    between atoms: C_7  and  N_8
REMARK    4  A    between atoms: C_23  and  O_24
REMARK    5  A    between atoms: O_24  and  C_25
REMARK    6  A    between atoms: C_26  and  C_31
REMARK    7  A    between atoms: C_31  and  C_32
REMARK    8  A    between atoms: C_31  and  C_35
REMARK    9  A    between atoms: C_35  and  C_37
REMARK   10  A    between atoms: C_37  and  O_38
REMARK                            x       y       z     vdW  Elec       q    Type
REMARK                         _______ _______ _______ _____ _____    ______ ____
ROOT
ATOM      1  C   UNL     1      35.243 -17.956 -22.287  0.00  0.00    -0.043 C 
ATOM      2  C   UNL     1      36.389 -18.155 -21.516  0.00  0.00    -0.007 C 
ATOM      3  C   UNL     1      34.134 -18.784 -22.112  0.00  0.00    -0.007 C 
ATOM      4  C   UNL     1      36.425 -19.181 -20.571  0.00  0.00    -0.001 C 
ATOM      5  C   UNL     1      34.170 -19.809 -21.167  0.00  0.00    -0.001 C 
ATOM      6  C   UNL     1      35.315 -20.008 -20.397  0.00  0.00    +0.021 C 
ENDROOT
BRANCH   1   7
ATOM      7  C   UNL     1      35.205 -16.850 -23.306  0.00  0.00    -0.050 C 
BRANCH   7   8
ATOM      8  N   UNL     1      34.394 -15.719 -22.852  0.00  0.00    +0.390 N 
ATOM      9  C   UNL     1      33.565 -12.895 -22.706  0.00  0.00    +0.033 C 
ATOM     10  C   UNL     1      32.796 -13.950 -23.522  0.00  0.00    -0.015 C 
ATOM     11  C   UNL     1      34.384 -13.584 -21.599  0.00  0.00    -0.015 C 
ATOM     12  C   UNL     1      35.227 -14.744 -22.137  0.00  0.00    -0.076 C 
ATOM     13  C   UNL     1      33.700 -15.097 -23.987  0.00  0.00    -0.076 C 
ATOM     14  C   UNL     1      32.640 -11.834 -22.144  0.00  0.00    -0.019 C 
ATOM     15  C   UNL     1      34.449 -12.026 -23.600  0.00  0.00    -0.023 C 
ATOM     16  C   UNL     1      32.987 -10.580 -22.668  0.00  0.00    -0.004 C 
ATOM     17  C   UNL     1      34.113 -10.727 -23.569  0.00  0.00    -0.005 C 
ATOM     18  C   UNL     1      31.587 -11.964 -21.253  0.00  0.00    -0.004 C 
ATOM     19  C   UNL     1      32.293  -9.435 -22.313  0.00  0.00    -0.000 C 
ATOM     20  C   UNL     1      30.881 -10.814 -20.889  0.00  0.00    -0.000 C 
ATOM     21  C   UNL     1      31.231  -9.560 -21.415  0.00  0.00    -0.000 C 
ATOM     22  H   UNL     1      33.687 -16.062 -22.203  0.00  0.00    -0.079 HD
ENDBRANCH   7   8
ENDBRANCH   1   7
BRANCH   6  23
ATOM     23  C   UNL     1      35.352 -21.102 -19.385  0.00  0.00    +0.232 C 
BRANCH  23  24
ATOM     24  O   UNL     1      36.366 -20.825 -18.425  0.00  0.00    -0.471 OA
BRANCH  24  25
ATOM     25  C   UNL     1      36.394 -21.619 -17.310  0.00  0.00    +0.139 C 
ATOM     26  C   UNL     1      36.451 -23.240 -15.040  0.00  0.00    -0.010 C 
ATOM     27  C   UNL     1      37.543 -21.675 -16.521  0.00  0.00    +0.037 C 
ATOM     28  C   UNL     1      35.273 -22.375 -16.963  0.00  0.00    +0.037 C 
ATOM     29  C   UNL     1      37.571 -22.485 -15.386  0.00  0.00    -0.000 C 
ATOM     30  C   UNL     1      35.302 -23.185 -15.828  0.00  0.00    -0.000 C 
BRANCH  26  31
ATOM     31  C   UNL     1      36.481 -24.106 -13.826  0.00  0.00    +0.097 C 
BRANCH  31  32
ATOM     32  C   UNL     1      37.775 -24.831 -13.699  0.00  0.00    -0.087 C 
ATOM     33  C   UNL     1      38.826 -25.408 -13.611  0.00  0.00    -0.090 C 
ATOM     34  C   UNL     1      40.103 -26.110 -13.506  0.00  0.00    +0.090 C 
ENDBRANCH  31  32
BRANCH  31  35
ATOM     35  C   UNL     1      36.189 -23.310 -12.525  0.00  0.00    +0.127 C 
BRANCH  35  37
ATOM     36  O   UNL     1      36.853 -24.183 -10.345  0.00  0.00    -0.250 OA
ATOM     37  C   UNL     1      36.069 -24.172 -11.283  0.00  0.00    +0.315 C 
BRANCH  37  38
ATOM     38  O   UNL     1      34.952 -24.945 -11.325  0.00  0.00    -0.480 OA
ATOM     39  H   UNL     1      34.991 -25.805 -11.693  0.00  0.00    +0.295 HD
ENDBRANCH  37  38
ENDBRANCH  35  37
ENDBRANCH  31  35
ENDBRANCH  26  31
ENDBRANCH  24  25
ENDBRANCH  23  24
ENDBRANCH   6  23
TORSDOF 10
ENDMDL
MODEL 4
REMARK VINA RESULT:     -12.8      5.811     14.331
REMARK  Name = 51049992
REMARK  10 active torsions:
REMARK  status: ('A' for Active; 'I' for Inactive)
REMARK    1  A    between atoms: C_1  and  C_7
REMARK    2  A    between atoms: C_6  and  C_23
REMARK    3  A    between atoms: C_7  and  N_8
REMARK    4  A    between atoms: C_23  and  O_24
REMARK    5  A    between atoms: O_24  and  C_25
REMARK    6  A    between atoms: C_26  and  C_31
REMARK    7  A    between atoms: C_31  and  C_32
REMARK    8  A    between atoms: C_31  and  C_35
REMARK    9  A    between atoms: C_35  and  C_37
REMARK   10  A    between atoms: C_37  and  O_38
REMARK                            x       y       z     vdW  Elec       q    Type
REMARK                         _______ _______ _______ _____ _____    ______ ____
ROOT
ATOM      1  C   UNL     1      34.043 -13.572 -22.714  0.00  0.00    -0.043 C 
ATOM      2  C   UNL     1      34.076 -12.352 -23.390  0.00  0.00    -0.007 C 
ATOM      3  C   UNL     1      33.188 -13.742 -21.625  0.00  0.00    -0.007 C 
ATOM      4  C   UNL     1      33.255 -11.303 -22.977  0.00  0.00    -0.001 C 
ATOM      5  C   UNL     1      32.367 -12.694 -21.212  0.00  0.00    -0.001 C 
ATOM      6  C   UNL     1      32.400 -11.474 -21.888  0.00  0.00    +0.021 C 
ENDROOT
BRANCH   1   7
ATOM      7  C   UNL     1      34.930 -14.704 -23.160  0.00  0.00    -0.050 C 
BRANCH   7   8
ATOM      8  N   UNL     1      34.626 -15.946 -22.450  0.00  0.00    +0.390 N 
ATOM      9  C   UNL     1      35.252 -18.435 -21.000  0.00  0.00    +0.033 C 
ATOM     10  C   UNL     1      34.765 -17.157 -20.294  0.00  0.00    -0.015 C 
ATOM     11  C   UNL     1      34.817 -18.415 -22.477  0.00  0.00    -0.015 C 
ATOM     12  C   UNL     1      35.181 -17.099 -23.172  0.00  0.00    -0.076 C 
ATOM     13  C   UNL     1      35.130 -15.888 -21.072  0.00  0.00    -0.076 C 
ATOM     14  C   UNL     1      34.777 -19.686 -20.291  0.00  0.00    -0.019 C 
ATOM     15  C   UNL     1      36.764 -18.613 -20.863  0.00  0.00    -0.023 C 
ATOM     16  C   UNL     1      35.883 -20.423 -19.841  0.00  0.00    -0.004 C 
ATOM     17  C   UNL     1      37.104 -19.734 -20.209  0.00  0.00    -0.005 C 
ATOM     18  C   UNL     1      33.486 -20.134 -20.062  0.00  0.00    -0.004 C 
ATOM     19  C   UNL     1      35.722 -21.617 -19.156  0.00  0.00    -0.000 C 
ATOM     20  C   UNL     1      33.313 -21.337 -19.372  0.00  0.00    -0.000 C 
ATOM     21  C   UNL     1      34.422 -22.072 -18.923  0.00  0.00    -0.000 C 
ATOM     22  H   UNL     1      33.614 -16.061 -22.408  0.00  0.00    -0.079 HD
ENDBRANCH   7   8
ENDBRANCH   1   7
BRANCH   6  23
ATOM     23  C   UNL     1      31.520 -10.354 -21.448  0.00  0.00    +0.232 C 
BRANCH  23  24
ATOM     24  O   UNL     1      32.316  -9.326 -20.870  0.00  0.00    -0.471 OA
BRANCH  24  25
ATOM     25  C   UNL     1      32.494  -8.191 -21.616  0.00  0.00    +0.139 C 
ATOM     26  C   UNL     1      32.860  -5.881 -23.137  0.00  0.00    -0.010 C 
ATOM     27  C   UNL     1      31.495  -7.766 -22.491  0.00  0.00    +0.037 C 
ATOM     28  C   UNL     1      33.677  -7.460 -21.502  0.00  0.00    +0.037 C 
ATOM     29  C   UNL     1      31.677  -6.611 -23.252  0.00  0.00    -0.000 C 
ATOM     30  C   UNL     1      33.860  -6.306 -22.263  0.00  0.00    -0.000 C 
BRANCH  26  31
ATOM     31  C   UNL     1      33.056  -4.646 -23.950  0.00  0.00    +0.097 C 
BRANCH  31  32
ATOM     32  C   UNL     1      34.225  -4.770 -24.864  0.00  0.00    -0.087 C 
ATOM     33  C   UNL     1      35.161  -4.857 -25.613  0.00  0.00    -0.090 C 
ATOM     34  C   UNL     1      36.298  -4.965 -26.524  0.00  0.00    +0.090 C 
ENDBRANCH  31  32
BRANCH  31  35
ATOM     35  C   UNL     1      31.787  -4.264 -24.759  0.00  0.00    +0.127 C 
BRANCH  35  37
ATOM     36  O   UNL     1      30.314  -3.141 -23.170  0.00  0.00    -0.250 OA
ATOM     37  C   UNL     1      31.007  -3.102 -24.177  0.00  0.00    +0.315 C 
BRANCH  37  38
ATOM     38  O   UNL     1      31.180  -1.972 -24.913  0.00  0.00    -0.480 OA
ATOM     39  H   UNL     1      31.727  -1.284 -24.593  0.00  0.00    +0.295 HD
ENDBRANCH  37  38
ENDBRANCH  35  37
ENDBRANCH  31  35
ENDBRANCH  26  31
ENDBRANCH  24  25
ENDBRANCH  23  24
ENDBRANCH   6  23
TORSDOF 10
ENDMDL
MODEL 5
REMARK VINA RESULT:     -12.6      1.369      2.520
REMARK  Name = 51049992
REMARK  10 active torsions:
REMARK  status: ('A' for Active; 'I' for Inactive)
REMARK    1  A    between atoms: C_1  and  C_7
REMARK    2  A    between atoms: C_6  and  C_23
REMARK    3  A    between atoms: C_7  and  N_8
REMARK    4  A    between atoms: C_23  and  O_24
REMARK    5  A    between atoms: O_24  and  C_25
REMARK    6  A    between atoms: C_26  and  C_31
REMARK    7  A    between atoms: C_31  and  C_32
REMARK    8  A    between atoms: C_31  and  C_35
REMARK    9  A    between atoms: C_35  and  C_37
REMARK   10  A    between atoms: C_37  and  O_38
REMARK                            x       y       z     vdW  Elec       q    Type
REMARK                         _______ _______ _______ _____ _____    ______ ____
ROOT
ATOM      1  C   UNL     1      35.404 -18.130 -22.309  0.00  0.00    -0.043 C 
ATOM      2  C   UNL     1      36.639 -18.136 -21.659  0.00  0.00    -0.007 C 
ATOM      3  C   UNL     1      34.415 -19.040 -21.934  0.00  0.00    -0.007 C 
ATOM      4  C   UNL     1      36.883 -19.051 -20.635  0.00  0.00    -0.001 C 
ATOM      5  C   UNL     1      34.660 -19.955 -20.911  0.00  0.00    -0.001 C 
ATOM      6  C   UNL     1      35.894 -19.961 -20.261  0.00  0.00    +0.021 C 
ENDROOT
BRANCH   1   7
ATOM      7  C   UNL     1      35.141 -17.143 -23.414  0.00  0.00    -0.050 C 
BRANCH   7   8
ATOM      8  N   UNL     1      34.374 -15.989 -22.942  0.00  0.00    +0.390 N 
ATOM      9  C   UNL     1      33.621 -13.144 -22.788  0.00  0.00    +0.033 C 
ATOM     10  C   UNL     1      32.799 -14.184 -23.570  0.00  0.00    -0.015 C 
ATOM     11  C   UNL     1      34.459 -13.846 -21.704  0.00  0.00    -0.015 C 
ATOM     12  C   UNL     1      35.255 -15.030 -22.262  0.00  0.00    -0.076 C 
ATOM     13  C   UNL     1      33.658 -15.357 -24.057  0.00  0.00    -0.076 C 
ATOM     14  C   UNL     1      32.743 -12.057 -22.204  0.00  0.00    -0.019 C 
ATOM     15  C   UNL     1      34.496 -12.304 -23.718  0.00  0.00    -0.023 C 
ATOM     16  C   UNL     1      33.103 -10.815 -22.748  0.00  0.00    -0.004 C 
ATOM     17  C   UNL     1      34.194 -10.997 -23.686  0.00  0.00    -0.005 C 
ATOM     18  C   UNL     1      31.718 -12.153 -21.277  0.00  0.00    -0.004 C 
ATOM     19  C   UNL     1      32.450  -9.650 -22.379  0.00  0.00    -0.000 C 
ATOM     20  C   UNL     1      31.053 -10.984 -20.897  0.00  0.00    -0.000 C 
ATOM     21  C   UNL     1      31.416  -9.743 -21.444  0.00  0.00    -0.000 C 
ATOM     22  H   UNL     1      33.681 -16.310 -22.267  0.00  0.00    -0.079 HD
ENDBRANCH   7   8
ENDBRANCH   1   7
BRANCH   6  23
ATOM     23  C   UNL     1      36.154 -20.937 -19.164  0.00  0.00    +0.232 C 
BRANCH  23  24
ATOM     24  O   UNL     1      35.267 -22.042 -19.294  0.00  0.00    -0.471 OA
BRANCH  24  25
ATOM     25  C   UNL     1      34.439 -22.297 -18.234  0.00  0.00    +0.139 C 
ATOM     26  C   UNL     1      32.751 -22.819 -16.074  0.00  0.00    -0.010 C 
ATOM     27  C   UNL     1      34.970 -22.754 -17.028  0.00  0.00    +0.037 C 
ATOM     28  C   UNL     1      33.063 -22.101 -18.360  0.00  0.00    +0.037 C 
ATOM     29  C   UNL     1      34.126 -23.014 -15.948  0.00  0.00    -0.000 C 
ATOM     30  C   UNL     1      32.219 -22.363 -17.280  0.00  0.00    -0.000 C 
BRANCH  26  31
ATOM     31  C   UNL     1      31.848 -23.097 -14.920  0.00  0.00    +0.097 C 
BRANCH  31  32
ATOM     32  C   UNL     1      30.415 -22.955 -15.297  0.00  0.00    -0.087 C 
ATOM     33  C   UNL     1      29.257 -22.826 -15.592  0.00  0.00    -0.090 C 
ATOM     34  C   UNL     1      27.848 -22.669 -15.949  0.00  0.00    +0.090 C 
ENDBRANCH  31  32
BRANCH  31  35
ATOM     35  C   UNL     1      32.098 -24.498 -14.300  0.00  0.00    +0.127 C 
BRANCH  35  37
ATOM     36  O   UNL     1      30.793 -24.588 -12.239  0.00  0.00    -0.250 OA
ATOM     37  C   UNL     1      30.990 -24.977 -13.382  0.00  0.00    +0.315 C 
BRANCH  37  38
ATOM     38  O   UNL     1      30.208 -25.905 -13.994  0.00  0.00    -0.480 OA
ATOM     39  H   UNL     1      29.658 -26.465 -13.484  0.00  0.00    +0.295 HD
ENDBRANCH  37  38
ENDBRANCH  35  37
ENDBRANCH  31  35
ENDBRANCH  26  31
ENDBRANCH  24  25
ENDBRANCH  23  24
ENDBRANCH   6  23
TORSDOF 10
ENDMDL
MODEL 6
REMARK VINA RESULT:     -12.1      3.530     12.711
REMARK  Name = 51049992
REMARK  10 active torsions:
REMARK  status: ('A' for Active; 'I' for Inactive)
REMARK    1  A    between atoms: C_1  and  C_7
REMARK    2  A    between atoms: C_6  and  C_23
REMARK    3  A    between atoms: C_7  and  N_8
REMARK    4  A    between atoms: C_23  and  O_24
REMARK    5  A    between atoms: O_24  and  C_25
REMARK    6  A    between atoms: C_26  and  C_31
REMARK    7  A    between atoms: C_31  and  C_32
REMARK    8  A    between atoms: C_31  and  C_35
REMARK    9  A    between atoms: C_35  and  C_37
REMARK   10  A    between atoms: C_37  and  O_38
REMARK                            x       y       z     vdW  Elec       q    Type
REMARK                         _______ _______ _______ _____ _____    ______ ____
ROOT
ATOM      1  C   UNL     1      33.701 -21.656 -18.728  0.00  0.00    -0.043 C 
ATOM      2  C   UNL     1      35.085 -21.656 -18.908  0.00  0.00    -0.007 C 
ATOM      3  C   UNL     1      32.903 -20.777 -19.462  0.00  0.00    -0.007 C 
ATOM      4  C   UNL     1      35.670 -20.779 -19.821  0.00  0.00    -0.001 C 
ATOM      5  C   UNL     1      33.488 -19.900 -20.374  0.00  0.00    -0.001 C 
ATOM      6  C   UNL     1      34.872 -19.901 -20.554  0.00  0.00    +0.021 C 
ENDROOT
BRANCH   1   7
ATOM      7  C   UNL     1      33.070 -22.603 -17.743  0.00  0.00    -0.050 C 
BRANCH   7   8
ATOM      8  N   UNL     1      33.846 -22.699 -16.506  0.00  0.00    +0.390 N 
ATOM      9  C   UNL     1      35.575 -24.015 -14.514  0.00  0.00    +0.033 C 
ATOM     10  C   UNL     1      36.102 -22.979 -15.524  0.00  0.00    -0.015 C 
ATOM     11  C   UNL     1      34.061 -23.823 -14.310  0.00  0.00    -0.015 C 
ATOM     12  C   UNL     1      33.300 -23.751 -15.638  0.00  0.00    -0.076 C 
ATOM     13  C   UNL     1      35.264 -22.939 -16.806  0.00  0.00    -0.076 C 
ATOM     14  C   UNL     1      36.331 -23.958 -13.203  0.00  0.00    -0.019 C 
ATOM     15  C   UNL     1      35.907 -25.442 -14.948  0.00  0.00    -0.023 C 
ATOM     16  C   UNL     1      36.973 -25.184 -12.974  0.00  0.00    -0.004 C 
ATOM     17  C   UNL     1      36.694 -26.088 -14.073  0.00  0.00    -0.005 C 
ATOM     18  C   UNL     1      36.444 -22.918 -12.294  0.00  0.00    -0.004 C 
ATOM     19  C   UNL     1      37.737 -25.396 -11.838  0.00  0.00    -0.000 C 
ATOM     20  C   UNL     1      37.212 -23.122 -11.144  0.00  0.00    -0.000 C 
ATOM     21  C   UNL     1      37.853 -24.351 -10.918  0.00  0.00    -0.000 C 
ATOM     22  H   UNL     1      33.777 -21.814 -16.006  0.00  0.00    -0.079 HD
ENDBRANCH   7   8
ENDBRANCH   1   7
BRANCH   6  23
ATOM     23  C   UNL     1      35.497 -18.965 -21.532  0.00  0.00    +0.232 C 
BRANCH  23  24
ATOM     24  O   UNL     1      35.972 -17.812 -20.846  0.00  0.00    -0.471 OA
BRANCH  24  25
ATOM     25  C   UNL     1      35.385 -16.617 -21.168  0.00  0.00    +0.139 C 
ATOM     26  C   UNL     1      34.187 -14.184 -21.825  0.00  0.00    -0.010 C 
ATOM     27  C   UNL     1      34.951 -15.758 -20.159  0.00  0.00    +0.037 C 
ATOM     28  C   UNL     1      35.220 -16.259 -22.506  0.00  0.00    +0.037 C 
ATOM     29  C   UNL     1      34.352 -14.541 -20.487  0.00  0.00    -0.000 C 
ATOM     30  C   UNL     1      34.621 -15.043 -22.835  0.00  0.00    -0.000 C 
BRANCH  26  31
ATOM     31  C   UNL     1      33.547 -12.884 -22.177  0.00  0.00    +0.097 C 
BRANCH  31  32
ATOM     32  C   UNL     1      33.464 -12.693 -23.651  0.00  0.00    -0.087 C 
ATOM     33  C   UNL     1      33.410 -12.550 -24.843  0.00  0.00    -0.090 C 
ATOM     34  C   UNL     1      33.348 -12.374 -26.292  0.00  0.00    +0.090 C 
ENDBRANCH  31  32
BRANCH  31  35
ATOM     35  C   UNL     1      32.140 -12.727 -21.540  0.00  0.00    +0.127 C 
BRANCH  35  37
ATOM     36  O   UNL     1      32.368 -10.299 -21.615  0.00  0.00    -0.250 OA
ATOM     37  C   UNL     1      31.697 -11.288 -21.358  0.00  0.00    +0.315 C 
BRANCH  37  38
ATOM     38  O   UNL     1      30.429 -11.219 -20.875  0.00  0.00    -0.480 OA
ATOM     39  H   UNL     1      30.278 -10.962 -19.988  0.00  0.00    +0.295 HD
ENDBRANCH  37  38
ENDBRANCH  35  37
ENDBRANCH  31  35
ENDBRANCH  26  31
ENDBRANCH  24  25
ENDBRANCH  23  24
ENDBRANCH   6  23
TORSDOF 10
ENDMDL
MODEL 7
REMARK VINA RESULT:     -12.0      3.432      7.099
REMARK  Name = 51049992
REMARK  10 active torsions:
REMARK  status: ('A' for Active; 'I' for Inactive)
REMARK    1  A    between atoms: C_1  and  C_7
REMARK    2  A    between atoms: C_6  and  C_23
REMARK    3  A    between atoms: C_7  and  N_8
REMARK    4  A    between atoms: C_23  and  O_24
REMARK    5  A    between atoms: O_24  and  C_25
REMARK    6  A    between atoms: C_26  and  C_31
REMARK    7  A    between atoms: C_31  and  C_32
REMARK    8  A    between atoms: C_31  and  C_35
REMARK    9  A    between atoms: C_35  and  C_37
REMARK   10  A    between atoms: C_37  and  O_38
REMARK                            x       y       z     vdW  Elec       q    Type
REMARK                         _______ _______ _______ _____ _____    ______ ____
ROOT
ATOM      1  C   UNL     1      32.680 -11.391 -21.877  0.00  0.00    -0.043 C 
ATOM      2  C   UNL     1      33.411 -11.235 -23.055  0.00  0.00    -0.007 C 
ATOM      3  C   UNL     1      32.532 -12.658 -21.311  0.00  0.00    -0.007 C 
ATOM      4  C   UNL     1      33.994 -12.345 -23.666  0.00  0.00    -0.001 C 
ATOM      5  C   UNL     1      33.115 -13.768 -21.923  0.00  0.00    -0.001 C 
ATOM      6  C   UNL     1      33.845 -13.611 -23.101  0.00  0.00    +0.021 C 
ENDROOT
BRANCH   1   7
ATOM      7  C   UNL     1      32.052 -10.193 -21.217  0.00  0.00    -0.050 C 
BRANCH   7   8
ATOM      8  N   UNL     1      32.283  -8.967 -21.981  0.00  0.00    +0.390 N 
ATOM      9  C   UNL     1      32.124  -6.076 -22.536  0.00  0.00    +0.033 C 
ATOM     10  C   UNL     1      33.402  -6.758 -22.014  0.00  0.00    -0.015 C 
ATOM     11  C   UNL     1      31.228  -7.113 -23.238  0.00  0.00    -0.015 C 
ATOM     12  C   UNL     1      31.005  -8.364 -22.383  0.00  0.00    -0.076 C 
ATOM     13  C   UNL     1      33.096  -8.023 -21.204  0.00  0.00    -0.076 C 
ATOM     14  C   UNL     1      32.441  -4.902 -23.439  0.00  0.00    -0.019 C 
ATOM     15  C   UNL     1      31.375  -5.353 -21.417  0.00  0.00    -0.023 C 
ATOM     16  C   UNL     1      31.930  -3.722 -22.876  0.00  0.00    -0.004 C 
ATOM     17  C   UNL     1      31.273  -4.031 -21.621  0.00  0.00    -0.005 C 
ATOM     18  C   UNL     1      33.119  -4.876 -24.647  0.00  0.00    -0.004 C 
ATOM     19  C   UNL     1      32.086  -2.499 -23.506  0.00  0.00    -0.000 C 
ATOM     20  C   UNL     1      33.281  -3.646 -25.290  0.00  0.00    -0.000 C 
ATOM     21  C   UNL     1      32.769  -2.468 -24.725  0.00  0.00    -0.000 C 
ATOM     22  H   UNL     1      32.799  -9.201 -22.829  0.00  0.00    -0.079 HD
ENDBRANCH   7   8
ENDBRANCH   1   7
BRANCH   6  23
ATOM     23  C   UNL     1      34.471 -14.797 -23.753  0.00  0.00    +0.232 C 
BRANCH  23  24
ATOM     24  O   UNL     1      35.481 -15.327 -22.902  0.00  0.00    -0.471 OA
BRANCH  24  25
ATOM     25  C   UNL     1      35.240 -16.557 -22.350  0.00  0.00    +0.139 C 
ATOM     26  C   UNL     1      34.751 -19.063 -21.226  0.00  0.00    -0.010 C 
ATOM     27  C   UNL     1      35.326 -16.731 -20.969  0.00  0.00    +0.037 C 
ATOM     28  C   UNL     1      34.910 -17.637 -23.169  0.00  0.00    +0.037 C 
ATOM     29  C   UNL     1      35.081 -17.984 -20.406  0.00  0.00    -0.000 C 
ATOM     30  C   UNL     1      34.666 -18.890 -22.607  0.00  0.00    -0.000 C 
BRANCH  26  31
ATOM     31  C   UNL     1      34.490 -20.404 -20.626  0.00  0.00    +0.097 C 
BRANCH  31  32
ATOM     32  C   UNL     1      35.467 -20.724 -19.548  0.00  0.00    -0.087 C 
ATOM     33  C   UNL     1      36.243 -20.993 -18.671  0.00  0.00    -0.090 C 
ATOM     34  C   UNL     1      37.186 -21.318 -17.603  0.00  0.00    +0.090 C 
ENDBRANCH  31  32
BRANCH  31  35
ATOM     35  C   UNL     1      33.040 -20.535 -20.085  0.00  0.00    +0.127 C 
BRANCH  35  37
ATOM     36  O   UNL     1      33.363 -22.774 -19.167  0.00  0.00    -0.250 OA
ATOM     37  C   UNL     1      32.848 -21.667 -19.094  0.00  0.00    +0.315 C 
BRANCH  37  38
ATOM     38  O   UNL     1      32.026 -21.298 -18.077  0.00  0.00    -0.480 OA
ATOM     39  H   UNL     1      32.061 -20.426 -17.739  0.00  0.00    +0.295 HD
ENDBRANCH  37  38
ENDBRANCH  35  37
ENDBRANCH  31  35
ENDBRANCH  26  31
ENDBRANCH  24  25
ENDBRANCH  23  24
ENDBRANCH   6  23
TORSDOF 10
ENDMDL
MODEL 8
REMARK VINA RESULT:     -11.9      3.543     12.563
REMARK  Name = 51049992
REMARK  10 active torsions:
REMARK  status: ('A' for Active; 'I' for Inactive)
REMARK    1  A    between atoms: C_1  and  C_7
REMARK    2  A    between atoms: C_6  and  C_23
REMARK    3  A    between atoms: C_7  and  N_8
REMARK    4  A    between atoms: C_23  and  O_24
REMARK    5  A    between atoms: O_24  and  C_25
REMARK    6  A    between atoms: C_26  and  C_31
REMARK    7  A    between atoms: C_31  and  C_32
REMARK    8  A    between atoms: C_31  and  C_35
REMARK    9  A    between atoms: C_35  and  C_37
REMARK   10  A    between atoms: C_37  and  O_38
REMARK                            x       y       z     vdW  Elec       q    Type
REMARK                         _______ _______ _______ _____ _____    ______ ____
ROOT
ATOM      1  C   UNL     1      33.745 -21.531 -18.798  0.00  0.00    -0.043 C 
ATOM      2  C   UNL     1      32.918 -20.664 -19.512  0.00  0.00    -0.007 C 
ATOM      3  C   UNL     1      35.110 -21.585 -19.085  0.00  0.00    -0.007 C 
ATOM      4  C   UNL     1      33.454 -19.851 -20.511  0.00  0.00    -0.001 C 
ATOM      5  C   UNL     1      35.646 -20.772 -20.083  0.00  0.00    -0.001 C 
ATOM      6  C   UNL     1      34.819 -19.905 -20.796  0.00  0.00    +0.021 C 
ENDROOT
BRANCH   1   7
ATOM      7  C   UNL     1      33.166 -22.408 -17.721  0.00  0.00    -0.050 C 
BRANCH   7   8
ATOM      8  N   UNL     1      34.209 -23.105 -16.967  0.00  0.00    +0.390 N 
ATOM      9  C   UNL     1      35.803 -23.778 -14.581  0.00  0.00    +0.033 C 
ATOM     10  C   UNL     1      34.688 -24.689 -15.125  0.00  0.00    -0.015 C 
ATOM     11  C   UNL     1      36.325 -22.863 -15.704  0.00  0.00    -0.015 C 
ATOM     12  C   UNL     1      35.191 -22.145 -16.443  0.00  0.00    -0.076 C 
ATOM     13  C   UNL     1      33.615 -23.903 -15.887  0.00  0.00    -0.076 C 
ATOM     14  C   UNL     1      36.920 -24.577 -13.942  0.00  0.00    -0.019 C 
ATOM     15  C   UNL     1      35.332 -22.972 -13.372  0.00  0.00    -0.023 C 
ATOM     16  C   UNL     1      37.025 -24.240 -12.584  0.00  0.00    -0.004 C 
ATOM     17  C   UNL     1      36.027 -23.241 -12.257  0.00  0.00    -0.005 C 
ATOM     18  C   UNL     1      37.767 -25.518 -14.507  0.00  0.00    -0.004 C 
ATOM     19  C   UNL     1      37.974 -24.832 -11.767  0.00  0.00    -0.000 C 
ATOM     20  C   UNL     1      38.728 -26.120 -13.690  0.00  0.00    -0.000 C 
ATOM     21  C   UNL     1      38.830 -25.780 -12.332  0.00  0.00    -0.000 C 
ATOM     22  H   UNL     1      34.698 -23.742 -17.594  0.00  0.00    -0.079 HD
ENDBRANCH   7   8
ENDBRANCH   1   7
BRANCH   6  23
ATOM     23  C   UNL     1      35.393 -19.034 -21.861  0.00  0.00    +0.232 C 
BRANCH  23  24
ATOM     24  O   UNL     1      36.082 -17.944 -21.260  0.00  0.00    -0.471 OA
BRANCH  24  25
ATOM     25  C   UNL     1      35.477 -16.717 -21.331  0.00  0.00    +0.139 C 
ATOM     26  C   UNL     1      34.247 -14.217 -21.476  0.00  0.00    -0.010 C 
ATOM     27  C   UNL     1      35.328 -16.083 -22.565  0.00  0.00    +0.037 C 
ATOM     28  C   UNL     1      35.011 -16.100 -20.170  0.00  0.00    +0.037 C 
ATOM     29  C   UNL     1      34.712 -14.833 -22.637  0.00  0.00    -0.000 C 
ATOM     30  C   UNL     1      34.397 -14.850 -20.242  0.00  0.00    -0.000 C 
BRANCH  26  31
ATOM     31  C   UNL     1      33.589 -12.880 -21.552  0.00  0.00    +0.097 C 
BRANCH  31  32
ATOM     32  C   UNL     1      33.768 -12.255 -22.891  0.00  0.00    -0.087 C 
ATOM     33  C   UNL     1      33.928 -11.759 -23.974  0.00  0.00    -0.090 C 
ATOM     34  C   UNL     1      34.124 -11.154 -25.290  0.00  0.00    +0.090 C 
ENDBRANCH  31  32
BRANCH  31  35
ATOM     35  C   UNL     1      32.080 -12.944 -21.193  0.00  0.00    +0.127 C 
BRANCH  35  37
ATOM     36  O   UNL     1      32.089 -11.347 -19.347  0.00  0.00    -0.250 OA
ATOM     37  C   UNL     1      31.585 -11.763 -20.381  0.00  0.00    +0.315 C 
BRANCH  37  38
ATOM     38  O   UNL     1      30.493 -11.193 -20.954  0.00  0.00    -0.480 OA
ATOM     39  H   UNL     1      30.564 -10.784 -21.793  0.00  0.00    +0.295 HD
ENDBRANCH  37  38
ENDBRANCH  35  37
ENDBRANCH  31  35
ENDBRANCH  26  31
ENDBRANCH  24  25
ENDBRANCH  23  24
ENDBRANCH   6  23
TORSDOF 10
ENDMDL
MODEL 9
REMARK VINA RESULT:     -11.9      3.514     12.783
REMARK  Name = 51049992
REMARK  10 active torsions:
REMARK  status: ('A' for Active; 'I' for Inactive)
REMARK    1  A    between atoms: C_1  and  C_7
REMARK    2  A    between atoms: C_6  and  C_23
REMARK    3  A    between atoms: C_7  and  N_8
REMARK    4  A    between atoms: C_23  and  O_24
REMARK    5  A    between atoms: O_24  and  C_25
REMARK    6  A    between atoms: C_26  and  C_31
REMARK    7  A    between atoms: C_31  and  C_32
REMARK    8  A    between atoms: C_31  and  C_35
REMARK    9  A    between atoms: C_35  and  C_37
REMARK   10  A    between atoms: C_37  and  O_38
REMARK                            x       y       z     vdW  Elec       q    Type
REMARK                         _______ _______ _______ _____ _____    ______ ____
ROOT
ATOM      1  C   UNL     1      33.821 -21.520 -18.839  0.00  0.00    -0.043 C 
ATOM      2  C   UNL     1      33.006 -20.692 -19.613  0.00  0.00    -0.007 C 
ATOM      3  C   UNL     1      35.209 -21.425 -18.944  0.00  0.00    -0.007 C 
ATOM      4  C   UNL     1      33.579 -19.771 -20.490  0.00  0.00    -0.001 C 
ATOM      5  C   UNL     1      35.782 -20.504 -19.821  0.00  0.00    -0.001 C 
ATOM      6  C   UNL     1      34.966 -19.677 -20.594  0.00  0.00    +0.021 C 
ENDROOT
BRANCH   1   7
ATOM      7  C   UNL     1      33.202 -22.513 -17.893  0.00  0.00    -0.050 C 
BRANCH   7   8
ATOM      8  N   UNL     1      33.953 -22.613 -16.641  0.00  0.00    +0.390 N 
ATOM      9  C   UNL     1      35.616 -23.944 -14.604  0.00  0.00    +0.033 C 
ATOM     10  C   UNL     1      36.184 -22.929 -15.613  0.00  0.00    -0.015 C 
ATOM     11  C   UNL     1      34.103 -23.720 -14.431  0.00  0.00    -0.015 C 
ATOM     12  C   UNL     1      33.369 -23.645 -15.774  0.00  0.00    -0.076 C 
ATOM     13  C   UNL     1      35.370 -22.885 -16.912  0.00  0.00    -0.076 C 
ATOM     14  C   UNL     1      36.349 -23.890 -13.279  0.00  0.00    -0.019 C 
ATOM     15  C   UNL     1      35.927 -25.382 -15.018  0.00  0.00    -0.023 C 
ATOM     16  C   UNL     1      36.961 -25.127 -13.027  0.00  0.00    -0.004 C 
ATOM     17  C   UNL     1      36.683 -26.036 -14.122  0.00  0.00    -0.005 C 
ATOM     18  C   UNL     1      36.465 -22.844 -12.378  0.00  0.00    -0.004 C 
ATOM     19  C   UNL     1      37.698 -25.343 -11.874  0.00  0.00    -0.000 C 
ATOM     20  C   UNL     1      37.207 -23.053 -11.212  0.00  0.00    -0.000 C 
ATOM     21  C   UNL     1      37.818 -24.292 -10.962  0.00  0.00    -0.000 C 
ATOM     22  H   UNL     1      33.893 -21.722 -16.151  0.00  0.00    -0.079 HD
ENDBRANCH   7   8
ENDBRANCH   1   7
BRANCH   6  23
ATOM     23  C   UNL     1      35.579 -18.691 -21.529  0.00  0.00    +0.232 C 
BRANCH  23  24
ATOM     24  O   UNL     1      35.853 -17.482 -20.829  0.00  0.00    -0.471 OA
BRANCH  24  25
ATOM     25  C   UNL     1      35.221 -16.353 -21.276  0.00  0.00    +0.139 C 
ATOM     26  C   UNL     1      33.932 -14.053 -22.188  0.00  0.00    -0.010 C 
ATOM     27  C   UNL     1      34.787 -15.389 -20.367  0.00  0.00    +0.037 C 
ATOM     28  C   UNL     1      35.010 -16.166 -22.643  0.00  0.00    +0.037 C 
ATOM     29  C   UNL     1      34.143 -14.238 -20.823  0.00  0.00    -0.000 C 
ATOM     30  C   UNL     1      34.365 -15.017 -23.099  0.00  0.00    -0.000 C 
BRANCH  26  31
ATOM     31  C   UNL     1      33.243 -12.823 -22.677  0.00  0.00    +0.097 C 
BRANCH  31  32
ATOM     32  C   UNL     1      32.550 -12.106 -21.572  0.00  0.00    -0.087 C 
ATOM     33  C   UNL     1      31.995 -11.511 -20.687  0.00  0.00    -0.090 C 
ATOM     34  C   UNL     1      31.322 -10.787 -19.610  0.00  0.00    +0.090 C 
ENDBRANCH  31  32
BRANCH  31  35
ATOM     35  C   UNL     1      34.210 -11.858 -23.413  0.00  0.00    +0.127 C 
BRANCH  35  37
ATOM     36  O   UNL     1      33.177 -12.426 -25.550  0.00  0.00    -0.250 OA
ATOM     37  C   UNL     1      33.951 -11.736 -24.902  0.00  0.00    +0.315 C 
BRANCH  37  38
ATOM     38  O   UNL     1      34.688 -10.734 -25.451  0.00  0.00    -0.480 OA
ATOM     39  H   UNL     1      35.563 -10.581 -25.157  0.00  0.00    +0.295 HD
ENDBRANCH  37  38
ENDBRANCH  35  37
ENDBRANCH  31  35
ENDBRANCH  26  31
ENDBRANCH  24  25
ENDBRANCH  23  24
ENDBRANCH   6  23
TORSDOF 10
ENDMDL
