MODEL 1
REMARK VINA RESULT:     -12.3      0.000      0.000
REMARK  Name = 16040294
REMARK  4 active torsions:
REMARK  status: ('A' for Active; 'I' for Inactive)
REMARK    1  A    between atoms: N_6  and  C_21
REMARK    2  A    between atoms: C_7  and  C_30
REMARK    3  A    between atoms: C_24  and  C_27
REMARK    4  A    between atoms: C_27  and  C_29
REMARK                            x       y       z     vdW  Elec       q    Type
REMARK                         _______ _______ _______ _____ _____    ______ ____
ROOT
ATOM      1  N   UNL     1      31.030 -23.434 -16.192  0.00  0.00    -0.239 N 
ATOM      2  N   UNL     1      32.342 -23.386 -15.908  0.00  0.00    -0.166 NA
ATOM      3  N   UNL     1      33.470 -23.192 -13.799  0.00  0.00    -0.271 N 
ATOM      4  N   UNL     1      35.210 -22.680 -15.298  0.00  0.00    -0.312 NA
ATOM      5  N   UNL     1      37.502 -23.171 -14.736  0.00  0.00    -0.332 NA
ATOM      6  N   UNL     1      36.948 -22.174 -16.786  0.00  0.00    -0.238 N 
ATOM      7  C   UNL     1      30.224 -23.359 -15.093  0.00  0.00    +0.045 C 
ATOM      8  C   UNL     1      31.070 -23.254 -14.016  0.00  0.00    +0.048 C 
ATOM      9  C   UNL     1      32.323 -23.279 -14.604  0.00  0.00    +0.152 C 
ATOM     10  C   UNL     1      34.855 -23.192 -14.105  0.00  0.00    +0.201 C 
ATOM     11  C   UNL     1      35.757 -23.708 -13.181  0.00  0.00    +0.072 C 
ATOM     12  C   UNL     1      37.111 -23.675 -13.553  0.00  0.00    +0.131 C 
ATOM     13  C   UNL     1      36.530 -22.701 -15.545  0.00  0.00    +0.204 C 
ATOM     14  C   UNL     1      35.360 -24.237 -11.940  0.00  0.00    +0.006 C 
ATOM     15  C   UNL     1      38.045 -24.183 -12.652  0.00  0.00    +0.086 C 
ATOM     16  C   UNL     1      36.315 -24.738 -11.060  0.00  0.00    -0.004 C 
ATOM     17  C   UNL     1      37.658 -24.711 -11.416  0.00  0.00    -0.019 C 
ATOM     18  H   UNL     1      30.681 -23.517 -17.110  0.00  0.00    +0.174 HD
ATOM     19  H   UNL     1      33.276 -23.116 -12.838  0.00  0.00    +0.156 HD
ATOM     20  H   UNL     1      37.921 -22.211 -16.924  0.00  0.00    +0.166 HD
ENDROOT
BRANCH   6  21
ATOM     21  C   UNL     1      36.244 -21.607 -17.865  0.00  0.00    +0.058 C 
ATOM     22  C   UNL     1      34.913 -21.960 -18.097  0.00  0.00    +0.015 C 
ATOM     23  C   UNL     1      36.874 -20.687 -18.706  0.00  0.00    +0.015 C 
ATOM     24  C   UNL     1      34.847 -20.479 -20.004  0.00  0.00    -0.007 C 
ATOM     25  C   UNL     1      34.216 -21.398 -19.166  0.00  0.00    -0.002 C 
ATOM     26  C   UNL     1      36.176 -20.124 -19.774  0.00  0.00    -0.002 C 
BRANCH  24  27
ATOM     27  C   UNL     1      34.102 -19.878 -21.147  0.00  0.00    +0.132 C 
BRANCH  27  29
ATOM     28  N   UNL     1      35.621 -18.361 -22.673  0.00  0.00    -0.196 NA
ATOM     29  C   UNL     1      34.956 -19.030 -21.998  0.00  0.00    +0.078 C 
ENDBRANCH  27  29
ENDBRANCH  24  27
ENDBRANCH   6  21
BRANCH   7  30
ATOM     30  C   UNL     1      28.702 -23.386 -15.077  0.00  0.00    +0.037 C 
ATOM     31  C   UNL     1      27.952 -23.389 -16.385  0.00  0.00    +0.006 C 
ATOM     32  C   UNL     1      27.939 -22.163 -15.519  0.00  0.00    +0.006 C 
ENDBRANCH   7  30
TORSDOF 4
ENDMDL
MODEL 2
REMARK VINA RESULT:     -11.5      2.041      7.365
REMARK  Name = 16040294
REMARK  4 active torsions:
REMARK  status: ('A' for Active; 'I' for Inactive)
REMARK    1  A    between atoms: N_6  and  C_21
REMARK    2  A    between atoms: C_7  and  C_30
REMARK    3  A    between atoms: C_24  and  C_27
REMARK    4  A    between atoms: C_27  and  C_29
REMARK                            x       y       z     vdW  Elec       q    Type
REMARK                         _______ _______ _______ _____ _____    ______ ____
ROOT
ATOM      1  N   UNL     1      35.064 -22.311 -19.101  0.00  0.00    -0.239 N 
ATOM      2  N   UNL     1      34.378 -22.834 -18.072  0.00  0.00    -0.166 NA
ATOM      3  N   UNL     1      32.281 -22.179 -17.108  0.00  0.00    -0.271 N 
ATOM      4  N   UNL     1      33.132 -23.596 -15.433  0.00  0.00    -0.312 NA
ATOM      5  N   UNL     1      31.645 -24.846 -14.007  0.00  0.00    -0.332 NA
ATOM      6  N   UNL     1      33.972 -25.008 -13.763  0.00  0.00    -0.238 N 
ATOM      7  C   UNL     1      34.456 -21.235 -19.680  0.00  0.00    +0.045 C 
ATOM      8  C   UNL     1      33.291 -21.042 -18.978  0.00  0.00    +0.048 C 
ATOM      9  C   UNL     1      33.330 -22.051 -18.032  0.00  0.00    +0.152 C 
ATOM     10  C   UNL     1      32.046 -23.091 -16.048  0.00  0.00    +0.201 C 
ATOM     11  C   UNL     1      30.737 -23.413 -15.703  0.00  0.00    +0.072 C 
ATOM     12  C   UNL     1      30.582 -24.322 -14.644  0.00  0.00    +0.131 C 
ATOM     13  C   UNL     1      32.862 -24.454 -14.436  0.00  0.00    +0.204 C 
ATOM     14  C   UNL     1      29.619 -22.872 -16.361  0.00  0.00    +0.006 C 
ATOM     15  C   UNL     1      29.286 -24.668 -14.269  0.00  0.00    +0.086 C 
ATOM     16  C   UNL     1      28.335 -23.235 -15.965  0.00  0.00    -0.004 C 
ATOM     17  C   UNL     1      28.169 -24.135 -14.918  0.00  0.00    -0.019 C 
ATOM     18  H   UNL     1      35.927 -22.671 -19.411  0.00  0.00    +0.174 HD
ATOM     19  H   UNL     1      31.571 -21.507 -17.218  0.00  0.00    +0.156 HD
ATOM     20  H   UNL     1      33.727 -25.632 -13.043  0.00  0.00    +0.166 HD
ENDROOT
BRANCH   6  21
ATOM     21  C   UNL     1      35.361 -24.844 -13.923  0.00  0.00    +0.058 C 
ATOM     22  C   UNL     1      35.966 -23.631 -13.586  0.00  0.00    +0.015 C 
ATOM     23  C   UNL     1      36.138 -25.893 -14.417  0.00  0.00    +0.015 C 
ATOM     24  C   UNL     1      38.117 -24.519 -14.237  0.00  0.00    -0.007 C 
ATOM     25  C   UNL     1      37.342 -23.469 -13.744  0.00  0.00    -0.002 C 
ATOM     26  C   UNL     1      37.514 -25.731 -14.574  0.00  0.00    -0.002 C 
BRANCH  24  27
ATOM     27  C   UNL     1      39.588 -24.345 -14.406  0.00  0.00    +0.132 C 
BRANCH  27  29
ATOM     28  N   UNL     1      40.951 -26.511 -13.784  0.00  0.00    -0.196 NA
ATOM     29  C   UNL     1      40.347 -25.559 -14.056  0.00  0.00    +0.078 C 
ENDBRANCH  27  29
ENDBRANCH  24  27
ENDBRANCH   6  21
BRANCH   7  30
ATOM     30  C   UNL     1      34.972 -20.423 -20.860  0.00  0.00    +0.037 C 
ATOM     31  C   UNL     1      36.068 -19.412 -20.634  0.00  0.00    +0.006 C 
ATOM     32  C   UNL     1      34.671 -18.947 -20.925  0.00  0.00    +0.006 C 
ENDBRANCH   7  30
TORSDOF 4
ENDMDL
MODEL 3
REMARK VINA RESULT:     -11.3      1.517      6.760
REMARK  Name = 16040294
REMARK  4 active torsions:
REMARK  status: ('A' for Active; 'I' for Inactive)
REMARK    1  A    between atoms: N_6  and  C_21
REMARK    2  A    between atoms: C_7  and  C_30
REMARK    3  A    between atoms: C_24  and  C_27
REMARK    4  A    between atoms: C_27  and  C_29
REMARK                            x       y       z     vdW  Elec       q    Type
REMARK                         _______ _______ _______ _____ _____    ______ ____
ROOT
ATOM      1  N   UNL     1      31.743 -23.092 -14.547  0.00  0.00    -0.239 N 
ATOM      2  N   UNL     1      32.791 -22.690 -15.287  0.00  0.00    -0.166 NA
ATOM      3  N   UNL     1      33.014 -22.443 -17.662  0.00  0.00    -0.271 N 
ATOM      4  N   UNL     1      35.266 -22.377 -16.982  0.00  0.00    -0.312 NA
ATOM      5  N   UNL     1      36.896 -21.132 -18.246  0.00  0.00    -0.332 NA
ATOM      6  N   UNL     1      37.509 -22.306 -16.310  0.00  0.00    -0.238 N 
ATOM      7  C   UNL     1      30.638 -23.407 -15.283  0.00  0.00    +0.045 C 
ATOM      8  C   UNL     1      30.988 -23.196 -16.594  0.00  0.00    +0.048 C 
ATOM      9  C   UNL     1      32.300 -22.766 -16.497  0.00  0.00    +0.152 C 
ATOM     10  C   UNL     1      34.339 -21.986 -17.877  0.00  0.00    +0.201 C 
ATOM     11  C   UNL     1      34.611 -21.174 -18.973  0.00  0.00    +0.072 C 
ATOM     12  C   UNL     1      35.945 -20.760 -19.120  0.00  0.00    +0.131 C 
ATOM     13  C   UNL     1      36.505 -21.920 -17.224  0.00  0.00    +0.204 C 
ATOM     14  C   UNL     1      33.625 -20.779 -19.895  0.00  0.00    +0.006 C 
ATOM     15  C   UNL     1      36.256 -19.946 -20.208  0.00  0.00    +0.086 C 
ATOM     16  C   UNL     1      33.965 -19.966 -20.971  0.00  0.00    -0.004 C 
ATOM     17  C   UNL     1      35.282 -19.549 -21.128  0.00  0.00    -0.019 C 
ATOM     18  H   UNL     1      31.771 -23.153 -13.565  0.00  0.00    +0.174 HD
ATOM     19  H   UNL     1      32.495 -22.556 -18.491  0.00  0.00    +0.156 HD
ATOM     20  H   UNL     1      38.399 -21.948 -16.526  0.00  0.00    +0.166 HD
ENDROOT
BRANCH   6  21
ATOM     21  C   UNL     1      37.485 -23.103 -15.150  0.00  0.00    +0.058 C 
ATOM     22  C   UNL     1      38.407 -24.140 -14.992  0.00  0.00    +0.015 C 
ATOM     23  C   UNL     1      36.538 -22.859 -14.153  0.00  0.00    +0.015 C 
ATOM     24  C   UNL     1      37.437 -24.682 -12.847  0.00  0.00    -0.007 C 
ATOM     25  C   UNL     1      38.383 -24.929 -13.843  0.00  0.00    -0.002 C 
ATOM     26  C   UNL     1      36.514 -23.648 -13.003  0.00  0.00    -0.002 C 
BRANCH  24  27
ATOM     27  C   UNL     1      37.411 -25.526 -11.618  0.00  0.00    +0.132 C 
BRANCH  27  29
ATOM     28  N   UNL     1      35.427 -24.908 -10.000  0.00  0.00    -0.196 NA
ATOM     29  C   UNL     1      36.302 -25.175 -10.713  0.00  0.00    +0.078 C 
ENDBRANCH  27  29
ENDBRANCH  24  27
ENDBRANCH   6  21
BRANCH   7  30
ATOM     30  C   UNL     1      29.296 -23.891 -14.748  0.00  0.00    +0.037 C 
ATOM     31  C   UNL     1      28.271 -24.428 -15.715  0.00  0.00    +0.006 C 
ATOM     32  C   UNL     1      28.052 -23.097 -15.056  0.00  0.00    +0.006 C 
ENDBRANCH   7  30
TORSDOF 4
ENDMDL
MODEL 4
REMARK VINA RESULT:     -10.7      1.503      5.843
REMARK  Name = 16040294
REMARK  4 active torsions:
REMARK  status: ('A' for Active; 'I' for Inactive)
REMARK    1  A    between atoms: N_6  and  C_21
REMARK    2  A    between atoms: C_7  and  C_30
REMARK    3  A    between atoms: C_24  and  C_27
REMARK    4  A    between atoms: C_27  and  C_29
REMARK                            x       y       z     vdW  Elec       q    Type
REMARK                         _______ _______ _______ _____ _____    ______ ____
ROOT
ATOM      1  N   UNL     1      37.114 -22.799 -14.862  0.00  0.00    -0.239 N 
ATOM      2  N   UNL     1      35.816 -22.779 -15.210  0.00  0.00    -0.166 NA
ATOM      3  N   UNL     1      34.086 -24.402 -14.858  0.00  0.00    -0.271 N 
ATOM      4  N   UNL     1      33.095 -23.023 -16.486  0.00  0.00    -0.312 NA
ATOM      5  N   UNL     1      30.701 -22.755 -16.580  0.00  0.00    -0.332 NA
ATOM      6  N   UNL     1      32.101 -21.651 -18.104  0.00  0.00    -0.238 N 
ATOM      7  C   UNL     1      37.490 -23.933 -14.203  0.00  0.00    +0.045 C 
ATOM      8  C   UNL     1      36.359 -24.708 -14.115  0.00  0.00    +0.048 C 
ATOM      9  C   UNL     1      35.404 -23.931 -14.748  0.00  0.00    +0.152 C 
ATOM     10  C   UNL     1      32.917 -23.847 -15.437  0.00  0.00    +0.201 C 
ATOM     11  C   UNL     1      31.673 -24.171 -14.905  0.00  0.00    +0.072 C 
ATOM     12  C   UNL     1      30.561 -23.582 -15.530  0.00  0.00    +0.131 C 
ATOM     13  C   UNL     1      31.961 -22.520 -17.002  0.00  0.00    +0.204 C 
ATOM     14  C   UNL     1      31.513 -25.035 -13.807  0.00  0.00    +0.006 C 
ATOM     15  C   UNL     1      29.297 -23.884 -15.025  0.00  0.00    +0.086 C 
ATOM     16  C   UNL     1      30.239 -25.318 -13.325  0.00  0.00    -0.004 C 
ATOM     17  C   UNL     1      29.130 -24.742 -13.934  0.00  0.00    -0.019 C 
ATOM     18  H   UNL     1      37.737 -22.063 -15.063  0.00  0.00    +0.174 HD
ATOM     19  H   UNL     1      33.946 -25.290 -14.456  0.00  0.00    +0.156 HD
ATOM     20  H   UNL     1      31.246 -21.306 -18.448  0.00  0.00    +0.166 HD
ENDROOT
BRANCH   6  21
ATOM     21  C   UNL     1      33.225 -21.180 -18.809  0.00  0.00    +0.058 C 
ATOM     22  C   UNL     1      33.072 -20.222 -19.813  0.00  0.00    +0.015 C 
ATOM     23  C   UNL     1      34.497 -21.668 -18.504  0.00  0.00    +0.015 C 
ATOM     24  C   UNL     1      35.456 -20.244 -20.204  0.00  0.00    -0.007 C 
ATOM     25  C   UNL     1      34.186 -19.755 -20.510  0.00  0.00    -0.002 C 
ATOM     26  C   UNL     1      35.611 -21.201 -19.201  0.00  0.00    -0.002 C 
BRANCH  24  27
ATOM     27  C   UNL     1      36.647 -19.746 -20.950  0.00  0.00    +0.132 C 
BRANCH  27  29
ATOM     28  N   UNL     1      36.174 -17.475 -22.198  0.00  0.00    -0.196 NA
ATOM     29  C   UNL     1      36.387 -18.475 -21.649  0.00  0.00    +0.078 C 
ENDBRANCH  27  29
ENDBRANCH  24  27
ENDBRANCH   6  21
BRANCH   7  30
ATOM     30  C   UNL     1      38.881 -24.262 -13.677  0.00  0.00    +0.037 C 
ATOM     31  C   UNL     1      39.828 -25.051 -14.546  0.00  0.00    +0.006 C 
ATOM     32  C   UNL     1      39.218 -25.691 -13.333  0.00  0.00    +0.006 C 
ENDBRANCH   7  30
TORSDOF 4
ENDMDL
MODEL 5
REMARK VINA RESULT:      -9.9      1.679      6.332
REMARK  Name = 16040294
REMARK  4 active torsions:
REMARK  status: ('A' for Active; 'I' for Inactive)
REMARK    1  A    between atoms: N_6  and  C_21
REMARK    2  A    between atoms: C_7  and  C_30
REMARK    3  A    between atoms: C_24  and  C_27
REMARK    4  A    between atoms: C_27  and  C_29
REMARK                            x       y       z     vdW  Elec       q    Type
REMARK                         _______ _______ _______ _____ _____    ______ ____
ROOT
ATOM      1  N   UNL     1      33.502 -21.233 -18.372  0.00  0.00    -0.239 N 
ATOM      2  N   UNL     1      33.490 -21.846 -17.176  0.00  0.00    -0.166 NA
ATOM      3  N   UNL     1      35.125 -23.263 -16.139  0.00  0.00    -0.271 N 
ATOM      4  N   UNL     1      33.235 -23.689 -14.803  0.00  0.00    -0.312 NA
ATOM      5  N   UNL     1      33.481 -24.302 -12.485  0.00  0.00    -0.332 NA
ATOM      6  N   UNL     1      31.359 -24.114 -13.466  0.00  0.00    -0.238 N 
ATOM      7  C   UNL     1      34.634 -21.465 -19.099  0.00  0.00    +0.045 C 
ATOM      8  C   UNL     1      35.415 -22.287 -18.324  0.00  0.00    +0.048 C 
ATOM      9  C   UNL     1      34.645 -22.462 -17.188  0.00  0.00    +0.152 C 
ATOM     10  C   UNL     1      34.578 -23.621 -14.881  0.00  0.00    +0.201 C 
ATOM     11  C   UNL     1      35.433 -23.876 -13.813  0.00  0.00    +0.072 C 
ATOM     12  C   UNL     1      34.819 -24.224 -12.599  0.00  0.00    +0.131 C 
ATOM     13  C   UNL     1      32.762 -24.030 -13.593  0.00  0.00    +0.204 C 
ATOM     14  C   UNL     1      36.832 -23.798 -13.920  0.00  0.00    +0.006 C 
ATOM     15  C   UNL     1      35.643 -24.487 -11.507  0.00  0.00    +0.086 C 
ATOM     16  C   UNL     1      37.631 -24.067 -12.813  0.00  0.00    -0.004 C 
ATOM     17  C   UNL     1      37.035 -24.412 -11.605  0.00  0.00    -0.019 C 
ATOM     18  H   UNL     1      32.763 -20.667 -18.694  0.00  0.00    +0.174 HD
ATOM     19  H   UNL     1      36.012 -23.652 -16.311  0.00  0.00    +0.156 HD
ATOM     20  H   UNL     1      31.058 -24.365 -12.564  0.00  0.00    +0.166 HD
ENDROOT
BRANCH   6  21
ATOM     21  C   UNL     1      30.307 -23.908 -14.378  0.00  0.00    +0.058 C 
ATOM     22  C   UNL     1      29.839 -22.616 -14.628  0.00  0.00    +0.015 C 
ATOM     23  C   UNL     1      29.727 -24.995 -15.035  0.00  0.00    +0.015 C 
ATOM     24  C   UNL     1      28.220 -23.499 -16.188  0.00  0.00    -0.007 C 
ATOM     25  C   UNL     1      28.797 -22.412 -15.531  0.00  0.00    -0.002 C 
ATOM     26  C   UNL     1      28.685 -24.791 -15.939  0.00  0.00    -0.002 C 
BRANCH  24  27
ATOM     27  C   UNL     1      27.104 -23.281 -17.153  0.00  0.00    +0.132 C 
BRANCH  27  29
ATOM     28  N   UNL     1      26.226 -20.799 -17.156  0.00  0.00    -0.196 NA
ATOM     29  C   UNL     1      26.617 -21.890 -17.153  0.00  0.00    +0.078 C 
ENDBRANCH  27  29
ENDBRANCH  24  27
ENDBRANCH   6  21
BRANCH   7  30
ATOM     30  C   UNL     1      34.954 -20.918 -20.484  0.00  0.00    +0.037 C 
ATOM     31  C   UNL     1      35.713 -19.621 -20.605  0.00  0.00    +0.006 C 
ATOM     32  C   UNL     1      34.256 -19.669 -20.961  0.00  0.00    +0.006 C 
ENDBRANCH   7  30
TORSDOF 4
ENDMDL
