MODEL 1
REMARK VINA RESULT:     -12.1      0.000      0.000
REMARK  Name = 25101874
REMARK  5 active torsions:
REMARK  status: ('A' for Active; 'I' for Inactive)
REMARK    1  A    between atoms: N_1  and  C_22
REMARK    2  A    between atoms: C_2  and  N_8
REMARK    3  A    between atoms: N_8  and  C_11
REMARK    4  A    between atoms: C_11  and  C_14
REMARK    5  A    between atoms: C_22  and  C_28
REMARK                            x       y       z     vdW  Elec       q    Type
REMARK                         _______ _______ _______ _____ _____    ______ ____
ROOT
ATOM      1  N   UNL     1      36.052 -19.070 -21.642  0.00  0.00    +0.388 N 
ATOM      2  C   UNL     1      35.606 -20.644 -19.215  0.00  0.00    -0.066 C 
ATOM      3  C   UNL     1      34.687 -19.357 -21.181  0.00  0.00    -0.079 C 
ATOM      4  C   UNL     1      36.987 -18.976 -20.511  0.00  0.00    -0.079 C 
ATOM      5  C   UNL     1      34.632 -20.670 -20.396  0.00  0.00    -0.044 C 
ATOM      6  C   UNL     1      37.010 -20.277 -19.704  0.00  0.00    -0.044 C 
ATOM      7  H   UNL     1      36.352 -19.845 -22.233  0.00  0.00    -0.080 HD
ENDROOT
BRANCH   2   8
ATOM      8  N   UNL     1      35.611 -21.937 -18.536  0.00  0.00    +0.389 N 
ATOM      9  H   UNL     1      35.886 -21.803 -17.563  0.00  0.00    -0.084 HD
ATOM     10  H   UNL     1      36.273 -22.552 -19.010  0.00  0.00    -0.084 HD
BRANCH   8  11
ATOM     11  C   UNL     1      34.292 -22.550 -18.580  0.00  0.00    -0.034 C 
BRANCH  11  14
ATOM     12  O   UNL     1      32.579 -23.783 -13.400  0.00  0.00    -0.474 OA
ATOM     13  N   UNL     1      34.706 -23.200 -16.274  0.00  0.00    -0.247 NA
ATOM     14  C   UNL     1      33.779 -22.878 -17.202  0.00  0.00    +0.037 C 
ATOM     15  C   UNL     1      32.415 -22.837 -16.959  0.00  0.00    +0.011 C 
ATOM     16  C   UNL     1      31.963 -23.151 -15.676  0.00  0.00    +0.015 C 
ATOM     17  C   UNL     1      30.495 -23.122 -15.362  0.00  0.00    +0.033 C 
ATOM     18  C   UNL     1      32.900 -23.463 -14.689  0.00  0.00    +0.154 C 
ATOM     19  C   UNL     1      30.220 -23.866 -14.062  0.00  0.00    +0.052 C 
ATOM     20  C   UNL     1      34.243 -23.487 -15.037  0.00  0.00    +0.135 C 
ATOM     21  C   UNL     1      31.241 -23.445 -13.016  0.00  0.00    +0.206 C 
ENDBRANCH  11  14
ENDBRANCH   8  11
ENDBRANCH   2   8
BRANCH   1  22
ATOM     22  C   UNL     1      36.078 -17.840 -22.432  0.00  0.00    -0.055 C 
BRANCH  22  28
ATOM     23  O   UNL     1      35.022 -16.160 -19.678  0.00  0.00    -0.273 OA
ATOM     24  O   UNL     1      33.646 -15.278 -26.404  0.00  0.00    -0.270 OA
ATOM     25  N   UNL     1      34.629 -15.880 -21.963  0.00  0.00    -0.261 N 
ATOM     26  N   UNL     1      34.150 -15.549 -24.155  0.00  0.00    -0.255 N 
ATOM     27  N   UNL     1      34.417 -13.131 -21.445  0.00  0.00    -0.262 NA
ATOM     28  C   UNL     1      34.684 -17.235 -22.547  0.00  0.00    +0.076 C 
ATOM     29  C   UNL     1      34.273 -17.009 -24.028  0.00  0.00    +0.113 C 
ATOM     30  C   UNL     1      34.341 -14.977 -22.934  0.00  0.00    +0.196 C 
ATOM     31  C   UNL     1      34.244 -13.672 -22.693  0.00  0.00    +0.092 C 
ATOM     32  C   UNL     1      34.794 -15.476 -20.663  0.00  0.00    +0.252 C 
ATOM     33  C   UNL     1      33.840 -14.815 -25.283  0.00  0.00    +0.251 C 
ATOM     34  C   UNL     1      33.933 -12.814 -23.815  0.00  0.00    +0.022 C 
ATOM     35  C   UNL     1      34.673 -13.972 -20.484  0.00  0.00    +0.210 C 
ATOM     36  C   UNL     1      33.742 -13.329 -25.044  0.00  0.00    +0.059 C 
ENDBRANCH  22  28
ENDBRANCH   1  22
TORSDOF 5
ENDMDL
MODEL 2
REMARK VINA RESULT:     -11.9      2.680      4.344
REMARK  Name = 25101874
REMARK  5 active torsions:
REMARK  status: ('A' for Active; 'I' for Inactive)
REMARK    1  A    between atoms: N_1  and  C_22
REMARK    2  A    between atoms: C_2  and  N_8
REMARK    3  A    between atoms: N_8  and  C_11
REMARK    4  A    between atoms: C_11  and  C_14
REMARK    5  A    between atoms: C_22  and  C_28
REMARK                            x       y       z     vdW  Elec       q    Type
REMARK                         _______ _______ _______ _____ _____    ______ ____
ROOT
ATOM      1  N   UNL     1      34.580 -15.201 -21.801  0.00  0.00    +0.388 N 
ATOM      2  C   UNL     1      35.661 -17.918 -21.901  0.00  0.00    -0.066 C 
ATOM      3  C   UNL     1      35.170 -15.812 -20.602  0.00  0.00    -0.079 C 
ATOM      4  C   UNL     1      35.223 -15.701 -23.025  0.00  0.00    -0.079 C 
ATOM      5  C   UNL     1      35.030 -17.336 -20.633  0.00  0.00    -0.044 C 
ATOM      6  C   UNL     1      35.085 -17.222 -23.137  0.00  0.00    -0.044 C 
ATOM      7  H   UNL     1      33.596 -15.462 -21.835  0.00  0.00    -0.080 HD
ENDROOT
BRANCH   2   8
ATOM      8  N   UNL     1      35.435 -19.360 -21.961  0.00  0.00    +0.389 N 
ATOM      9  H   UNL     1      36.238 -19.842 -21.556  0.00  0.00    -0.084 HD
ATOM     10  H   UNL     1      35.313 -19.631 -22.938  0.00  0.00    -0.084 HD
BRANCH   8  11
ATOM     11  C   UNL     1      34.236 -19.727 -21.223  0.00  0.00    -0.034 C 
BRANCH  11  14
ATOM     12  O   UNL     1      35.624 -22.723 -16.708  0.00  0.00    -0.474 OA
ATOM     13  N   UNL     1      35.862 -20.643 -19.665  0.00  0.00    -0.247 NA
ATOM     14  C   UNL     1      34.557 -20.549 -20.002  0.00  0.00    +0.037 C 
ATOM     15  C   UNL     1      33.526 -21.155 -19.302  0.00  0.00    +0.011 C 
ATOM     16  C   UNL     1      33.849 -21.916 -18.177  0.00  0.00    +0.015 C 
ATOM     17  C   UNL     1      32.769 -22.594 -17.385  0.00  0.00    +0.033 C 
ATOM     18  C   UNL     1      35.187 -22.012 -17.789  0.00  0.00    +0.154 C 
ATOM     19  C   UNL     1      33.370 -23.659 -16.478  0.00  0.00    +0.052 C 
ATOM     20  C   UNL     1      36.146 -21.376 -18.565  0.00  0.00    +0.135 C 
ATOM     21  C   UNL     1      34.597 -23.091 -15.780  0.00  0.00    +0.206 C 
ENDBRANCH  11  14
ENDBRANCH   8  11
ENDBRANCH   2   8
BRANCH   1  22
ATOM     22  C   UNL     1      34.676 -13.743 -21.732  0.00  0.00    -0.055 C 
BRANCH  22  28
ATOM     23  O   UNL     1      31.591 -13.472 -20.345  0.00  0.00    -0.273 OA
ATOM     24  O   UNL     1      34.918  -9.517 -24.947  0.00  0.00    -0.270 OA
ATOM     25  N   UNL     1      32.777 -12.150 -21.860  0.00  0.00    -0.261 N 
ATOM     26  N   UNL     1      33.827 -10.821 -23.368  0.00  0.00    -0.255 N 
ATOM     27  N   UNL     1      31.428  -9.944 -20.773  0.00  0.00    -0.262 NA
ATOM     28  C   UNL     1      33.630 -13.083 -22.622  0.00  0.00    +0.076 C 
ATOM     29  C   UNL     1      34.280 -12.178 -23.704  0.00  0.00    +0.113 C 
ATOM     30  C   UNL     1      32.956 -10.887 -22.324  0.00  0.00    +0.196 C 
ATOM     31  C   UNL     1      32.321  -9.838 -21.808  0.00  0.00    +0.092 C 
ATOM     32  C   UNL     1      31.887 -12.401 -20.848  0.00  0.00    +0.252 C 
ATOM     33  C   UNL     1      34.150  -9.634 -23.997  0.00  0.00    +0.251 C 
ATOM     34  C   UNL     1      32.599  -8.545 -22.392  0.00  0.00    +0.022 C 
ATOM     35  C   UNL     1      31.215 -11.145 -20.317  0.00  0.00    +0.210 C 
ATOM     36  C   UNL     1      33.459  -8.423 -23.421  0.00  0.00    +0.059 C 
ENDBRANCH  22  28
ENDBRANCH   1  22
TORSDOF 5
ENDMDL
MODEL 3
REMARK VINA RESULT:     -11.7      2.131     10.940
REMARK  Name = 25101874
REMARK  5 active torsions:
REMARK  status: ('A' for Active; 'I' for Inactive)
REMARK    1  A    between atoms: N_1  and  C_22
REMARK    2  A    between atoms: C_2  and  N_8
REMARK    3  A    between atoms: N_8  and  C_11
REMARK    4  A    between atoms: C_11  and  C_14
REMARK    5  A    between atoms: C_22  and  C_28
REMARK                            x       y       z     vdW  Elec       q    Type
REMARK                         _______ _______ _______ _____ _____    ______ ____
ROOT
ATOM      1  N   UNL     1      34.151 -22.620 -18.530  0.00  0.00    +0.388 N 
ATOM      2  C   UNL     1      34.496 -20.098 -19.973  0.00  0.00    -0.066 C 
ATOM      3  C   UNL     1      35.453 -21.938 -18.536  0.00  0.00    -0.079 C 
ATOM      4  C   UNL     1      33.045 -21.657 -18.619  0.00  0.00    -0.079 C 
ATOM      5  C   UNL     1      35.635 -21.108 -19.810  0.00  0.00    -0.044 C 
ATOM      6  C   UNL     1      33.146 -20.817 -19.895  0.00  0.00    -0.044 C 
ATOM      7  H   UNL     1      34.109 -23.223 -19.350  0.00  0.00    -0.080 HD
ENDROOT
BRANCH   2   8
ATOM      8  N   UNL     1      34.633 -19.382 -21.239  0.00  0.00    +0.389 N 
ATOM      9  H   UNL     1      33.765 -18.886 -21.439  0.00  0.00    -0.084 HD
ATOM     10  H   UNL     1      34.833 -20.058 -21.977  0.00  0.00    -0.084 HD
BRANCH   8  11
ATOM     11  C   UNL     1      35.727 -18.424 -21.176  0.00  0.00    -0.034 C 
BRANCH  11  14
ATOM     12  O   UNL     1      34.010 -13.158 -21.952  0.00  0.00    -0.474 OA
ATOM     13  N   UNL     1      35.129 -16.213 -20.360  0.00  0.00    -0.247 NA
ATOM     14  C   UNL     1      35.257 -17.018 -21.437  0.00  0.00    +0.037 C 
ATOM     15  C   UNL     1      34.985 -16.625 -22.738  0.00  0.00    +0.011 C 
ATOM     16  C   UNL     1      34.545 -15.318 -22.956  0.00  0.00    +0.015 C 
ATOM     17  C   UNL     1      34.235 -14.844 -24.347  0.00  0.00    +0.033 C 
ATOM     18  C   UNL     1      34.426 -14.456 -21.864  0.00  0.00    +0.154 C 
ATOM     19  C   UNL     1      33.415 -13.562 -24.296  0.00  0.00    +0.052 C 
ATOM     20  C   UNL     1      34.714 -14.950 -20.599  0.00  0.00    +0.135 C 
ATOM     21  C   UNL     1      34.029 -12.613 -23.277  0.00  0.00    +0.206 C 
ENDBRANCH  11  14
ENDBRANCH   8  11
ENDBRANCH   2   8
BRANCH   1  22
ATOM     22  C   UNL     1      34.014 -23.448 -17.332  0.00  0.00    -0.055 C 
BRANCH  22  28
ATOM     23  O   UNL     1      31.326 -22.881 -15.339  0.00  0.00    -0.273 OA
ATOM     24  O   UNL     1      38.049 -23.629 -13.877  0.00  0.00    -0.270 OA
ATOM     25  N   UNL     1      33.599 -23.186 -14.898  0.00  0.00    -0.261 N 
ATOM     26  N   UNL     1      35.791 -23.427 -14.369  0.00  0.00    -0.255 N 
ATOM     27  N   UNL     1      32.826 -24.347 -12.465  0.00  0.00    -0.262 NA
ATOM     28  C   UNL     1      34.310 -22.642 -16.073  0.00  0.00    +0.076 C 
ATOM     29  C   UNL     1      35.806 -22.735 -15.666  0.00  0.00    +0.113 C 
ATOM     30  C   UNL     1      34.500 -23.628 -13.986  0.00  0.00    +0.196 C 
ATOM     31  C   UNL     1      34.137 -24.183 -12.832  0.00  0.00    +0.092 C 
ATOM     32  C   UNL     1      32.254 -23.260 -14.643  0.00  0.00    +0.252 C 
ATOM     33  C   UNL     1      36.868 -23.796 -13.587  0.00  0.00    +0.251 C 
ATOM     34  C   UNL     1      35.195 -24.615 -11.945  0.00  0.00    +0.022 C 
ATOM     35  C   UNL     1      31.934 -23.913 -13.308  0.00  0.00    +0.210 C 
ATOM     36  C   UNL     1      36.488 -24.446 -12.280  0.00  0.00    +0.059 C 
ENDBRANCH  22  28
ENDBRANCH   1  22
TORSDOF 5
ENDMDL
MODEL 4
REMARK VINA RESULT:     -11.7      1.756     10.630
REMARK  Name = 25101874
REMARK  5 active torsions:
REMARK  status: ('A' for Active; 'I' for Inactive)
REMARK    1  A    between atoms: N_1  and  C_22
REMARK    2  A    between atoms: C_2  and  N_8
REMARK    3  A    between atoms: N_8  and  C_11
REMARK    4  A    between atoms: C_11  and  C_14
REMARK    5  A    between atoms: C_22  and  C_28
REMARK                            x       y       z     vdW  Elec       q    Type
REMARK                         _______ _______ _______ _____ _____    ______ ____
ROOT
ATOM      1  N   UNL     1      34.894 -21.743 -18.570  0.00  0.00    +0.388 N 
ATOM      2  C   UNL     1      34.661 -19.714 -20.666  0.00  0.00    -0.066 C 
ATOM      3  C   UNL     1      36.050 -20.913 -18.934  0.00  0.00    -0.079 C 
ATOM      4  C   UNL     1      33.633 -21.013 -18.762  0.00  0.00    -0.079 C 
ATOM      5  C   UNL     1      35.969 -20.462 -20.395  0.00  0.00    -0.044 C 
ATOM      6  C   UNL     1      33.470 -20.566 -20.217  0.00  0.00    -0.044 C 
ATOM      7  H   UNL     1      34.884 -22.554 -19.187  0.00  0.00    -0.080 HD
ENDROOT
BRANCH   2   8
ATOM      8  N   UNL     1      34.557 -19.376 -22.083  0.00  0.00    +0.389 N 
ATOM      9  H   UNL     1      33.663 -18.915 -22.252  0.00  0.00    -0.084 HD
ATOM     10  H   UNL     1      34.622 -20.235 -22.630  0.00  0.00    -0.084 HD
BRANCH   8  11
ATOM     11  C   UNL     1      35.636 -18.486 -22.484  0.00  0.00    -0.034 C 
BRANCH  11  14
ATOM     12  O   UNL     1      33.915 -13.187 -22.979  0.00  0.00    -0.474 OA
ATOM     13  N   UNL     1      35.208 -16.269 -21.581  0.00  0.00    -0.247 NA
ATOM     14  C   UNL     1      35.157 -17.070 -22.668  0.00  0.00    +0.037 C 
ATOM     15  C   UNL     1      34.697 -16.666 -23.912  0.00  0.00    +0.011 C 
ATOM     16  C   UNL     1      34.252 -15.351 -24.057  0.00  0.00    +0.015 C 
ATOM     17  C   UNL     1      33.743 -14.865 -25.383  0.00  0.00    +0.033 C 
ATOM     18  C   UNL     1      34.316 -14.492 -22.957  0.00  0.00    +0.154 C 
ATOM     19  C   UNL     1      32.964 -13.569 -25.205  0.00  0.00    +0.052 C 
ATOM     20  C   UNL     1      34.784 -14.997 -21.753  0.00  0.00    +0.135 C 
ATOM     21  C   UNL     1      33.742 -12.636 -24.290  0.00  0.00    +0.206 C 
ENDBRANCH  11  14
ENDBRANCH   8  11
ENDBRANCH   2   8
BRANCH   1  22
ATOM     22  C   UNL     1      35.012 -22.206 -17.188  0.00  0.00    -0.055 C 
BRANCH  22  28
ATOM     23  O   UNL     1      36.144 -24.468 -14.925  0.00  0.00    -0.273 OA
ATOM     24  O   UNL     1      29.739 -22.411 -16.551  0.00  0.00    -0.270 OA
ATOM     25  N   UNL     1      34.009 -23.704 -15.482  0.00  0.00    -0.261 N 
ATOM     26  N   UNL     1      31.892 -23.061 -15.978  0.00  0.00    -0.255 N 
ATOM     27  N   UNL     1      33.306 -24.145 -12.802  0.00  0.00    -0.262 NA
ATOM     28  C   UNL     1      34.066 -23.371 -16.919  0.00  0.00    +0.076 C 
ATOM     29  C   UNL     1      32.596 -23.012 -17.267  0.00  0.00    +0.113 C 
ATOM     30  C   UNL     1      32.754 -23.487 -15.014  0.00  0.00    +0.196 C 
ATOM     31  C   UNL     1      32.418 -23.691 -13.743  0.00  0.00    +0.092 C 
ATOM     32  C   UNL     1      34.987 -24.191 -14.653  0.00  0.00    +0.252 C 
ATOM     33  C   UNL     1      30.562 -22.786 -15.721  0.00  0.00    +0.251 C 
ATOM     34  C   UNL     1      31.048 -23.420 -13.370  0.00  0.00    +0.022 C 
ATOM     35  C   UNL     1      34.515 -24.387 -13.222  0.00  0.00    +0.210 C 
ATOM     36  C   UNL     1      30.156 -22.989 -14.282  0.00  0.00    +0.059 C 
ENDBRANCH  22  28
ENDBRANCH   1  22
TORSDOF 5
ENDMDL
MODEL 5
REMARK VINA RESULT:     -11.7      2.057     11.060
REMARK  Name = 25101874
REMARK  5 active torsions:
REMARK  status: ('A' for Active; 'I' for Inactive)
REMARK    1  A    between atoms: N_1  and  C_22
REMARK    2  A    between atoms: C_2  and  N_8
REMARK    3  A    between atoms: N_8  and  C_11
REMARK    4  A    between atoms: C_11  and  C_14
REMARK    5  A    between atoms: C_22  and  C_28
REMARK                            x       y       z     vdW  Elec       q    Type
REMARK                         _______ _______ _______ _____ _____    ______ ____
ROOT
ATOM      1  N   UNL     1      34.200 -22.570 -18.559  0.00  0.00    +0.388 N 
ATOM      2  C   UNL     1      34.514 -20.060 -20.028  0.00  0.00    -0.066 C 
ATOM      3  C   UNL     1      35.499 -21.885 -18.593  0.00  0.00    -0.079 C 
ATOM      4  C   UNL     1      33.090 -21.610 -18.637  0.00  0.00    -0.079 C 
ATOM      5  C   UNL     1      35.658 -21.065 -19.875  0.00  0.00    -0.044 C 
ATOM      6  C   UNL     1      33.168 -20.781 -19.922  0.00  0.00    -0.044 C 
ATOM      7  H   UNL     1      34.146 -23.180 -19.374  0.00  0.00    -0.080 HD
ENDROOT
BRANCH   2   8
ATOM      8  N   UNL     1      34.629 -19.353 -21.302  0.00  0.00    +0.389 N 
ATOM      9  H   UNL     1      33.700 -19.063 -21.609  0.00  0.00    -0.084 HD
ATOM     10  H   UNL     1      35.049 -19.982 -21.987  0.00  0.00    -0.084 HD
BRANCH   8  11
ATOM     11  C   UNL     1      35.475 -18.177 -21.167  0.00  0.00    -0.034 C 
BRANCH  11  14
ATOM     12  O   UNL     1      33.897 -14.208 -24.779  0.00  0.00    -0.474 OA
ATOM     13  N   UNL     1      34.887 -17.408 -23.397  0.00  0.00    -0.247 NA
ATOM     14  C   UNL     1      35.054 -17.072 -22.099  0.00  0.00    +0.037 C 
ATOM     15  C   UNL     1      34.864 -15.795 -21.595  0.00  0.00    +0.011 C 
ATOM     16  C   UNL     1      34.480 -14.786 -22.480  0.00  0.00    +0.015 C 
ATOM     17  C   UNL     1      34.263 -13.385 -21.983  0.00  0.00    +0.033 C 
ATOM     18  C   UNL     1      34.276 -15.108 -23.823  0.00  0.00    +0.154 C 
ATOM     19  C   UNL     1      34.247 -12.409 -23.152  0.00  0.00    +0.052 C 
ATOM     20  C   UNL     1      34.503 -16.415 -24.230  0.00  0.00    +0.135 C 
ATOM     21  C   UNL     1      33.380 -12.974 -24.267  0.00  0.00    +0.206 C 
ENDBRANCH  11  14
ENDBRANCH   8  11
ENDBRANCH   2   8
BRANCH   1  22
ATOM     22  C   UNL     1      34.085 -23.389 -17.352  0.00  0.00    -0.055 C 
BRANCH  22  28
ATOM     23  O   UNL     1      31.410 -22.825 -15.341  0.00  0.00    -0.273 OA
ATOM     24  O   UNL     1      38.152 -23.503 -13.932  0.00  0.00    -0.270 OA
ATOM     25  N   UNL     1      33.689 -23.107 -14.918  0.00  0.00    -0.261 N 
ATOM     26  N   UNL     1      35.887 -23.324 -14.406  0.00  0.00    -0.255 N 
ATOM     27  N   UNL     1      32.948 -24.251 -12.467  0.00  0.00    -0.262 NA
ATOM     28  C   UNL     1      34.385 -22.568 -16.104  0.00  0.00    +0.076 C 
ATOM     29  C   UNL     1      35.885 -22.645 -15.710  0.00  0.00    +0.113 C 
ATOM     30  C   UNL     1      34.601 -23.533 -14.009  0.00  0.00    +0.196 C 
ATOM     31  C   UNL     1      34.254 -24.079 -12.848  0.00  0.00    +0.092 C 
ATOM     32  C   UNL     1      32.347 -23.189 -14.650  0.00  0.00    +0.252 C 
ATOM     33  C   UNL     1      36.974 -23.677 -13.630  0.00  0.00    +0.251 C 
ATOM     34  C   UNL     1      35.323 -24.494 -11.966  0.00  0.00    +0.022 C 
ATOM     35  C   UNL     1      32.045 -23.832 -13.306  0.00  0.00    +0.210 C 
ATOM     36  C   UNL     1      36.611 -24.318 -12.314  0.00  0.00    +0.059 C 
ENDBRANCH  22  28
ENDBRANCH   1  22
TORSDOF 5
ENDMDL
MODEL 6
REMARK VINA RESULT:     -11.7      3.514      5.949
REMARK  Name = 25101874
REMARK  5 active torsions:
REMARK  status: ('A' for Active; 'I' for Inactive)
REMARK    1  A    between atoms: N_1  and  C_22
REMARK    2  A    between atoms: C_2  and  N_8
REMARK    3  A    between atoms: N_8  and  C_11
REMARK    4  A    between atoms: C_11  and  C_14
REMARK    5  A    between atoms: C_22  and  C_28
REMARK                            x       y       z     vdW  Elec       q    Type
REMARK                         _______ _______ _______ _____ _____    ______ ____
ROOT
ATOM      1  N   UNL     1      34.027 -13.657 -22.881  0.00  0.00    +0.388 N 
ATOM      2  C   UNL     1      34.891 -16.442 -23.121  0.00  0.00    -0.066 C 
ATOM      3  C   UNL     1      34.966 -14.232 -21.908  0.00  0.00    -0.079 C 
ATOM      4  C   UNL     1      34.188 -14.274 -24.205  0.00  0.00    -0.079 C 
ATOM      5  C   UNL     1      34.760 -15.742 -21.766  0.00  0.00    -0.044 C 
ATOM      6  C   UNL     1      33.955 -15.786 -24.140  0.00  0.00    -0.044 C 
ATOM      7  H   UNL     1      33.080 -13.853 -22.556  0.00  0.00    -0.080 HD
ENDROOT
BRANCH   2   8
ATOM      8  N   UNL     1      34.597 -17.867 -22.984  0.00  0.00    +0.389 N 
ATOM      9  H   UNL     1      34.663 -18.312 -23.900  0.00  0.00    -0.084 HD
ATOM     10  H   UNL     1      33.655 -17.971 -22.606  0.00  0.00    -0.084 HD
BRANCH   8  11
ATOM     11  C   UNL     1      35.537 -18.504 -22.074  0.00  0.00    -0.034 C 
BRANCH  11  14
ATOM     12  O   UNL     1      32.785 -21.872 -18.556  0.00  0.00    -0.474 OA
ATOM     13  N   UNL     1      33.494 -19.447 -21.153  0.00  0.00    -0.247 NA
ATOM     14  C   UNL     1      34.844 -19.423 -21.104  0.00  0.00    +0.037 C 
ATOM     15  C   UNL     1      35.604 -20.182 -20.227  0.00  0.00    +0.011 C 
ATOM     16  C   UNL     1      34.939 -21.023 -19.333  0.00  0.00    +0.015 C 
ATOM     17  C   UNL     1      35.716 -21.864 -18.362  0.00  0.00    +0.033 C 
ATOM     18  C   UNL     1      33.544 -21.086 -19.377  0.00  0.00    +0.154 C 
ATOM     19  C   UNL     1      34.802 -22.373 -17.256  0.00  0.00    +0.052 C 
ATOM     20  C   UNL     1      32.875 -20.278 -20.285  0.00  0.00    +0.135 C 
ATOM     21  C   UNL     1      33.513 -22.898 -17.870  0.00  0.00    +0.206 C 
ENDBRANCH  11  14
ENDBRANCH   8  11
ENDBRANCH   2   8
BRANCH   1  22
ATOM     22  C   UNL     1      34.202 -12.208 -22.966  0.00  0.00    -0.055 C 
BRANCH  22  28
ATOM     23  O   UNL     1      32.052 -13.242 -20.552  0.00  0.00    -0.273 OA
ATOM     24  O   UNL     1      32.907  -7.093 -23.613  0.00  0.00    -0.270 OA
ATOM     25  N   UNL     1      32.414 -11.179 -21.585  0.00  0.00    -0.261 N 
ATOM     26  N   UNL     1      32.658  -9.145 -22.557  0.00  0.00    -0.255 N 
ATOM     27  N   UNL     1      31.649  -9.992 -19.163  0.00  0.00    -0.262 NA
ATOM     28  C   UNL     1      32.857 -11.492 -22.959  0.00  0.00    +0.076 C 
ATOM     29  C   UNL     1      32.940 -10.099 -23.640  0.00  0.00    +0.113 C 
ATOM     30  C   UNL     1      32.343  -9.834 -21.426  0.00  0.00    +0.196 C 
ATOM     31  C   UNL     1      31.985  -9.267 -20.277  0.00  0.00    +0.092 C 
ATOM     32  C   UNL     1      32.073 -12.022 -20.559  0.00  0.00    +0.252 C 
ATOM     33  C   UNL     1      32.644  -7.765 -22.619  0.00  0.00    +0.251 C 
ATOM     34  C   UNL     1      31.949  -7.822 -20.236  0.00  0.00    +0.022 C 
ATOM     35  C   UNL     1      31.684 -11.287 -19.287  0.00  0.00    +0.210 C 
ATOM     36  C   UNL     1      32.259  -7.093 -21.325  0.00  0.00    +0.059 C 
ENDBRANCH  22  28
ENDBRANCH   1  22
TORSDOF 5
ENDMDL
MODEL 7
REMARK VINA RESULT:     -11.6      1.561      2.386
REMARK  Name = 25101874
REMARK  5 active torsions:
REMARK  status: ('A' for Active; 'I' for Inactive)
REMARK    1  A    between atoms: N_1  and  C_22
REMARK    2  A    between atoms: C_2  and  N_8
REMARK    3  A    between atoms: N_8  and  C_11
REMARK    4  A    between atoms: C_11  and  C_14
REMARK    5  A    between atoms: C_22  and  C_28
REMARK                            x       y       z     vdW  Elec       q    Type
REMARK                         _______ _______ _______ _____ _____    ______ ____
ROOT
ATOM      1  N   UNL     1      36.097 -19.097 -21.646  0.00  0.00    +0.388 N 
ATOM      2  C   UNL     1      35.677 -20.604 -19.173  0.00  0.00    -0.066 C 
ATOM      3  C   UNL     1      34.736 -19.394 -21.177  0.00  0.00    -0.079 C 
ATOM      4  C   UNL     1      37.029 -18.951 -20.519  0.00  0.00    -0.079 C 
ATOM      5  C   UNL     1      34.705 -20.683 -20.352  0.00  0.00    -0.044 C 
ATOM      6  C   UNL     1      37.075 -20.226 -19.673  0.00  0.00    -0.044 C 
ATOM      7  H   UNL     1      36.410 -19.883 -22.214  0.00  0.00    -0.080 HD
ENDROOT
BRANCH   2   8
ATOM      8  N   UNL     1      35.706 -21.875 -18.454  0.00  0.00    +0.389 N 
ATOM      9  H   UNL     1      35.968 -22.620 -19.101  0.00  0.00    -0.084 HD
ATOM     10  H   UNL     1      34.778 -22.052 -18.067  0.00  0.00    -0.084 HD
BRANCH   8  11
ATOM     11  C   UNL     1      36.667 -21.831 -17.363  0.00  0.00    -0.034 C 
BRANCH  11  14
ATOM     12  O   UNL     1      34.468 -24.211 -12.803  0.00  0.00    -0.474 OA
ATOM     13  N   UNL     1      34.871 -22.969 -16.182  0.00  0.00    -0.247 NA
ATOM     14  C   UNL     1      36.119 -22.457 -16.107  0.00  0.00    +0.037 C 
ATOM     15  C   UNL     1      36.900 -22.476 -14.962  0.00  0.00    +0.011 C 
ATOM     16  C   UNL     1      36.369 -23.055 -13.809  0.00  0.00    +0.015 C 
ATOM     17  C   UNL     1      37.175 -23.100 -12.543  0.00  0.00    +0.033 C 
ATOM     18  C   UNL     1      35.091 -23.615 -13.863  0.00  0.00    +0.154 C 
ATOM     19  C   UNL     1      36.272 -23.401 -11.354  0.00  0.00    +0.052 C 
ATOM     20  C   UNL     1      34.385 -23.535 -15.055  0.00  0.00    +0.135 C 
ATOM     21  C   UNL     1      35.334 -24.544 -11.711  0.00  0.00    +0.206 C 
ENDBRANCH  11  14
ENDBRANCH   8  11
ENDBRANCH   2   8
BRANCH   1  22
ATOM     22  C   UNL     1      36.100 -17.891 -22.473  0.00  0.00    -0.055 C 
BRANCH  22  28
ATOM     23  O   UNL     1      35.057 -16.242 -19.696  0.00  0.00    -0.273 OA
ATOM     24  O   UNL     1      33.628 -15.302 -26.403  0.00  0.00    -0.270 OA
ATOM     25  N   UNL     1      34.646 -15.942 -21.975  0.00  0.00    -0.261 N 
ATOM     26  N   UNL     1      34.149 -15.593 -24.160  0.00  0.00    -0.255 N 
ATOM     27  N   UNL     1      34.425 -13.200 -21.430  0.00  0.00    -0.262 NA
ATOM     28  C   UNL     1      34.703 -17.291 -22.573  0.00  0.00    +0.076 C 
ATOM     29  C   UNL     1      34.281 -17.053 -24.048  0.00  0.00    +0.113 C 
ATOM     30  C   UNL     1      34.347 -15.032 -22.935  0.00  0.00    +0.196 C 
ATOM     31  C   UNL     1      34.245 -13.730 -22.681  0.00  0.00    +0.092 C 
ATOM     32  C   UNL     1      34.818 -15.550 -20.673  0.00  0.00    +0.252 C 
ATOM     33  C   UNL     1      33.828 -14.850 -25.279  0.00  0.00    +0.251 C 
ATOM     34  C   UNL     1      33.922 -12.863 -23.793  0.00  0.00    +0.022 C 
ATOM     35  C   UNL     1      34.691 -14.048 -20.479  0.00  0.00    +0.210 C 
ATOM     36  C   UNL     1      33.725 -13.366 -25.026  0.00  0.00    +0.059 C 
ENDBRANCH  22  28
ENDBRANCH   1  22
TORSDOF 5
ENDMDL
MODEL 8
REMARK VINA RESULT:     -11.5      2.187     10.833
REMARK  Name = 25101874
REMARK  5 active torsions:
REMARK  status: ('A' for Active; 'I' for Inactive)
REMARK    1  A    between atoms: N_1  and  C_22
REMARK    2  A    between atoms: C_2  and  N_8
REMARK    3  A    between atoms: N_8  and  C_11
REMARK    4  A    between atoms: C_11  and  C_14
REMARK    5  A    between atoms: C_22  and  C_28
REMARK                            x       y       z     vdW  Elec       q    Type
REMARK                         _______ _______ _______ _____ _____    ______ ____
ROOT
ATOM      1  N   UNL     1      35.675 -21.115 -20.097  0.00  0.00    +0.388 N 
ATOM      2  C   UNL     1      35.624 -18.319 -20.960  0.00  0.00    -0.066 C 
ATOM      3  C   UNL     1      36.688 -20.167 -19.611  0.00  0.00    -0.079 C 
ATOM      4  C   UNL     1      34.395 -20.440 -20.357  0.00  0.00    -0.079 C 
ATOM      5  C   UNL     1      36.929 -19.047 -20.627  0.00  0.00    -0.044 C 
ATOM      6  C   UNL     1      34.559 -19.329 -21.398  0.00  0.00    -0.044 C 
ATOM      7  H   UNL     1      36.008 -21.505 -20.977  0.00  0.00    -0.080 HD
ENDROOT
BRANCH   2   8
ATOM      8  N   UNL     1      35.854 -17.319 -22.000  0.00  0.00    +0.389 N 
ATOM      9  H   UNL     1      36.816 -17.396 -22.331  0.00  0.00    -0.084 HD
ATOM     10  H   UNL     1      35.688 -16.393 -21.605  0.00  0.00    -0.084 HD
BRANCH   8  11
ATOM     11  C   UNL     1      34.946 -17.518 -23.119  0.00  0.00    -0.034 C 
BRANCH  11  14
ATOM     12  O   UNL     1      33.375 -12.772 -25.627  0.00  0.00    -0.474 OA
ATOM     13  N   UNL     1      34.156 -16.261 -25.045  0.00  0.00    -0.247 NA
ATOM     14  C   UNL     1      34.537 -16.213 -23.749  0.00  0.00    +0.037 C 
ATOM     15  C   UNL     1      34.570 -15.054 -22.990  0.00  0.00    +0.011 C 
ATOM     16  C   UNL     1      34.192 -13.855 -23.598  0.00  0.00    +0.015 C 
ATOM     17  C   UNL     1      34.213 -12.572 -22.819  0.00  0.00    +0.033 C 
ATOM     18  C   UNL     1      33.770 -13.877 -24.929  0.00  0.00    +0.154 C 
ATOM     19  C   UNL     1      34.154 -11.380 -23.766  0.00  0.00    +0.052 C 
ATOM     20  C   UNL     1      33.783 -15.089 -25.605  0.00  0.00    +0.135 C 
ATOM     21  C   UNL     1      33.083 -11.626 -24.818  0.00  0.00    +0.206 C 
ENDBRANCH  11  14
ENDBRANCH   8  11
ENDBRANCH   2   8
BRANCH   1  22
ATOM     22  C   UNL     1      35.493 -22.205 -19.138  0.00  0.00    -0.055 C 
BRANCH  22  28
ATOM     23  O   UNL     1      32.274 -21.876 -18.116  0.00  0.00    -0.273 OA
ATOM     24  O   UNL     1      38.086 -23.247 -14.617  0.00  0.00    -0.270 OA
ATOM     25  N   UNL     1      34.258 -22.381 -16.992  0.00  0.00    -0.261 N 
ATOM     26  N   UNL     1      36.135 -22.834 -15.803  0.00  0.00    -0.255 N 
ATOM     27  N   UNL     1      32.708 -23.934 -15.246  0.00  0.00    -0.262 NA
ATOM     28  C   UNL     1      35.323 -21.666 -17.723  0.00  0.00    +0.076 C 
ATOM     29  C   UNL     1      36.587 -21.914 -16.855  0.00  0.00    +0.113 C 
ATOM     30  C   UNL     1      34.794 -23.034 -15.931  0.00  0.00    +0.196 C 
ATOM     31  C   UNL     1      34.063 -23.775 -15.103  0.00  0.00    +0.092 C 
ATOM     32  C   UNL     1      32.909 -22.428 -17.232  0.00  0.00    +0.252 C 
ATOM     33  C   UNL     1      36.880 -23.401 -14.787  0.00  0.00    +0.251 C 
ATOM     34  C   UNL     1      34.754 -24.422 -14.009  0.00  0.00    +0.022 C 
ATOM     35  C   UNL     1      32.157 -23.302 -16.241  0.00  0.00    +0.210 C 
ATOM     36  C   UNL     1      36.081 -24.264 -13.842  0.00  0.00    +0.059 C 
ENDBRANCH  22  28
ENDBRANCH   1  22
TORSDOF 5
ENDMDL
MODEL 9
REMARK VINA RESULT:     -11.3      1.959      3.698
REMARK  Name = 25101874
REMARK  5 active torsions:
REMARK  status: ('A' for Active; 'I' for Inactive)
REMARK    1  A    between atoms: N_1  and  C_22
REMARK    2  A    between atoms: C_2  and  N_8
REMARK    3  A    between atoms: N_8  and  C_11
REMARK    4  A    between atoms: C_11  and  C_14
REMARK    5  A    between atoms: C_22  and  C_28
REMARK                            x       y       z     vdW  Elec       q    Type
REMARK                         _______ _______ _______ _____ _____    ______ ____
ROOT
ATOM      1  N   UNL     1      34.268 -19.640 -20.479  0.00  0.00    +0.388 N 
ATOM      2  C   UNL     1      34.807 -21.928 -18.737  0.00  0.00    -0.066 C 
ATOM      3  C   UNL     1      35.557 -20.342 -20.549  0.00  0.00    -0.079 C 
ATOM      4  C   UNL     1      33.183 -20.555 -20.096  0.00  0.00    -0.079 C 
ATOM      5  C   UNL     1      35.913 -20.979 -19.204  0.00  0.00    -0.044 C 
ATOM      6  C   UNL     1      33.460 -21.200 -18.736  0.00  0.00    -0.044 C 
ATOM      7  H   UNL     1      34.341 -18.922 -19.760  0.00  0.00    -0.080 HD
ENDROOT
BRANCH   2   8
ATOM      8  N   UNL     1      35.118 -22.453 -17.409  0.00  0.00    +0.389 N 
ATOM      9  H   UNL     1      35.489 -21.699 -16.830  0.00  0.00    -0.084 HD
ATOM     10  H   UNL     1      35.807 -23.198 -17.506  0.00  0.00    -0.084 HD
BRANCH   8  11
ATOM     11  C   UNL     1      33.927 -22.999 -16.776  0.00  0.00    -0.034 C 
BRANCH  11  14
ATOM     12  O   UNL     1      34.613 -24.297 -11.379  0.00  0.00    -0.474 OA
ATOM     13  N   UNL     1      33.110 -23.828 -14.642  0.00  0.00    -0.247 NA
ATOM     14  C   UNL     1      34.162 -23.328 -15.326  0.00  0.00    +0.037 C 
ATOM     15  C   UNL     1      35.414 -23.106 -14.774  0.00  0.00    +0.011 C 
ATOM     16  C   UNL     1      35.607 -23.413 -13.426  0.00  0.00    +0.015 C 
ATOM     17  C   UNL     1      36.944 -23.190 -12.782  0.00  0.00    +0.033 C 
ATOM     18  C   UNL     1      34.544 -23.955 -12.700  0.00  0.00    +0.154 C 
ATOM     19  C   UNL     1      36.808 -23.213 -11.265  0.00  0.00    +0.052 C 
ATOM     20  C   UNL     1      33.326 -24.128 -13.342  0.00  0.00    +0.135 C 
ATOM     21  C   UNL     1      35.943 -24.395 -10.855  0.00  0.00    +0.206 C 
ENDBRANCH  11  14
ENDBRANCH   8  11
ENDBRANCH   2   8
BRANCH   1  22
ATOM     22  C   UNL     1      33.966 -18.995 -21.757  0.00  0.00    -0.055 C 
BRANCH  22  28
ATOM     23  O   UNL     1      34.385 -18.481 -25.086  0.00  0.00    -0.273 OA
ATOM     24  O   UNL     1      35.189 -14.270 -19.652  0.00  0.00    -0.270 OA
ATOM     25  N   UNL     1      34.596 -17.092 -23.220  0.00  0.00    -0.261 N 
ATOM     26  N   UNL     1      34.871 -15.674 -21.472  0.00  0.00    -0.255 N 
ATOM     27  N   UNL     1      33.786 -14.979 -24.878  0.00  0.00    -0.262 NA
ATOM     28  C   UNL     1      35.034 -17.969 -22.117  0.00  0.00    +0.076 C 
ATOM     29  C   UNL     1      35.299 -16.979 -20.950  0.00  0.00    +0.113 C 
ATOM     30  C   UNL     1      34.508 -15.812 -22.777  0.00  0.00    +0.196 C 
ATOM     31  C   UNL     1      34.120 -14.809 -23.560  0.00  0.00    +0.092 C 
ATOM     32  C   UNL     1      34.322 -17.397 -24.529  0.00  0.00    +0.252 C 
ATOM     33  C   UNL     1      34.862 -14.455 -20.821  0.00  0.00    +0.251 C 
ATOM     34  C   UNL     1      34.066 -13.491 -22.966  0.00  0.00    +0.022 C 
ATOM     35  C   UNL     1      33.881 -16.191 -25.343  0.00  0.00    +0.210 C 
ATOM     36  C   UNL     1      34.407 -13.300 -21.678  0.00  0.00    +0.059 C 
ENDBRANCH  22  28
ENDBRANCH   1  22
TORSDOF 5
ENDMDL
