MODEL 1
REMARK VINA RESULT:     -11.8      0.000      0.000
REMARK  Name = 5288708
REMARK  4 active torsions:
REMARK  status: ('A' for Active; 'I' for Inactive)
REMARK    1  A    between atoms: N_1  and  C_9
REMARK    2  A    between atoms: N_1  and  C_16
REMARK    3  A    between atoms: C_15  and  S_21
REMARK    4  A    between atoms: S_21  and  N_24
REMARK                            x       y       z     vdW  Elec       q    Type
REMARK                         _______ _______ _______ _____ _____    ______ ____
ROOT
ATOM      1  N   UNL     1      36.263 -18.421 -21.299  0.00  0.00    -0.311 N 
ATOM      2  H   UNL     1      37.184 -18.193 -21.037  0.00  0.00    +0.152 HD
ENDROOT
BRANCH   1   9
ATOM      3  O   UNL     1      35.228 -16.112 -19.883  0.00  0.00    -0.270 OA
ATOM      4  N   UNL     1      34.238 -14.604 -21.409  0.00  0.00    -0.280 N 
ATOM      5  C   UNL     1      34.580 -15.738 -23.380  0.00  0.00    +0.019 C 
ATOM      6  C   UNL     1      35.136 -16.521 -22.281  0.00  0.00    +0.069 C 
ATOM      7  C   UNL     1      34.049 -14.585 -22.795  0.00  0.00    +0.051 C 
ATOM      8  C   UNL     1      34.902 -15.767 -21.004  0.00  0.00    +0.251 C 
ATOM      9  C   UNL     1      35.751 -17.704 -22.331  0.00  0.00    +0.066 C 
ATOM     10  C   UNL     1      34.506 -15.934 -24.746  0.00  0.00    +0.001 C 
ATOM     11  C   UNL     1      33.432 -13.596 -23.537  0.00  0.00    +0.015 C 
ATOM     12  C   UNL     1      33.886 -14.945 -25.517  0.00  0.00    +0.000 C 
ATOM     13  C   UNL     1      33.353 -13.787 -24.917  0.00  0.00    +0.001 C 
ATOM     14  H   UNL     1      33.942 -13.891 -20.798  0.00  0.00    +0.155 HD
ENDBRANCH   1   9
BRANCH   1  16
ATOM     15  C   UNL     1      34.438 -21.480 -19.073  0.00  0.00    +0.122 C 
ATOM     16  C   UNL     1      35.653 -19.444 -20.555  0.00  0.00    +0.048 C 
ATOM     17  C   UNL     1      35.825 -21.331 -19.049  0.00  0.00    +0.021 C 
ATOM     18  C   UNL     1      33.657 -20.612 -19.837  0.00  0.00    +0.021 C 
ATOM     19  C   UNL     1      36.431 -20.315 -19.788  0.00  0.00    +0.016 C 
ATOM     20  C   UNL     1      34.264 -19.596 -20.577  0.00  0.00    +0.016 C 
BRANCH  15  21
ATOM     21  S   UNL     1      33.679 -22.752 -18.149  0.00  0.00    +0.060 S 
ATOM     22  O   UNL     1      32.348 -22.312 -17.751  0.00  0.00    -0.153 OA
ATOM     23  O   UNL     1      33.827 -23.993 -18.897  0.00  0.00    -0.153 OA
BRANCH  21  24
ATOM     24  N   UNL     1      34.667 -22.834 -16.756  0.00  0.00    -0.178 NA
ATOM     25  C   UNL     1      34.152 -23.462 -15.531  0.00  0.00    +0.110 C 
ATOM     26  H   UNL     1      34.914 -21.875 -16.513  0.00  0.00    +0.149 HD
ENDBRANCH  21  24
ENDBRANCH  15  21
ENDBRANCH   1  16
TORSDOF 4
ENDMDL
MODEL 2
REMARK VINA RESULT:     -11.5      1.423      1.838
REMARK  Name = 5288708
REMARK  4 active torsions:
REMARK  status: ('A' for Active; 'I' for Inactive)
REMARK    1  A    between atoms: N_1  and  C_9
REMARK    2  A    between atoms: N_1  and  C_16
REMARK    3  A    between atoms: C_15  and  S_21
REMARK    4  A    between atoms: S_21  and  N_24
REMARK                            x       y       z     vdW  Elec       q    Type
REMARK                         _______ _______ _______ _____ _____    ______ ____
ROOT
ATOM      1  N   UNL     1      36.182 -18.355 -21.370  0.00  0.00    -0.311 N 
ATOM      2  H   UNL     1      37.031 -18.582 -21.813  0.00  0.00    +0.152 HD
ENDROOT
BRANCH   1   9
ATOM      3  O   UNL     1      34.861 -18.631 -23.937  0.00  0.00    -0.270 OA
ATOM      4  N   UNL     1      33.943 -16.559 -24.602  0.00  0.00    -0.280 N 
ATOM      5  C   UNL     1      34.564 -15.248 -22.817  0.00  0.00    +0.019 C 
ATOM      6  C   UNL     1      35.047 -16.607 -22.596  0.00  0.00    +0.069 C 
ATOM      7  C   UNL     1      33.901 -15.275 -24.047  0.00  0.00    +0.051 C 
ATOM      8  C   UNL     1      34.634 -17.447 -23.771  0.00  0.00    +0.251 C 
ATOM      9  C   UNL     1      35.739 -17.086 -21.562  0.00  0.00    +0.066 C 
ATOM     10  C   UNL     1      34.649 -14.078 -22.086  0.00  0.00    +0.001 C 
ATOM     11  C   UNL     1      33.306 -14.153 -24.591  0.00  0.00    +0.015 C 
ATOM     12  C   UNL     1      34.052 -12.930 -22.618  0.00  0.00    +0.000 C 
ATOM     13  C   UNL     1      33.388 -12.967 -23.859  0.00  0.00    +0.001 C 
ATOM     14  H   UNL     1      33.539 -16.805 -25.465  0.00  0.00    +0.155 HD
ENDBRANCH   1   9
BRANCH   1  16
ATOM     15  C   UNL     1      34.411 -21.437 -19.133  0.00  0.00    +0.122 C 
ATOM     16  C   UNL     1      35.590 -19.385 -20.622  0.00  0.00    +0.048 C 
ATOM     17  C   UNL     1      35.797 -21.283 -19.132  0.00  0.00    +0.021 C 
ATOM     18  C   UNL     1      33.612 -20.567 -19.875  0.00  0.00    +0.021 C 
ATOM     19  C   UNL     1      36.385 -20.259 -19.875  0.00  0.00    +0.016 C 
ATOM     20  C   UNL     1      34.200 -19.544 -20.619  0.00  0.00    +0.016 C 
BRANCH  15  21
ATOM     21  S   UNL     1      33.674 -22.719 -18.204  0.00  0.00    +0.060 S 
ATOM     22  O   UNL     1      32.346 -22.290 -17.783  0.00  0.00    -0.153 OA
ATOM     23  O   UNL     1      33.819 -23.956 -18.960  0.00  0.00    -0.153 OA
BRANCH  21  24
ATOM     24  N   UNL     1      34.683 -22.801 -16.826  0.00  0.00    -0.178 NA
ATOM     25  C   UNL     1      34.123 -23.220 -15.533  0.00  0.00    +0.110 C 
ATOM     26  H   UNL     1      35.074 -21.869 -16.689  0.00  0.00    +0.149 HD
ENDBRANCH  21  24
ENDBRANCH  15  21
ENDBRANCH   1  16
TORSDOF 4
ENDMDL
MODEL 3
REMARK VINA RESULT:     -11.0      3.622      6.193
REMARK  Name = 5288708
REMARK  4 active torsions:
REMARK  status: ('A' for Active; 'I' for Inactive)
REMARK    1  A    between atoms: N_1  and  C_9
REMARK    2  A    between atoms: N_1  and  C_16
REMARK    3  A    between atoms: C_15  and  S_21
REMARK    4  A    between atoms: S_21  and  N_24
REMARK                            x       y       z     vdW  Elec       q    Type
REMARK                         _______ _______ _______ _____ _____    ______ ____
ROOT
ATOM      1  N   UNL     1      35.060 -22.575 -17.253  0.00  0.00    -0.311 N 
ATOM      2  H   UNL     1      34.327 -23.126 -17.611  0.00  0.00    +0.152 HD
ENDROOT
BRANCH   1   9
ATOM      3  O   UNL     1      32.735 -21.842 -18.824  0.00  0.00    -0.270 OA
ATOM      4  N   UNL     1      33.343 -20.277 -20.486  0.00  0.00    -0.280 N 
ATOM      5  C   UNL     1      35.591 -20.073 -20.049  0.00  0.00    +0.019 C 
ATOM      6  C   UNL     1      35.010 -21.021 -19.104  0.00  0.00    +0.069 C 
ATOM      7  C   UNL     1      34.536 -19.652 -20.864  0.00  0.00    +0.051 C 
ATOM      8  C   UNL     1      33.543 -21.142 -19.405  0.00  0.00    +0.251 C 
ATOM      9  C   UNL     1      35.615 -21.696 -18.126  0.00  0.00    +0.066 C 
ATOM     10  C   UNL     1      36.870 -19.584 -20.241  0.00  0.00    +0.001 C 
ATOM     11  C   UNL     1      34.710 -18.741 -21.888  0.00  0.00    +0.015 C 
ATOM     12  C   UNL     1      37.068 -18.660 -21.273  0.00  0.00    +0.000 C 
ATOM     13  C   UNL     1      35.999 -18.243 -22.089  0.00  0.00    +0.001 C 
ATOM     14  H   UNL     1      32.474 -20.128 -20.925  0.00  0.00    +0.155 HD
ENDBRANCH   1   9
BRANCH   1  16
ATOM     15  C   UNL     1      36.062 -23.260 -13.232  0.00  0.00    +0.122 C 
ATOM     16  C   UNL     1      35.394 -22.804 -15.908  0.00  0.00    +0.048 C 
ATOM     17  C   UNL     1      37.026 -22.783 -14.120  0.00  0.00    +0.021 C 
ATOM     18  C   UNL     1      34.763 -23.509 -13.679  0.00  0.00    +0.021 C 
ATOM     19  C   UNL     1      36.693 -22.556 -15.455  0.00  0.00    +0.016 C 
ATOM     20  C   UNL     1      34.431 -23.282 -15.015  0.00  0.00    +0.016 C 
BRANCH  15  21
ATOM     21  S   UNL     1      36.477 -23.546 -11.561  0.00  0.00    +0.060 S 
ATOM     22  O   UNL     1      37.173 -22.374 -11.043  0.00  0.00    -0.153 OA
ATOM     23  O   UNL     1      35.280 -24.024 -10.881  0.00  0.00    -0.153 OA
BRANCH  21  24
ATOM     24  N   UNL     1      37.592 -24.837 -11.674  0.00  0.00    -0.178 NA
ATOM     25  C   UNL     1      37.172 -26.117 -12.261  0.00  0.00    +0.110 C 
ATOM     26  H   UNL     1      37.909 -25.038 -10.726  0.00  0.00    +0.149 HD
ENDBRANCH  21  24
ENDBRANCH  15  21
ENDBRANCH   1  16
TORSDOF 4
ENDMDL
MODEL 4
REMARK VINA RESULT:     -10.8      2.604      9.145
REMARK  Name = 5288708
REMARK  4 active torsions:
REMARK  status: ('A' for Active; 'I' for Inactive)
REMARK    1  A    between atoms: N_1  and  C_9
REMARK    2  A    between atoms: N_1  and  C_16
REMARK    3  A    between atoms: C_15  and  S_21
REMARK    4  A    between atoms: S_21  and  N_24
REMARK                            x       y       z     vdW  Elec       q    Type
REMARK                         _______ _______ _______ _____ _____    ______ ____
ROOT
ATOM      1  N   UNL     1      34.139 -22.872 -18.447  0.00  0.00    -0.311 N 
ATOM      2  H   UNL     1      34.654 -23.689 -18.638  0.00  0.00    +0.152 HD
ENDROOT
BRANCH   1   9
ATOM      3  O   UNL     1      35.654 -23.000 -15.977  0.00  0.00    -0.270 OA
ATOM      4  N   UNL     1      34.187 -23.239 -14.140  0.00  0.00    -0.280 N 
ATOM      5  C   UNL     1      32.165 -23.260 -15.235  0.00  0.00    +0.019 C 
ATOM      6  C   UNL     1      33.234 -23.115 -16.218  0.00  0.00    +0.069 C 
ATOM      7  C   UNL     1      32.799 -23.331 -13.991  0.00  0.00    +0.051 C 
ATOM      8  C   UNL     1      34.545 -23.104 -15.486  0.00  0.00    +0.251 C 
ATOM      9  C   UNL     1      33.135 -23.008 -17.544  0.00  0.00    +0.066 C 
ATOM     10  C   UNL     1      30.788 -23.331 -15.330  0.00  0.00    +0.001 C 
ATOM     11  C   UNL     1      32.097 -23.473 -12.810  0.00  0.00    +0.015 C 
ATOM     12  C   UNL     1      30.057 -23.474 -14.146  0.00  0.00    +0.000 C 
ATOM     13  C   UNL     1      30.706 -23.545 -12.898  0.00  0.00    +0.001 C 
ATOM     14  H   UNL     1      34.829 -23.267 -13.394  0.00  0.00    +0.155 HD
ENDBRANCH   1   9
BRANCH   1  16
ATOM     15  C   UNL     1      35.336 -19.431 -20.537  0.00  0.00    +0.122 C 
ATOM     16  C   UNL     1      34.540 -21.721 -19.145  0.00  0.00    +0.048 C 
ATOM     17  C   UNL     1      33.983 -19.754 -20.441  0.00  0.00    +0.021 C 
ATOM     18  C   UNL     1      36.293 -20.251 -19.937  0.00  0.00    +0.021 C 
ATOM     19  C   UNL     1      33.585 -20.896 -19.746  0.00  0.00    +0.016 C 
ATOM     20  C   UNL     1      35.895 -21.394 -19.244  0.00  0.00    +0.016 C 
BRANCH  15  21
ATOM     21  S   UNL     1      35.834 -18.001 -21.406  0.00  0.00    +0.060 S 
ATOM     22  O   UNL     1      35.423 -16.825 -20.649  0.00  0.00    -0.153 OA
ATOM     23  O   UNL     1      37.237 -18.166 -21.764  0.00  0.00    -0.153 OA
BRANCH  21  24
ATOM     24  N   UNL     1      34.894 -18.090 -22.831  0.00  0.00    -0.178 NA
ATOM     25  C   UNL     1      34.706 -16.891 -23.659  0.00  0.00    +0.110 C 
ATOM     26  H   UNL     1      33.965 -18.404 -22.552  0.00  0.00    +0.149 HD
ENDBRANCH  21  24
ENDBRANCH  15  21
ENDBRANCH   1  16
TORSDOF 4
ENDMDL
MODEL 5
REMARK VINA RESULT:     -10.7      3.779      8.703
REMARK  Name = 5288708
REMARK  4 active torsions:
REMARK  status: ('A' for Active; 'I' for Inactive)
REMARK    1  A    between atoms: N_1  and  C_9
REMARK    2  A    between atoms: N_1  and  C_16
REMARK    3  A    between atoms: C_15  and  S_21
REMARK    4  A    between atoms: S_21  and  N_24
REMARK                            x       y       z     vdW  Elec       q    Type
REMARK                         _______ _______ _______ _____ _____    ______ ____
ROOT
ATOM      1  N   UNL     1      35.319 -17.411 -22.711  0.00  0.00    -0.311 N 
ATOM      2  H   UNL     1      36.144 -17.688 -23.171  0.00  0.00    +0.152 HD
ENDROOT
BRANCH   1   9
ATOM      3  O   UNL     1      37.631 -18.365 -21.244  0.00  0.00    -0.270 OA
ATOM      4  N   UNL     1      36.986 -20.056 -19.726  0.00  0.00    -0.280 N 
ATOM      5  C   UNL     1      34.728 -20.147 -20.156  0.00  0.00    +0.019 C 
ATOM      6  C   UNL     1      35.333 -19.134 -21.014  0.00  0.00    +0.069 C 
ATOM      7  C   UNL     1      35.775 -20.675 -19.395  0.00  0.00    +0.051 C 
ATOM      8  C   UNL     1      36.805 -19.089 -20.721  0.00  0.00    +0.251 C 
ATOM      9  C   UNL     1      34.743 -18.352 -21.920  0.00  0.00    +0.066 C 
ATOM     10  C   UNL     1      33.436 -20.612 -19.997  0.00  0.00    +0.001 C 
ATOM     11  C   UNL     1      35.580 -21.673 -18.459  0.00  0.00    +0.015 C 
ATOM     12  C   UNL     1      33.215 -21.621 -19.054  0.00  0.00    +0.000 C 
ATOM     13  C   UNL     1      34.277 -22.147 -18.293  0.00  0.00    +0.001 C 
ATOM     14  H   UNL     1      37.852 -20.274 -19.313  0.00  0.00    +0.155 HD
ENDBRANCH   1   9
BRANCH   1  16
ATOM     15  C   UNL     1      34.041 -13.481 -23.463  0.00  0.00    +0.122 C 
ATOM     16  C   UNL     1      34.892 -16.098 -22.963  0.00  0.00    +0.048 C 
ATOM     17  C   UNL     1      34.565 -13.819 -22.215  0.00  0.00    +0.021 C 
ATOM     18  C   UNL     1      33.943 -14.450 -24.462  0.00  0.00    +0.021 C 
ATOM     19  C   UNL     1      34.990 -15.124 -21.965  0.00  0.00    +0.016 C 
ATOM     20  C   UNL     1      34.367 -15.756 -24.213  0.00  0.00    +0.016 C 
BRANCH  15  21
ATOM     21  S   UNL     1      33.510 -11.849 -23.775  0.00  0.00    +0.060 S 
ATOM     22  O   UNL     1      32.918 -11.794 -25.106  0.00  0.00    -0.153 OA
ATOM     23  O   UNL     1      32.727 -11.409 -22.628  0.00  0.00    -0.153 OA
BRANCH  21  24
ATOM     24  N   UNL     1      34.982 -10.979 -23.796  0.00  0.00    -0.178 NA
ATOM     25  C   UNL     1      35.342 -10.178 -24.975  0.00  0.00    +0.110 C 
ATOM     26  H   UNL     1      35.729 -11.661 -23.665  0.00  0.00    +0.149 HD
ENDBRANCH  21  24
ENDBRANCH  15  21
ENDBRANCH   1  16
TORSDOF 4
ENDMDL
MODEL 6
REMARK VINA RESULT:     -10.0      3.492      5.664
REMARK  Name = 5288708
REMARK  4 active torsions:
REMARK  status: ('A' for Active; 'I' for Inactive)
REMARK    1  A    between atoms: N_1  and  C_9
REMARK    2  A    between atoms: N_1  and  C_16
REMARK    3  A    between atoms: C_15  and  S_21
REMARK    4  A    between atoms: S_21  and  N_24
REMARK                            x       y       z     vdW  Elec       q    Type
REMARK                         _______ _______ _______ _____ _____    ______ ____
ROOT
ATOM      1  N   UNL     1      34.385 -22.852 -18.153  0.00  0.00    -0.311 N 
ATOM      2  H   UNL     1      35.113 -23.509 -18.240  0.00  0.00    +0.152 HD
ENDROOT
BRANCH   1   9
ATOM      3  O   UNL     1      36.950 -21.536 -17.849  0.00  0.00    -0.270 OA
ATOM      4  N   UNL     1      37.173 -19.815 -19.453  0.00  0.00    -0.280 N 
ATOM      5  C   UNL     1      35.155 -20.011 -20.539  0.00  0.00    +0.019 C 
ATOM      6  C   UNL     1      35.222 -21.014 -19.482  0.00  0.00    +0.069 C 
ATOM      7  C   UNL     1      36.364 -19.312 -20.478  0.00  0.00    +0.051 C 
ATOM      8  C   UNL     1      36.544 -20.870 -18.783  0.00  0.00    +0.251 C 
ATOM      9  C   UNL     1      34.308 -21.924 -19.140  0.00  0.00    +0.066 C 
ATOM     10  C   UNL     1      34.198 -19.683 -21.481  0.00  0.00    +0.001 C 
ATOM     11  C   UNL     1      36.663 -18.273 -21.338  0.00  0.00    +0.015 C 
ATOM     12  C   UNL     1      34.480 -18.635 -22.364  0.00  0.00    +0.000 C 
ATOM     13  C   UNL     1      35.701 -17.936 -22.292  0.00  0.00    +0.001 C 
ATOM     14  H   UNL     1      38.068 -19.471 -19.231  0.00  0.00    +0.155 HD
ENDBRANCH   1   9
BRANCH   1  16
ATOM     15  C   UNL     1      31.930 -23.289 -14.773  0.00  0.00    +0.122 C 
ATOM     16  C   UNL     1      33.564 -22.998 -17.023  0.00  0.00    +0.048 C 
ATOM     17  C   UNL     1      31.386 -22.841 -15.977  0.00  0.00    +0.021 C 
ATOM     18  C   UNL     1      33.289 -23.592 -14.692  0.00  0.00    +0.021 C 
ATOM     19  C   UNL     1      32.202 -22.697 -17.100  0.00  0.00    +0.016 C 
ATOM     20  C   UNL     1      34.105 -23.447 -15.814  0.00  0.00    +0.016 C 
BRANCH  15  21
ATOM     21  S   UNL     1      30.910 -23.469 -13.368  0.00  0.00    +0.060 S 
ATOM     22  O   UNL     1      31.688 -23.146 -12.179  0.00  0.00    -0.153 OA
ATOM     23  O   UNL     1      29.668 -22.753 -13.625  0.00  0.00    -0.153 OA
BRANCH  21  24
ATOM     24  N   UNL     1      30.581 -25.147 -13.365  0.00  0.00    -0.178 NA
ATOM     25  C   UNL     1      29.765 -25.734 -14.437  0.00  0.00    +0.110 C 
ATOM     26  H   UNL     1      30.105 -25.353 -12.487  0.00  0.00    +0.149 HD
ENDBRANCH  21  24
ENDBRANCH  15  21
ENDBRANCH   1  16
TORSDOF 4
ENDMDL
MODEL 7
REMARK VINA RESULT:      -9.9      5.504      9.890
REMARK  Name = 5288708
REMARK  4 active torsions:
REMARK  status: ('A' for Active; 'I' for Inactive)
REMARK    1  A    between atoms: N_1  and  C_9
REMARK    2  A    between atoms: N_1  and  C_16
REMARK    3  A    between atoms: C_15  and  S_21
REMARK    4  A    between atoms: S_21  and  N_24
REMARK                            x       y       z     vdW  Elec       q    Type
REMARK                         _______ _______ _______ _____ _____    ______ ____
ROOT
ATOM      1  N   UNL     1      34.206 -13.472 -23.705  0.00  0.00    -0.311 N 
ATOM      2  H   UNL     1      34.319 -13.570 -24.677  0.00  0.00    +0.152 HD
ENDROOT
BRANCH   1   9
ATOM      3  O   UNL     1      33.577 -15.629 -25.538  0.00  0.00    -0.270 OA
ATOM      4  N   UNL     1      34.097 -17.710 -24.548  0.00  0.00    -0.280 N 
ATOM      5  C   UNL     1      34.888 -17.002 -22.508  0.00  0.00    +0.019 C 
ATOM      6  C   UNL     1      34.504 -15.837 -23.296  0.00  0.00    +0.069 C 
ATOM      7  C   UNL     1      34.622 -18.112 -23.315  0.00  0.00    +0.051 C 
ATOM      8  C   UNL     1      33.989 -16.317 -24.623  0.00  0.00    +0.251 C 
ATOM      9  C   UNL     1      34.568 -14.547 -22.960  0.00  0.00    +0.066 C 
ATOM     10  C   UNL     1      35.414 -17.163 -21.239  0.00  0.00    +0.001 C 
ATOM     11  C   UNL     1      34.863 -19.407 -22.896  0.00  0.00    +0.015 C 
ATOM     12  C   UNL     1      35.667 -18.465 -20.795  0.00  0.00    +0.000 C 
ATOM     13  C   UNL     1      35.393 -19.576 -21.616  0.00  0.00    +0.001 C 
ATOM     14  H   UNL     1      33.837 -18.327 -25.269  0.00  0.00    +0.155 HD
ENDBRANCH   1   9
BRANCH   1  16
ATOM     15  C   UNL     1      32.663  -9.786 -22.409  0.00  0.00    +0.122 C 
ATOM     16  C   UNL     1      33.691 -12.240 -23.271  0.00  0.00    +0.048 C 
ATOM     17  C   UNL     1      32.278 -10.967 -21.773  0.00  0.00    +0.021 C 
ATOM     18  C   UNL     1      33.563  -9.830 -23.475  0.00  0.00    +0.021 C 
ATOM     19  C   UNL     1      32.790 -12.191 -22.204  0.00  0.00    +0.016 C 
ATOM     20  C   UNL     1      34.075 -11.054 -23.905  0.00  0.00    +0.016 C 
BRANCH  15  21
ATOM     21  S   UNL     1      32.022  -8.255 -21.871  0.00  0.00    +0.060 S 
ATOM     22  O   UNL     1      31.136  -7.729 -22.902  0.00  0.00    -0.153 OA
ATOM     23  O   UNL     1      31.514  -8.436 -20.518  0.00  0.00    -0.153 OA
BRANCH  21  24
ATOM     24  N   UNL     1      33.421  -7.274 -21.801  0.00  0.00    -0.178 NA
ATOM     25  C   UNL     1      33.518  -6.077 -22.648  0.00  0.00    +0.110 C 
ATOM     26  H   UNL     1      34.212  -7.870 -22.043  0.00  0.00    +0.149 HD
ENDBRANCH  21  24
ENDBRANCH  15  21
ENDBRANCH   1  16
TORSDOF 4
ENDMDL
MODEL 8
REMARK VINA RESULT:      -9.9      5.647     10.169
REMARK  Name = 5288708
REMARK  4 active torsions:
REMARK  status: ('A' for Active; 'I' for Inactive)
REMARK    1  A    between atoms: N_1  and  C_9
REMARK    2  A    between atoms: N_1  and  C_16
REMARK    3  A    between atoms: C_15  and  S_21
REMARK    4  A    between atoms: S_21  and  N_24
REMARK                            x       y       z     vdW  Elec       q    Type
REMARK                         _______ _______ _______ _____ _____    ______ ____
ROOT
ATOM      1  N   UNL     1      34.113 -13.340 -23.962  0.00  0.00    -0.311 N 
ATOM      2  H   UNL     1      34.012 -13.555 -24.917  0.00  0.00    +0.152 HD
ENDROOT
BRANCH   1   9
ATOM      3  O   UNL     1      33.642 -15.579 -25.743  0.00  0.00    -0.270 OA
ATOM      4  N   UNL     1      34.173 -17.607 -24.653  0.00  0.00    -0.280 N 
ATOM      5  C   UNL     1      34.838 -16.803 -22.604  0.00  0.00    +0.019 C 
ATOM      6  C   UNL     1      34.459 -15.679 -23.452  0.00  0.00    +0.069 C 
ATOM      7  C   UNL     1      34.646 -17.949 -23.381  0.00  0.00    +0.051 C 
ATOM      8  C   UNL     1      34.027 -16.222 -24.784  0.00  0.00    +0.251 C 
ATOM      9  C   UNL     1      34.468 -14.377 -23.160  0.00  0.00    +0.066 C 
ATOM     10  C   UNL     1      35.302 -16.902 -21.305  0.00  0.00    +0.001 C 
ATOM     11  C   UNL     1      34.904 -19.219 -22.904  0.00  0.00    +0.015 C 
ATOM     12  C   UNL     1      35.571 -18.179 -20.802  0.00  0.00    +0.000 C 
ATOM     13  C   UNL     1      35.373 -19.327 -21.594  0.00  0.00    +0.001 C 
ATOM     14  H   UNL     1      33.968 -18.257 -25.363  0.00  0.00    +0.155 HD
ENDBRANCH   1   9
BRANCH   1  16
ATOM     15  C   UNL     1      33.380  -9.342 -22.903  0.00  0.00    +0.122 C 
ATOM     16  C   UNL     1      33.868 -12.004 -23.607  0.00  0.00    +0.048 C 
ATOM     17  C   UNL     1      32.713 -10.373 -22.241  0.00  0.00    +0.021 C 
ATOM     18  C   UNL     1      34.292  -9.640 -23.916  0.00  0.00    +0.021 C 
ATOM     19  C   UNL     1      32.957 -11.701 -22.592  0.00  0.00    +0.016 C 
ATOM     20  C   UNL     1      34.535 -10.968 -24.269  0.00  0.00    +0.016 C 
BRANCH  15  21
ATOM     21  S   UNL     1      33.076  -7.681 -22.464  0.00  0.00    +0.060 S 
ATOM     22  O   UNL     1      33.620  -7.439 -21.134  0.00  0.00    -0.153 OA
ATOM     23  O   UNL     1      33.506  -6.842 -23.575  0.00  0.00    -0.153 OA
BRANCH  21  24
ATOM     24  N   UNL     1      31.369  -7.631 -22.372  0.00  0.00    -0.178 NA
ATOM     25  C   UNL     1      30.683  -6.342 -22.203  0.00  0.00    +0.110 C 
ATOM     26  H   UNL     1      31.099  -8.214 -21.581  0.00  0.00    +0.149 HD
ENDBRANCH  21  24
ENDBRANCH  15  21
ENDBRANCH   1  16
TORSDOF 4
ENDMDL
MODEL 9
REMARK VINA RESULT:      -9.9      2.557      9.348
REMARK  Name = 5288708
REMARK  4 active torsions:
REMARK  status: ('A' for Active; 'I' for Inactive)
REMARK    1  A    between atoms: N_1  and  C_9
REMARK    2  A    between atoms: N_1  and  C_16
REMARK    3  A    between atoms: C_15  and  S_21
REMARK    4  A    between atoms: S_21  and  N_24
REMARK                            x       y       z     vdW  Elec       q    Type
REMARK                         _______ _______ _______ _____ _____    ______ ____
ROOT
ATOM      1  N   UNL     1      33.543 -22.456 -18.526  0.00  0.00    -0.311 N 
ATOM      2  H   UNL     1      32.753 -22.929 -18.872  0.00  0.00    +0.152 HD
ENDROOT
BRANCH   1   9
ATOM      3  O   UNL     1      31.150 -22.446 -16.888  0.00  0.00    -0.270 OA
ATOM      4  N   UNL     1      31.653 -23.223 -14.714  0.00  0.00    -0.280 N 
ATOM      5  C   UNL     1      33.905 -23.633 -14.942  0.00  0.00    +0.019 C 
ATOM      6  C   UNL     1      33.385 -23.133 -16.210  0.00  0.00    +0.069 C 
ATOM      7  C   UNL     1      32.813 -23.668 -14.070  0.00  0.00    +0.051 C 
ATOM      8  C   UNL     1      31.916 -22.870 -16.043  0.00  0.00    +0.251 C 
ATOM      9  C   UNL     1      34.041 -22.921 -17.352  0.00  0.00    +0.066 C 
ATOM     10  C   UNL     1      35.159 -24.030 -14.518  0.00  0.00    +0.001 C 
ATOM     11  C   UNL     1      32.925 -24.094 -12.760  0.00  0.00    +0.015 C 
ATOM     12  C   UNL     1      35.295 -24.466 -13.195  0.00  0.00    +0.000 C 
ATOM     13  C   UNL     1      34.189 -24.496 -12.325  0.00  0.00    +0.001 C 
ATOM     14  H   UNL     1      30.768 -23.165 -14.288  0.00  0.00    +0.155 HD
ENDBRANCH   1   9
BRANCH   1  16
ATOM     15  C   UNL     1      34.923 -19.257 -20.872  0.00  0.00    +0.122 C 
ATOM     16  C   UNL     1      34.004 -21.386 -19.310  0.00  0.00    +0.048 C 
ATOM     17  C   UNL     1      35.834 -20.080 -20.209  0.00  0.00    +0.021 C 
ATOM     18  C   UNL     1      33.554 -19.497 -20.756  0.00  0.00    +0.021 C 
ATOM     19  C   UNL     1      35.375 -21.143 -19.430  0.00  0.00    +0.016 C 
ATOM     20  C   UNL     1      33.095 -20.559 -19.976  0.00  0.00    +0.016 C 
BRANCH  15  21
ATOM     21  S   UNL     1      35.496 -17.926 -21.846  0.00  0.00    +0.060 S 
ATOM     22  O   UNL     1      35.191 -16.677 -21.161  0.00  0.00    -0.153 OA
ATOM     23  O   UNL     1      36.874 -18.215 -22.225  0.00  0.00    -0.153 OA
BRANCH  21  24
ATOM     24  N   UNL     1      34.512 -18.040 -23.240  0.00  0.00    -0.178 NA
ATOM     25  C   UNL     1      34.473 -16.928 -24.200  0.00  0.00    +0.110 C 
ATOM     26  H   UNL     1      33.556 -18.182 -22.915  0.00  0.00    +0.149 HD
ENDBRANCH  21  24
ENDBRANCH  15  21
ENDBRANCH   1  16
TORSDOF 4
ENDMDL
