MODEL 1
REMARK VINA RESULT:     -11.5      0.000      0.000
REMARK  Name = 6852140
REMARK  4 active torsions:
REMARK  status: ('A' for Active; 'I' for Inactive)
REMARK    1  A    between atoms: C_2  and  N_18
REMARK    2  A    between atoms: C_5  and  C_13
REMARK    3  A    between atoms: C_19  and  C_21
REMARK    4  A    between atoms: C_24  and  O_28
REMARK                            x       y       z     vdW  Elec       q    Type
REMARK                         _______ _______ _______ _____ _____    ______ ____
ROOT
ATOM      1  C   UNL     1      31.787 -23.625 -15.050  0.00  0.00    +0.014 C 
ATOM      2  C   UNL     1      33.077 -23.244 -15.455  0.00  0.00    +0.050 C 
ATOM      3  C   UNL     1      31.636 -24.470 -13.924  0.00  0.00    +0.001 C 
ATOM      4  C   UNL     1      30.643 -23.188 -15.738  0.00  0.00    +0.004 C 
ATOM      5  C   UNL     1      29.370 -23.576 -15.322  0.00  0.00    +0.031 C 
ATOM      6  C   UNL     1      30.346 -24.851 -13.519  0.00  0.00    +0.000 C 
ATOM      7  C   UNL     1      34.202 -23.690 -14.759  0.00  0.00    +0.015 C 
ATOM      8  C   UNL     1      32.780 -24.907 -13.235  0.00  0.00    +0.000 C 
ATOM      9  C   UNL     1      29.221 -24.405 -14.214  0.00  0.00    +0.003 C 
ATOM     10  C   UNL     1      34.053 -24.519 -13.652  0.00  0.00    +0.001 C 
ENDROOT
BRANCH   5  13
ATOM     11  N   UNL     1      27.209 -22.357 -15.415  0.00  0.00    -0.343 N 
ATOM     12  N   UNL     1      28.047 -23.417 -17.321  0.00  0.00    -0.285 NA
ATOM     13  C   UNL     1      28.196 -23.114 -16.044  0.00  0.00    +0.117 C 
ATOM     14  H   UNL     1      26.422 -22.055 -15.923  0.00  0.00    +0.144 HD
ATOM     15  H   UNL     1      27.299 -22.124 -14.463  0.00  0.00    +0.144 HD
ATOM     16  H   UNL     1      27.253 -23.105 -17.812  0.00  0.00    +0.188 HD
ENDBRANCH   5  13
BRANCH   2  18
ATOM     17  O   UNL     1      33.735 -23.994 -18.212  0.00  0.00    -0.270 OA
ATOM     18  N   UNL     1      33.288 -22.412 -16.561  0.00  0.00    -0.280 N 
ATOM     19  C   UNL     1      33.599 -22.826 -17.855  0.00  0.00    +0.249 C 
ATOM     20  H   UNL     1      33.208 -21.442 -16.411  0.00  0.00    +0.155 HD
BRANCH  19  21
ATOM     21  C   UNL     1      33.813 -21.719 -18.805  0.00  0.00    +0.053 C 
ATOM     22  C   UNL     1      35.083 -21.204 -19.015  0.00  0.00    +0.016 C 
ATOM     23  C   UNL     1      32.712 -21.213 -19.478  0.00  0.00    +0.004 C 
ATOM     24  C   UNL     1      35.255 -20.156 -19.919  0.00  0.00    +0.130 C 
ATOM     25  C   UNL     1      36.267 -21.754 -18.286  0.00  0.00    +0.034 C 
ATOM     26  C   UNL     1      32.884 -20.166 -20.383  0.00  0.00    +0.003 C 
ATOM     27  C   UNL     1      34.156 -19.637 -20.603  0.00  0.00    +0.036 C 
BRANCH  24  28
ATOM     28  O   UNL     1      36.490 -19.626 -20.148  0.00  0.00    -0.506 OA
ATOM     29  H   UNL     1      37.106 -19.554 -19.446  0.00  0.00    +0.292 HD
ENDBRANCH  24  28
ENDBRANCH  19  21
ENDBRANCH   2  18
TORSDOF 4
ENDMDL
MODEL 2
REMARK VINA RESULT:     -10.9      1.826      4.266
REMARK  Name = 6852140
REMARK  4 active torsions:
REMARK  status: ('A' for Active; 'I' for Inactive)
REMARK    1  A    between atoms: C_2  and  N_18
REMARK    2  A    between atoms: C_5  and  C_13
REMARK    3  A    between atoms: C_19  and  C_21
REMARK    4  A    between atoms: C_24  and  O_28
REMARK                            x       y       z     vdW  Elec       q    Type
REMARK                         _______ _______ _______ _____ _____    ______ ____
ROOT
ATOM      1  C   UNL     1      33.285 -23.356 -15.033  0.00  0.00    +0.014 C 
ATOM      2  C   UNL     1      32.411 -22.879 -16.024  0.00  0.00    +0.050 C 
ATOM      3  C   UNL     1      32.772 -24.162 -13.989  0.00  0.00    +0.001 C 
ATOM      4  C   UNL     1      34.655 -23.049 -15.055  0.00  0.00    +0.004 C 
ATOM      5  C   UNL     1      35.508 -23.531 -14.062  0.00  0.00    +0.031 C 
ATOM      6  C   UNL     1      33.646 -24.639 -12.998  0.00  0.00    +0.000 C 
ATOM      7  C   UNL     1      31.052 -23.193 -15.986  0.00  0.00    +0.015 C 
ATOM      8  C   UNL     1      31.402 -24.469 -13.967  0.00  0.00    +0.000 C 
ATOM      9  C   UNL     1      35.005 -24.325 -13.036  0.00  0.00    +0.003 C 
ATOM     10  C   UNL     1      30.549 -23.986 -14.959  0.00  0.00    +0.001 C 
ENDROOT
BRANCH   5  13
ATOM     11  N   UNL     1      37.611 -23.087 -15.307  0.00  0.00    -0.343 N 
ATOM     12  N   UNL     1      37.587 -23.022 -12.971  0.00  0.00    -0.285 NA
ATOM     13  C   UNL     1      36.925 -23.206 -14.099  0.00  0.00    +0.117 C 
ATOM     14  H   UNL     1      38.570 -22.867 -15.308  0.00  0.00    +0.144 HD
ATOM     15  H   UNL     1      37.136 -23.223 -16.159  0.00  0.00    +0.144 HD
ATOM     16  H   UNL     1      38.547 -22.801 -12.994  0.00  0.00    +0.188 HD
ENDBRANCH   5  13
BRANCH   2  18
ATOM     17  O   UNL     1      33.766 -23.692 -18.494  0.00  0.00    -0.270 OA
ATOM     18  N   UNL     1      32.860 -22.076 -17.081  0.00  0.00    -0.280 N 
ATOM     19  C   UNL     1      33.501 -22.520 -18.236  0.00  0.00    +0.249 C 
ATOM     20  H   UNL     1      32.709 -21.106 -17.000  0.00  0.00    +0.155 HD
BRANCH  19  21
ATOM     21  C   UNL     1      33.904 -21.437 -19.153  0.00  0.00    +0.053 C 
ATOM     22  C   UNL     1      35.230 -21.042 -19.239  0.00  0.00    +0.016 C 
ATOM     23  C   UNL     1      32.921 -20.832 -19.922  0.00  0.00    +0.004 C 
ATOM     24  C   UNL     1      35.582 -20.015 -20.114  0.00  0.00    +0.130 C 
ATOM     25  C   UNL     1      36.285 -21.699 -18.408  0.00  0.00    +0.034 C 
ATOM     26  C   UNL     1      33.273 -19.805 -20.797  0.00  0.00    +0.003 C 
ATOM     27  C   UNL     1      34.604 -19.396 -20.894  0.00  0.00    +0.036 C 
BRANCH  24  28
ATOM     28  O   UNL     1      36.876 -19.602 -20.223  0.00  0.00    -0.506 OA
ATOM     29  H   UNL     1      37.564 -20.233 -20.300  0.00  0.00    +0.292 HD
ENDBRANCH  24  28
ENDBRANCH  19  21
ENDBRANCH   2  18
TORSDOF 4
ENDMDL
MODEL 3
REMARK VINA RESULT:     -10.3      3.200      5.997
REMARK  Name = 6852140
REMARK  4 active torsions:
REMARK  status: ('A' for Active; 'I' for Inactive)
REMARK    1  A    between atoms: C_2  and  N_18
REMARK    2  A    between atoms: C_5  and  C_13
REMARK    3  A    between atoms: C_19  and  C_21
REMARK    4  A    between atoms: C_24  and  O_28
REMARK                            x       y       z     vdW  Elec       q    Type
REMARK                         _______ _______ _______ _____ _____    ______ ____
ROOT
ATOM      1  C   UNL     1      32.272 -23.790 -14.878  0.00  0.00    +0.014 C 
ATOM      2  C   UNL     1      32.800 -24.478 -13.773  0.00  0.00    +0.050 C 
ATOM      3  C   UNL     1      30.882 -23.525 -14.928  0.00  0.00    +0.001 C 
ATOM      4  C   UNL     1      33.091 -23.361 -15.935  0.00  0.00    +0.004 C 
ATOM      5  C   UNL     1      32.549 -22.680 -17.025  0.00  0.00    +0.031 C 
ATOM      6  C   UNL     1      30.354 -22.837 -16.034  0.00  0.00    +0.000 C 
ATOM      7  C   UNL     1      31.970 -24.897 -12.732  0.00  0.00    +0.015 C 
ATOM      8  C   UNL     1      30.062 -23.954 -13.871  0.00  0.00    +0.000 C 
ATOM      9  C   UNL     1      31.183 -22.418 -17.074  0.00  0.00    +0.003 C 
ATOM     10  C   UNL     1      30.604 -24.636 -12.782  0.00  0.00    +0.001 C 
ENDROOT
BRANCH   5  13
ATOM     11  N   UNL     1      32.887 -21.648 -19.258  0.00  0.00    -0.343 N 
ATOM     12  N   UNL     1      34.718 -22.410 -18.023  0.00  0.00    -0.285 NA
ATOM     13  C   UNL     1      33.411 -22.242 -18.111  0.00  0.00    +0.117 C 
ATOM     14  H   UNL     1      33.488 -21.359 -19.981  0.00  0.00    +0.144 HD
ATOM     15  H   UNL     1      31.915 -21.516 -19.344  0.00  0.00    +0.144 HD
ATOM     16  H   UNL     1      35.303 -22.114 -18.757  0.00  0.00    +0.188 HD
ENDBRANCH   5  13
BRANCH   2  18
ATOM     17  O   UNL     1      34.746 -23.462 -11.830  0.00  0.00    -0.270 OA
ATOM     18  N   UNL     1      34.166 -24.769 -13.669  0.00  0.00    -0.280 N 
ATOM     19  C   UNL     1      35.047 -24.254 -12.720  0.00  0.00    +0.249 C 
ATOM     20  H   UNL     1      34.539 -25.398 -14.329  0.00  0.00    +0.155 HD
BRANCH  19  21
ATOM     21  C   UNL     1      36.441 -24.705 -12.888  0.00  0.00    +0.053 C 
ATOM     22  C   UNL     1      37.224 -24.209 -13.919  0.00  0.00    +0.016 C 
ATOM     23  C   UNL     1      36.941 -25.633 -11.987  0.00  0.00    +0.004 C 
ATOM     24  C   UNL     1      38.539 -24.653 -14.054  0.00  0.00    +0.130 C 
ATOM     25  C   UNL     1      36.678 -23.207 -14.886  0.00  0.00    +0.034 C 
ATOM     26  C   UNL     1      38.256 -26.077 -12.122  0.00  0.00    +0.003 C 
ATOM     27  C   UNL     1      39.056 -25.587 -13.156  0.00  0.00    +0.036 C 
BRANCH  24  28
ATOM     28  O   UNL     1      39.335 -24.186 -15.057  0.00  0.00    -0.506 OA
ATOM     29  H   UNL     1      39.353 -23.270 -15.252  0.00  0.00    +0.292 HD
ENDBRANCH  24  28
ENDBRANCH  19  21
ENDBRANCH   2  18
TORSDOF 4
ENDMDL
MODEL 4
REMARK VINA RESULT:     -10.3      2.116      4.533
REMARK  Name = 6852140
REMARK  4 active torsions:
REMARK  status: ('A' for Active; 'I' for Inactive)
REMARK    1  A    between atoms: C_2  and  N_18
REMARK    2  A    between atoms: C_5  and  C_13
REMARK    3  A    between atoms: C_19  and  C_21
REMARK    4  A    between atoms: C_24  and  O_28
REMARK                            x       y       z     vdW  Elec       q    Type
REMARK                         _______ _______ _______ _____ _____    ______ ____
ROOT
ATOM      1  C   UNL     1      33.439 -23.299 -14.868  0.00  0.00    +0.014 C 
ATOM      2  C   UNL     1      32.837 -22.826 -16.046  0.00  0.00    +0.050 C 
ATOM      3  C   UNL     1      32.667 -24.054 -13.952  0.00  0.00    +0.001 C 
ATOM      4  C   UNL     1      34.788 -23.039 -14.578  0.00  0.00    +0.004 C 
ATOM      5  C   UNL     1      35.368 -23.517 -13.403  0.00  0.00    +0.031 C 
ATOM      6  C   UNL     1      33.268 -24.528 -12.774  0.00  0.00    +0.000 C 
ATOM      7  C   UNL     1      31.494 -23.093 -16.317  0.00  0.00    +0.015 C 
ATOM      8  C   UNL     1      31.317 -24.315 -14.243  0.00  0.00    +0.000 C 
ATOM      9  C   UNL     1      34.611 -24.260 -12.504  0.00  0.00    +0.003 C 
ATOM     10  C   UNL     1      30.737 -23.836 -15.417  0.00  0.00    +0.001 C 
ENDROOT
BRANCH   5  13
ATOM     11  N   UNL     1      37.214 -23.039 -11.813  0.00  0.00    -0.343 N 
ATOM     12  N   UNL     1      37.639 -23.169 -14.107  0.00  0.00    -0.285 NA
ATOM     13  C   UNL     1      36.767 -23.240 -13.118  0.00  0.00    +0.117 C 
ATOM     14  H   UNL     1      38.166 -22.852 -11.642  0.00  0.00    +0.144 HD
ATOM     15  H   UNL     1      36.579 -23.085 -11.062  0.00  0.00    +0.144 HD
ATOM     16  H   UNL     1      38.587 -22.982 -13.915  0.00  0.00    +0.188 HD
ENDBRANCH   5  13
BRANCH   2  18
ATOM     17  O   UNL     1      33.817 -23.648 -18.684  0.00  0.00    -0.270 OA
ATOM     18  N   UNL     1      33.550 -22.073 -16.988  0.00  0.00    -0.280 N 
ATOM     19  C   UNL     1      33.992 -22.518 -18.233  0.00  0.00    +0.249 C 
ATOM     20  H   UNL     1      33.758 -21.141 -16.748  0.00  0.00    +0.155 HD
BRANCH  19  21
ATOM     21  C   UNL     1      34.763 -21.515 -18.990  0.00  0.00    +0.053 C 
ATOM     22  C   UNL     1      34.118 -20.603 -19.811  0.00  0.00    +0.016 C 
ATOM     23  C   UNL     1      36.143 -21.511 -18.855  0.00  0.00    +0.004 C 
ATOM     24  C   UNL     1      34.872 -19.665 -20.516  0.00  0.00    +0.130 C 
ATOM     25  C   UNL     1      32.629 -20.611 -19.952  0.00  0.00    +0.034 C 
ATOM     26  C   UNL     1      36.897 -20.574 -19.560  0.00  0.00    +0.003 C 
ATOM     27  C   UNL     1      36.261 -19.650 -20.391  0.00  0.00    +0.036 C 
BRANCH  24  28
ATOM     28  O   UNL     1      34.270 -18.754 -21.333  0.00  0.00    -0.506 OA
ATOM     29  H   UNL     1      33.393 -18.475 -21.155  0.00  0.00    +0.292 HD
ENDBRANCH  24  28
ENDBRANCH  19  21
ENDBRANCH   2  18
TORSDOF 4
ENDMDL
MODEL 5
REMARK VINA RESULT:     -10.1      2.650      6.718
REMARK  Name = 6852140
REMARK  4 active torsions:
REMARK  status: ('A' for Active; 'I' for Inactive)
REMARK    1  A    between atoms: C_2  and  N_18
REMARK    2  A    between atoms: C_5  and  C_13
REMARK    3  A    between atoms: C_19  and  C_21
REMARK    4  A    between atoms: C_24  and  O_28
REMARK                            x       y       z     vdW  Elec       q    Type
REMARK                         _______ _______ _______ _____ _____    ______ ____
ROOT
ATOM      1  C   UNL     1      34.924 -22.153 -17.312  0.00  0.00    +0.014 C 
ATOM      2  C   UNL     1      34.424 -22.923 -16.248  0.00  0.00    +0.050 C 
ATOM      3  C   UNL     1      36.313 -21.886 -17.379  0.00  0.00    +0.001 C 
ATOM      4  C   UNL     1      34.077 -21.640 -18.308  0.00  0.00    +0.004 C 
ATOM      5  C   UNL     1      34.591 -20.877 -19.356  0.00  0.00    +0.031 C 
ATOM      6  C   UNL     1      36.813 -21.116 -18.443  0.00  0.00    +0.000 C 
ATOM      7  C   UNL     1      35.281 -23.423 -15.267  0.00  0.00    +0.015 C 
ATOM      8  C   UNL     1      37.160 -22.399 -16.384  0.00  0.00    +0.000 C 
ATOM      9  C   UNL     1      35.956 -20.616 -19.424  0.00  0.00    +0.003 C 
ATOM     10  C   UNL     1      36.646 -23.161 -15.335  0.00  0.00    +0.001 C 
ENDROOT
BRANCH   5  13
ATOM     11  N   UNL     1      34.195 -19.677 -21.494  0.00  0.00    -0.343 N 
ATOM     12  N   UNL     1      32.395 -20.512 -20.260  0.00  0.00    -0.285 NA
ATOM     13  C   UNL     1      33.701 -20.354 -20.380  0.00  0.00    +0.117 C 
ATOM     14  H   UNL     1      33.575 -19.331 -22.175  0.00  0.00    +0.144 HD
ATOM     15  H   UNL     1      35.166 -19.546 -21.600  0.00  0.00    +0.144 HD
ATOM     16  H   UNL     1      31.791 -20.159 -20.953  0.00  0.00    +0.188 HD
ENDBRANCH   5  13
BRANCH   2  18
ATOM     17  O   UNL     1      32.632 -22.409 -13.986  0.00  0.00    -0.270 OA
ATOM     18  N   UNL     1      33.060 -23.218 -16.128  0.00  0.00    -0.280 N 
ATOM     19  C   UNL     1      32.254 -22.949 -15.023  0.00  0.00    +0.249 C 
ATOM     20  H   UNL     1      32.630 -23.657 -16.897  0.00  0.00    +0.155 HD
BRANCH  19  21
ATOM     21  C   UNL     1      30.864 -23.420 -15.165  0.00  0.00    +0.053 C 
ATOM     22  C   UNL     1      30.394 -24.474 -14.398  0.00  0.00    +0.016 C 
ATOM     23  C   UNL     1      30.047 -22.777 -16.083  0.00  0.00    +0.004 C 
ATOM     24  C   UNL     1      29.074 -24.898 -14.554  0.00  0.00    +0.130 C 
ATOM     25  C   UNL     1      31.280 -25.162 -13.410  0.00  0.00    +0.034 C 
ATOM     26  C   UNL     1      28.728 -23.200 -16.239  0.00  0.00    +0.003 C 
ATOM     27  C   UNL     1      28.241 -24.261 -15.474  0.00  0.00    +0.036 C 
BRANCH  24  28
ATOM     28  O   UNL     1      28.580 -25.932 -13.816  0.00  0.00    -0.506 OA
ATOM     29  H   UNL     1      28.369 -26.744 -14.232  0.00  0.00    +0.292 HD
ENDBRANCH  24  28
ENDBRANCH  19  21
ENDBRANCH   2  18
TORSDOF 4
ENDMDL
MODEL 6
REMARK VINA RESULT:      -9.9      2.672      7.189
REMARK  Name = 6852140
REMARK  4 active torsions:
REMARK  status: ('A' for Active; 'I' for Inactive)
REMARK    1  A    between atoms: C_2  and  N_18
REMARK    2  A    between atoms: C_5  and  C_13
REMARK    3  A    between atoms: C_19  and  C_21
REMARK    4  A    between atoms: C_24  and  O_28
REMARK                            x       y       z     vdW  Elec       q    Type
REMARK                         _______ _______ _______ _____ _____    ______ ____
ROOT
ATOM      1  C   UNL     1      35.048 -22.529 -16.654  0.00  0.00    +0.014 C 
ATOM      2  C   UNL     1      33.759 -22.704 -17.184  0.00  0.00    +0.050 C 
ATOM      3  C   UNL     1      36.043 -21.907 -17.446  0.00  0.00    +0.001 C 
ATOM      4  C   UNL     1      35.372 -22.958 -15.356  0.00  0.00    +0.004 C 
ATOM      5  C   UNL     1      36.657 -22.776 -14.846  0.00  0.00    +0.031 C 
ATOM      6  C   UNL     1      37.332 -21.732 -16.915  0.00  0.00    +0.000 C 
ATOM      7  C   UNL     1      33.456 -22.273 -18.476  0.00  0.00    +0.015 C 
ATOM      8  C   UNL     1      35.720 -21.478 -18.743  0.00  0.00    +0.000 C 
ATOM      9  C   UNL     1      37.635 -22.163 -15.623  0.00  0.00    +0.003 C 
ATOM     10  C   UNL     1      34.435 -21.661 -19.253  0.00  0.00    +0.001 C 
ENDROOT
BRANCH   5  13
ATOM     11  N   UNL     1      36.063 -23.092 -12.456  0.00  0.00    -0.343 N 
ATOM     12  N   UNL     1      38.155 -23.765 -13.249  0.00  0.00    -0.285 NA
ATOM     13  C   UNL     1      36.976 -23.224 -13.500  0.00  0.00    +0.117 C 
ATOM     14  H   UNL     1      36.300 -23.402 -11.552  0.00  0.00    +0.144 HD
ATOM     15  H   UNL     1      35.179 -22.689 -12.622  0.00  0.00    +0.144 HD
ATOM     16  H   UNL     1      38.373 -24.069 -12.338  0.00  0.00    +0.188 HD
ENDBRANCH   5  13
BRANCH   2  18
ATOM     17  O   UNL     1      30.938 -21.930 -16.985  0.00  0.00    -0.270 OA
ATOM     18  N   UNL     1      32.735 -23.313 -16.448  0.00  0.00    -0.280 N 
ATOM     19  C   UNL     1      31.405 -22.899 -16.391  0.00  0.00    +0.249 C 
ATOM     20  H   UNL     1      32.977 -24.109 -15.921  0.00  0.00    +0.155 HD
BRANCH  19  21
ATOM     21  C   UNL     1      30.562 -23.709 -15.491  0.00  0.00    +0.053 C 
ATOM     22  C   UNL     1      30.923 -23.898 -14.167  0.00  0.00    +0.016 C 
ATOM     23  C   UNL     1      29.405 -24.271 -16.009  0.00  0.00    +0.004 C 
ATOM     24  C   UNL     1      30.107 -24.669 -13.339  0.00  0.00    +0.130 C 
ATOM     25  C   UNL     1      32.172 -23.288 -13.614  0.00  0.00    +0.034 C 
ATOM     26  C   UNL     1      28.589 -25.042 -15.182  0.00  0.00    +0.003 C 
ATOM     27  C   UNL     1      28.940 -25.241 -13.846  0.00  0.00    +0.036 C 
BRANCH  24  28
ATOM     28  O   UNL     1      30.433 -24.874 -12.031  0.00  0.00    -0.506 OA
ATOM     29  H   UNL     1      30.808 -25.691 -11.766  0.00  0.00    +0.292 HD
ENDBRANCH  24  28
ENDBRANCH  19  21
ENDBRANCH   2  18
TORSDOF 4
ENDMDL
MODEL 7
REMARK VINA RESULT:      -9.6      3.345      6.185
REMARK  Name = 6852140
REMARK  4 active torsions:
REMARK  status: ('A' for Active; 'I' for Inactive)
REMARK    1  A    between atoms: C_2  and  N_18
REMARK    2  A    between atoms: C_5  and  C_13
REMARK    3  A    between atoms: C_19  and  C_21
REMARK    4  A    between atoms: C_24  and  O_28
REMARK                            x       y       z     vdW  Elec       q    Type
REMARK                         _______ _______ _______ _____ _____    ______ ____
ROOT
ATOM      1  C   UNL     1      33.234 -22.985 -15.901  0.00  0.00    +0.014 C 
ATOM      2  C   UNL     1      34.620 -22.874 -16.101  0.00  0.00    +0.050 C 
ATOM      3  C   UNL     1      32.353 -22.616 -16.946  0.00  0.00    +0.001 C 
ATOM      4  C   UNL     1      32.703 -23.452 -14.688  0.00  0.00    +0.004 C 
ATOM      5  C   UNL     1      31.324 -23.555 -14.507  0.00  0.00    +0.031 C 
ATOM      6  C   UNL     1      30.966 -22.728 -16.746  0.00  0.00    +0.000 C 
ATOM      7  C   UNL     1      35.129 -22.406 -17.314  0.00  0.00    +0.015 C 
ATOM      8  C   UNL     1      32.883 -22.149 -18.160  0.00  0.00    +0.000 C 
ATOM      9  C   UNL     1      30.457 -23.195 -15.534  0.00  0.00    +0.003 C 
ATOM     10  C   UNL     1      34.262 -22.045 -18.340  0.00  0.00    +0.001 C 
ENDROOT
BRANCH   5  13
ATOM     11  N   UNL     1      29.942 -25.146 -13.194  0.00  0.00    -0.343 N 
ATOM     12  N   UNL     1      31.103 -23.428 -12.118  0.00  0.00    -0.285 NA
ATOM     13  C   UNL     1      30.790 -24.042 -13.245  0.00  0.00    +0.117 C 
ATOM     14  H   UNL     1      29.591 -25.458 -12.329  0.00  0.00    +0.144 HD
ATOM     15  H   UNL     1      29.694 -25.616 -14.024  0.00  0.00    +0.144 HD
ATOM     16  H   UNL     1      30.743 -23.756 -11.262  0.00  0.00    +0.188 HD
ENDBRANCH   5  13
BRANCH   2  18
ATOM     17  O   UNL     1      35.480 -25.546 -15.256  0.00  0.00    -0.270 OA
ATOM     18  N   UNL     1      35.540 -23.222 -15.104  0.00  0.00    -0.280 N 
ATOM     19  C   UNL     1      35.912 -24.516 -14.744  0.00  0.00    +0.249 C 
ATOM     20  H   UNL     1      35.964 -22.483 -14.611  0.00  0.00    +0.155 HD
BRANCH  19  21
ATOM     21  C   UNL     1      36.868 -24.576 -13.622  0.00  0.00    +0.053 C 
ATOM     22  C   UNL     1      36.452 -24.311 -12.327  0.00  0.00    +0.016 C 
ATOM     23  C   UNL     1      38.185 -24.904 -13.903  0.00  0.00    +0.004 C 
ATOM     24  C   UNL     1      37.378 -24.375 -11.285  0.00  0.00    +0.130 C 
ATOM     25  C   UNL     1      35.030 -23.958 -12.031  0.00  0.00    +0.034 C 
ATOM     26  C   UNL     1      39.111 -24.968 -12.861  0.00  0.00    +0.003 C 
ATOM     27  C   UNL     1      38.707 -24.703 -11.552  0.00  0.00    +0.036 C 
BRANCH  24  28
ATOM     28  O   UNL     1      37.003 -24.119 -10.000  0.00  0.00    -0.506 OA
ATOM     29  H   UNL     1      37.421 -23.433  -9.518  0.00  0.00    +0.292 HD
ENDBRANCH  24  28
ENDBRANCH  19  21
ENDBRANCH   2  18
TORSDOF 4
ENDMDL
MODEL 8
REMARK VINA RESULT:      -9.5      2.895      6.717
REMARK  Name = 6852140
REMARK  4 active torsions:
REMARK  status: ('A' for Active; 'I' for Inactive)
REMARK    1  A    between atoms: C_2  and  N_18
REMARK    2  A    between atoms: C_5  and  C_13
REMARK    3  A    between atoms: C_19  and  C_21
REMARK    4  A    between atoms: C_24  and  O_28
REMARK                            x       y       z     vdW  Elec       q    Type
REMARK                         _______ _______ _______ _____ _____    ______ ____
ROOT
ATOM      1  C   UNL     1      35.268 -22.839 -15.777  0.00  0.00    +0.014 C 
ATOM      2  C   UNL     1      34.473 -23.495 -14.822  0.00  0.00    +0.050 C 
ATOM      3  C   UNL     1      36.646 -22.649 -15.517  0.00  0.00    +0.001 C 
ATOM      4  C   UNL     1      34.725 -22.366 -16.983  0.00  0.00    +0.004 C 
ATOM      5  C   UNL     1      35.530 -21.717 -17.919  0.00  0.00    +0.031 C 
ATOM      6  C   UNL     1      37.442 -21.994 -16.472  0.00  0.00    +0.000 C 
ATOM      7  C   UNL     1      35.029 -23.957 -13.629  0.00  0.00    +0.015 C 
ATOM      8  C   UNL     1      37.189 -23.123 -14.311  0.00  0.00    +0.000 C 
ATOM      9  C   UNL     1      36.885 -21.532 -17.665  0.00  0.00    +0.003 C 
ATOM     10  C   UNL     1      36.384 -23.771 -13.374  0.00  0.00    +0.001 C 
ENDROOT
BRANCH   5  13
ATOM     11  N   UNL     1      35.738 -20.609 -20.132  0.00  0.00    -0.343 N 
ATOM     12  N   UNL     1      33.660 -21.378 -19.390  0.00  0.00    -0.285 NA
ATOM     13  C   UNL     1      34.953 -21.233 -19.164  0.00  0.00    +0.117 C 
ATOM     14  H   UNL     1      35.327 -20.289 -20.967  0.00  0.00    +0.144 HD
ATOM     15  H   UNL     1      36.704 -20.489 -19.981  0.00  0.00    +0.144 HD
ATOM     16  H   UNL     1      33.268 -21.052 -20.233  0.00  0.00    +0.188 HD
ENDBRANCH   5  13
BRANCH   2  18
ATOM     17  O   UNL     1      32.203 -22.012 -13.707  0.00  0.00    -0.270 OA
ATOM     18  N   UNL     1      33.103 -23.709 -15.024  0.00  0.00    -0.280 N 
ATOM     19  C   UNL     1      32.063 -22.969 -14.465  0.00  0.00    +0.249 C 
ATOM     20  H   UNL     1      32.852 -24.454 -15.617  0.00  0.00    +0.155 HD
BRANCH  19  21
ATOM     21  C   UNL     1      30.718 -23.459 -14.820  0.00  0.00    +0.053 C 
ATOM     22  C   UNL     1      30.118 -24.468 -14.082  0.00  0.00    +0.016 C 
ATOM     23  C   UNL     1      30.078 -22.883 -15.906  0.00  0.00    +0.004 C 
ATOM     24  C   UNL     1      28.846 -24.912 -14.441  0.00  0.00    +0.130 C 
ATOM     25  C   UNL     1      30.814 -25.084 -12.911  0.00  0.00    +0.034 C 
ATOM     26  C   UNL     1      28.806 -23.328 -16.265  0.00  0.00    +0.003 C 
ATOM     27  C   UNL     1      28.189 -24.342 -15.532  0.00  0.00    +0.036 C 
BRANCH  24  28
ATOM     28  O   UNL     1      28.227 -25.902 -13.737  0.00  0.00    -0.506 OA
ATOM     29  H   UNL     1      27.472 -26.327 -14.094  0.00  0.00    +0.292 HD
ENDBRANCH  24  28
ENDBRANCH  19  21
ENDBRANCH   2  18
TORSDOF 4
ENDMDL
MODEL 9
REMARK VINA RESULT:      -9.5      3.092      5.754
REMARK  Name = 6852140
REMARK  4 active torsions:
REMARK  status: ('A' for Active; 'I' for Inactive)
REMARK    1  A    between atoms: C_2  and  N_18
REMARK    2  A    between atoms: C_5  and  C_13
REMARK    3  A    between atoms: C_19  and  C_21
REMARK    4  A    between atoms: C_24  and  O_28
REMARK                            x       y       z     vdW  Elec       q    Type
REMARK                         _______ _______ _______ _____ _____    ______ ____
ROOT
ATOM      1  C   UNL     1      35.727 -23.935 -14.120  0.00  0.00    +0.014 C 
ATOM      2  C   UNL     1      34.746 -23.160 -14.762  0.00  0.00    +0.050 C 
ATOM      3  C   UNL     1      35.389 -24.638 -12.939  0.00  0.00    +0.001 C 
ATOM      4  C   UNL     1      37.035 -24.025 -14.622  0.00  0.00    +0.004 C 
ATOM      5  C   UNL     1      37.996 -24.798 -13.971  0.00  0.00    +0.031 C 
ATOM      6  C   UNL     1      36.369 -25.412 -12.296  0.00  0.00    +0.000 C 
ATOM      7  C   UNL     1      33.452 -23.081 -14.248  0.00  0.00    +0.015 C 
ATOM      8  C   UNL     1      34.080 -24.547 -12.436  0.00  0.00    +0.000 C 
ATOM      9  C   UNL     1      37.664 -25.491 -12.811  0.00  0.00    +0.003 C 
ATOM     10  C   UNL     1      33.120 -23.773 -13.087  0.00  0.00    +0.001 C 
ENDROOT
BRANCH   5  13
ATOM     11  N   UNL     1      40.225 -25.885 -14.096  0.00  0.00    -0.343 N 
ATOM     12  N   UNL     1      39.761 -23.995 -15.389  0.00  0.00    -0.285 NA
ATOM     13  C   UNL     1      39.346 -24.883 -14.504  0.00  0.00    +0.117 C 
ATOM     14  H   UNL     1      41.135 -25.924 -14.470  0.00  0.00    +0.144 HD
ATOM     15  H   UNL     1      39.936 -26.555 -13.435  0.00  0.00    +0.144 HD
ATOM     16  H   UNL     1      40.675 -24.051 -15.751  0.00  0.00    +0.188 HD
ENDBRANCH   5  13
BRANCH   2  18
ATOM     17  O   UNL     1      33.804 -23.673 -17.491  0.00  0.00    -0.270 OA
ATOM     18  N   UNL     1      35.023 -22.442 -15.933  0.00  0.00    -0.280 N 
ATOM     19  C   UNL     1      34.544 -22.734 -17.209  0.00  0.00    +0.249 C 
ATOM     20  H   UNL     1      35.611 -21.657 -15.846  0.00  0.00    +0.155 HD
BRANCH  19  21
ATOM     21  C   UNL     1      35.045 -21.828 -18.260  0.00  0.00    +0.053 C 
ATOM     22  C   UNL     1      34.165 -21.177 -19.110  0.00  0.00    +0.016 C 
ATOM     23  C   UNL     1      36.416 -21.648 -18.368  0.00  0.00    +0.004 C 
ATOM     24  C   UNL     1      34.667 -20.326 -20.094  0.00  0.00    +0.130 C 
ATOM     25  C   UNL     1      32.688 -21.375 -18.987  0.00  0.00    +0.034 C 
ATOM     26  C   UNL     1      36.918 -20.797 -19.352  0.00  0.00    +0.003 C 
ATOM     27  C   UNL     1      36.044 -20.136 -20.216  0.00  0.00    +0.036 C 
BRANCH  24  28
ATOM     28  O   UNL     1      33.829 -19.671 -20.946  0.00  0.00    -0.506 OA
ATOM     29  H   UNL     1      33.581 -18.786 -20.769  0.00  0.00    +0.292 HD
ENDBRANCH  24  28
ENDBRANCH  19  21
ENDBRANCH   2  18
TORSDOF 4
ENDMDL
