MODEL 1
REMARK VINA RESULT:     -12.8      0.000      0.000
REMARK  Name = 16040279
REMARK  5 active torsions:
REMARK  status: ('A' for Active; 'I' for Inactive)
REMARK    1  A    between atoms: N_2  and  C_21
REMARK    2  A    between atoms: C_3  and  C_11
REMARK    3  A    between atoms: C_4  and  N_17
REMARK    4  A    between atoms: C_21  and  C_22
REMARK    5  A    between atoms: C_22  and  C_25
REMARK                            x       y       z     vdW  Elec       q    Type
REMARK                         _______ _______ _______ _____ _____    ______ ____
ROOT
ATOM      1  O   UNL     1      34.146 -17.185 -24.963  0.00  0.00    -0.275 OA
ATOM      2  N   UNL     1      34.981 -17.006 -22.804  0.00  0.00    -0.281 N 
ATOM      3  C   UNL     1      33.783 -14.402 -22.600  0.00  0.00    +0.015 C 
ATOM      4  C   UNL     1      34.951 -14.768 -21.667  0.00  0.00    -0.041 C 
ATOM      5  C   UNL     1      35.006 -16.288 -21.532  0.00  0.00    +0.072 C 
ATOM      6  C   UNL     1      34.044 -15.031 -23.972  0.00  0.00    +0.088 C 
ATOM      7  C   UNL     1      34.363 -16.514 -23.951  0.00  0.00    +0.226 C 
ENDROOT
BRANCH   3  11
ATOM      8  F   UNL     1      31.882 -12.972 -21.052  0.00  0.00    -0.204 F 
ATOM      9  F   UNL     1      34.758 -10.107 -24.717  0.00  0.00    -0.202 F 
ATOM     10  F   UNL     1      32.892  -8.857 -23.158  0.00  0.00    -0.202 F 
ATOM     11  C   UNL     1      33.541 -12.908 -22.749  0.00  0.00    +0.006 C 
ATOM     12  C   UNL     1      32.590 -12.277 -21.953  0.00  0.00    +0.138 C 
ATOM     13  C   UNL     1      34.274 -12.182 -23.682  0.00  0.00    +0.030 C 
ATOM     14  C   UNL     1      34.055 -10.810 -23.821  0.00  0.00    +0.167 C 
ATOM     15  C   UNL     1      32.370 -10.906 -22.091  0.00  0.00    +0.061 C 
ATOM     16  C   UNL     1      33.103 -10.173 -23.026  0.00  0.00    +0.170 C 
ENDBRANCH   3  11
BRANCH   4  17
ATOM     17  N   UNL     1      34.788 -14.191 -20.330  0.00  0.00    +0.383 N 
ATOM     18  H   UNL     1      34.649 -13.184 -20.409  0.00  0.00    -0.089 HD
ATOM     19  H   UNL     1      35.625 -14.376 -19.776  0.00  0.00    -0.089 HD
ATOM     20  H   UNL     1      33.978 -14.612 -19.874  0.00  0.00    -0.089 HD
ENDBRANCH   4  17
BRANCH   2  21
ATOM     21  C   UNL     1      35.399 -18.401 -22.755  0.00  0.00    +0.098 C 
BRANCH  21  22
ATOM     22  C   UNL     1      35.980 -18.791 -21.398  0.00  0.00    +0.048 C 
BRANCH  22  25
ATOM     23  O   UNL     1      35.101 -22.412 -18.158  0.00  0.00    -0.435 OA
ATOM     24  O   UNL     1      32.713 -22.210 -18.404  0.00  0.00    -0.435 OA
ATOM     25  C   UNL     1      35.070 -19.696 -20.606  0.00  0.00    -0.017 C 
ATOM     26  C   UNL     1      35.627 -20.633 -19.746  0.00  0.00    +0.036 C 
ATOM     27  C   UNL     1      33.686 -19.569 -20.759  0.00  0.00    -0.001 C 
ATOM     28  C   UNL     1      34.754 -21.439 -19.043  0.00  0.00    +0.176 C 
ATOM     29  C   UNL     1      33.390 -21.323 -19.184  0.00  0.00    +0.176 C 
ATOM     30  C   UNL     1      32.824 -20.396 -20.035  0.00  0.00    +0.040 C 
ATOM     31  C   UNL     1      33.803 -22.896 -17.757  0.00  0.00    +0.429 C 
ENDBRANCH  22  25
ENDBRANCH  21  22
ENDBRANCH   2  21
TORSDOF 5
ENDMDL
MODEL 2
REMARK VINA RESULT:     -12.4      1.647      2.776
REMARK  Name = 16040279
REMARK  5 active torsions:
REMARK  status: ('A' for Active; 'I' for Inactive)
REMARK    1  A    between atoms: N_2  and  C_21
REMARK    2  A    between atoms: C_3  and  C_11
REMARK    3  A    between atoms: C_4  and  N_17
REMARK    4  A    between atoms: C_21  and  C_22
REMARK    5  A    between atoms: C_22  and  C_25
REMARK                            x       y       z     vdW  Elec       q    Type
REMARK                         _______ _______ _______ _____ _____    ______ ____
ROOT
ATOM      1  O   UNL     1      35.255 -15.987 -19.618  0.00  0.00    -0.275 OA
ATOM      2  N   UNL     1      34.927 -16.339 -21.888  0.00  0.00    -0.281 N 
ATOM      3  C   UNL     1      34.149 -13.586 -22.162  0.00  0.00    +0.015 C 
ATOM      4  C   UNL     1      33.702 -14.604 -23.228  0.00  0.00    -0.041 C 
ATOM      5  C   UNL     1      34.677 -15.779 -23.215  0.00  0.00    +0.072 C 
ATOM      6  C   UNL     1      34.111 -14.271 -20.793  0.00  0.00    +0.088 C 
ATOM      7  C   UNL     1      34.846 -15.595 -20.714  0.00  0.00    +0.226 C 
ENDROOT
BRANCH   3  11
ATOM      8  F   UNL     1      34.751 -11.308 -23.744  0.00  0.00    -0.204 F 
ATOM      9  F   UNL     1      30.394 -10.966 -20.456  0.00  0.00    -0.202 F 
ATOM     10  F   UNL     1      31.090  -8.845 -22.035  0.00  0.00    -0.202 F 
ATOM     11  C   UNL     1      33.327 -12.308 -22.130  0.00  0.00    +0.006 C 
ATOM     12  C   UNL     1      33.685 -11.231 -22.936  0.00  0.00    +0.138 C 
ATOM     13  C   UNL     1      32.219 -12.224 -21.292  0.00  0.00    +0.030 C 
ATOM     14  C   UNL     1      31.461 -11.052 -21.260  0.00  0.00    +0.167 C 
ATOM     15  C   UNL     1      32.928 -10.059 -22.903  0.00  0.00    +0.061 C 
ATOM     16  C   UNL     1      31.816  -9.970 -22.065  0.00  0.00    +0.170 C 
ENDBRANCH   3  11
BRANCH   4  17
ATOM     17  N   UNL     1      33.696 -14.024 -24.573  0.00  0.00    +0.383 N 
ATOM     18  H   UNL     1      33.259 -13.103 -24.544  0.00  0.00    -0.089 HD
ATOM     19  H   UNL     1      33.169 -14.632 -25.202  0.00  0.00    -0.089 HD
ATOM     20  H   UNL     1      34.655 -13.936 -24.911  0.00  0.00    -0.089 HD
ENDBRANCH   4  17
BRANCH   2  21
ATOM     21  C   UNL     1      35.536 -17.662 -21.861  0.00  0.00    +0.098 C 
BRANCH  21  22
ATOM     22  C   UNL     1      34.504 -18.785 -21.942  0.00  0.00    +0.048 C 
BRANCH  22  25
ATOM     23  O   UNL     1      32.630 -21.884 -18.586  0.00  0.00    -0.435 OA
ATOM     24  O   UNL     1      34.810 -22.479 -17.749  0.00  0.00    -0.435 OA
ATOM     25  C   UNL     1      34.623 -19.778 -20.813  0.00  0.00    -0.017 C 
ATOM     26  C   UNL     1      33.470 -20.333 -20.275  0.00  0.00    +0.036 C 
ATOM     27  C   UNL     1      35.894 -20.113 -20.337  0.00  0.00    -0.001 C 
ATOM     28  C   UNL     1      33.630 -21.236 -19.243  0.00  0.00    +0.176 C 
ATOM     29  C   UNL     1      34.876 -21.576 -18.765  0.00  0.00    +0.176 C 
ATOM     30  C   UNL     1      36.029 -21.031 -19.292  0.00  0.00    +0.040 C 
ATOM     31  C   UNL     1      33.386 -22.670 -17.642  0.00  0.00    +0.429 C 
ENDBRANCH  22  25
ENDBRANCH  21  22
ENDBRANCH   2  21
TORSDOF 5
ENDMDL
MODEL 3
REMARK VINA RESULT:     -12.1      1.317      2.081
REMARK  Name = 16040279
REMARK  5 active torsions:
REMARK  status: ('A' for Active; 'I' for Inactive)
REMARK    1  A    between atoms: N_2  and  C_21
REMARK    2  A    between atoms: C_3  and  C_11
REMARK    3  A    between atoms: C_4  and  N_17
REMARK    4  A    between atoms: C_21  and  C_22
REMARK    5  A    between atoms: C_22  and  C_25
REMARK                            x       y       z     vdW  Elec       q    Type
REMARK                         _______ _______ _______ _____ _____    ______ ____
ROOT
ATOM      1  O   UNL     1      33.363 -15.697 -25.503  0.00  0.00    -0.275 OA
ATOM      2  N   UNL     1      34.587 -15.862 -23.538  0.00  0.00    -0.281 N 
ATOM      3  C   UNL     1      33.214 -13.545 -22.535  0.00  0.00    +0.015 C 
ATOM      4  C   UNL     1      34.572 -13.937 -21.926  0.00  0.00    -0.041 C 
ATOM      5  C   UNL     1      34.796 -15.430 -22.157  0.00  0.00    +0.072 C 
ATOM      6  C   UNL     1      33.256 -13.832 -24.038  0.00  0.00    +0.088 C 
ATOM      7  C   UNL     1      33.711 -15.229 -24.415  0.00  0.00    +0.226 C 
ENDROOT
BRANCH   3  11
ATOM      8  F   UNL     1      31.371 -12.767 -20.522  0.00  0.00    -0.204 F 
ATOM      9  F   UNL     1      33.503  -8.788 -23.610  0.00  0.00    -0.202 F 
ATOM     10  F   UNL     1      31.713  -8.180 -21.634  0.00  0.00    -0.202 F 
ATOM     11  C   UNL     1      32.808 -12.101 -22.290  0.00  0.00    +0.006 C 
ATOM     12  C   UNL     1      31.897 -11.797 -21.283  0.00  0.00    +0.138 C 
ATOM     13  C   UNL     1      33.352 -11.090 -23.078  0.00  0.00    +0.030 C 
ATOM     14  C   UNL     1      32.982  -9.763 -22.856  0.00  0.00    +0.167 C 
ATOM     15  C   UNL     1      31.526 -10.470 -21.061  0.00  0.00    +0.061 C 
ATOM     16  C   UNL     1      32.069  -9.454 -21.848  0.00  0.00    +0.170 C 
ENDBRANCH   3  11
BRANCH   4  17
ATOM     17  N   UNL     1      34.623 -13.680 -20.485  0.00  0.00    +0.383 N 
ATOM     18  H   UNL     1      35.472 -13.161 -20.261  0.00  0.00    -0.089 HD
ATOM     19  H   UNL     1      34.626 -14.569 -19.981  0.00  0.00    -0.089 HD
ATOM     20  H   UNL     1      33.808 -13.134 -20.207  0.00  0.00    -0.089 HD
ENDBRANCH   4  17
BRANCH   2  21
ATOM     21  C   UNL     1      35.136 -17.167 -23.885  0.00  0.00    +0.098 C 
BRANCH  21  22
ATOM     22  C   UNL     1      34.345 -18.318 -23.268  0.00  0.00    +0.048 C 
BRANCH  22  25
ATOM     23  O   UNL     1      34.518 -21.321 -19.353  0.00  0.00    -0.435 OA
ATOM     24  O   UNL     1      36.756 -20.634 -18.780  0.00  0.00    -0.435 OA
ATOM     25  C   UNL     1      35.025 -18.923 -22.065  0.00  0.00    -0.017 C 
ATOM     26  C   UNL     1      34.346 -19.867 -21.307  0.00  0.00    +0.036 C 
ATOM     27  C   UNL     1      36.322 -18.514 -21.744  0.00  0.00    -0.001 C 
ATOM     28  C   UNL     1      35.010 -20.391 -20.216  0.00  0.00    +0.176 C 
ATOM     29  C   UNL     1      36.288 -19.998 -19.888  0.00  0.00    +0.176 C 
ATOM     30  C   UNL     1      36.972 -19.061 -20.634  0.00  0.00    +0.040 C 
ATOM     31  C   UNL     1      35.630 -21.470 -18.446  0.00  0.00    +0.429 C 
ENDBRANCH  22  25
ENDBRANCH  21  22
ENDBRANCH   2  21
TORSDOF 5
ENDMDL
MODEL 4
REMARK VINA RESULT:     -12.0      4.236      7.134
REMARK  Name = 16040279
REMARK  5 active torsions:
REMARK  status: ('A' for Active; 'I' for Inactive)
REMARK    1  A    between atoms: N_2  and  C_21
REMARK    2  A    between atoms: C_3  and  C_11
REMARK    3  A    between atoms: C_4  and  N_17
REMARK    4  A    between atoms: C_21  and  C_22
REMARK    5  A    between atoms: C_22  and  C_25
REMARK                            x       y       z     vdW  Elec       q    Type
REMARK                         _______ _______ _______ _____ _____    ______ ____
ROOT
ATOM      1  O   UNL     1      32.310 -21.921 -18.389  0.00  0.00    -0.275 OA
ATOM      2  N   UNL     1      34.622 -21.989 -18.192  0.00  0.00    -0.281 N 
ATOM      3  C   UNL     1      34.798 -19.712 -19.936  0.00  0.00    +0.015 C 
ATOM      4  C   UNL     1      36.022 -20.631 -19.773  0.00  0.00    -0.041 C 
ATOM      5  C   UNL     1      35.914 -21.349 -18.430  0.00  0.00    +0.072 C 
ATOM      6  C   UNL     1      33.536 -20.578 -19.915  0.00  0.00    +0.088 C 
ATOM      7  C   UNL     1      33.427 -21.532 -18.741  0.00  0.00    +0.226 C 
ENDROOT
BRANCH   3  11
ATOM      8  F   UNL     1      35.596 -16.988 -19.938  0.00  0.00    -0.204 F 
ATOM      9  F   UNL     1      34.086 -19.137 -24.736  0.00  0.00    -0.202 F 
ATOM     10  F   UNL     1      34.878 -16.524 -24.592  0.00  0.00    -0.202 F 
ATOM     11  C   UNL     1      34.820 -18.851 -21.189  0.00  0.00    +0.006 C 
ATOM     12  C   UNL     1      35.224 -17.521 -21.110  0.00  0.00    +0.138 C 
ATOM     13  C   UNL     1      34.435 -19.400 -22.408  0.00  0.00    +0.030 C 
ATOM     14  C   UNL     1      34.455 -18.613 -23.560  0.00  0.00    +0.167 C 
ATOM     15  C   UNL     1      35.243 -16.733 -22.262  0.00  0.00    +0.061 C 
ATOM     16  C   UNL     1      34.859 -17.280 -23.486  0.00  0.00    +0.170 C 
ENDBRANCH   3  11
BRANCH   4  17
ATOM     17  N   UNL     1      37.280 -19.881 -19.796  0.00  0.00    +0.383 N 
ATOM     18  H   UNL     1      37.148 -19.010 -20.310  0.00  0.00    -0.089 HD
ATOM     19  H   UNL     1      38.001 -20.441 -20.253  0.00  0.00    -0.089 HD
ATOM     20  H   UNL     1      37.569 -19.671 -18.840  0.00  0.00    -0.089 HD
ENDBRANCH   4  17
BRANCH   2  21
ATOM     21  C   UNL     1      34.590 -22.979 -17.123  0.00  0.00    +0.098 C 
BRANCH  21  22
ATOM     22  C   UNL     1      35.260 -22.482 -15.844  0.00  0.00    +0.048 C 
BRANCH  22  25
ATOM     23  O   UNL     1      39.570 -24.359 -14.334  0.00  0.00    -0.435 OA
ATOM     24  O   UNL     1      38.522 -26.317 -13.398  0.00  0.00    -0.435 OA
ATOM     25  C   UNL     1      36.109 -23.536 -15.177  0.00  0.00    -0.017 C 
ATOM     26  C   UNL     1      37.484 -23.357 -15.114  0.00  0.00    +0.036 C 
ATOM     27  C   UNL     1      35.488 -24.666 -14.639  0.00  0.00    -0.001 C 
ATOM     28  C   UNL     1      38.219 -24.348 -14.495  0.00  0.00    +0.176 C 
ATOM     29  C   UNL     1      37.620 -25.467 -13.961  0.00  0.00    +0.176 C 
ATOM     30  C   UNL     1      36.254 -25.655 -14.017  0.00  0.00    +0.040 C 
ATOM     31  C   UNL     1      39.755 -25.609 -13.638  0.00  0.00    +0.429 C 
ENDBRANCH  22  25
ENDBRANCH  21  22
ENDBRANCH   2  21
TORSDOF 5
ENDMDL
MODEL 5
REMARK VINA RESULT:     -11.9      3.708      6.002
REMARK  Name = 16040279
REMARK  5 active torsions:
REMARK  status: ('A' for Active; 'I' for Inactive)
REMARK    1  A    between atoms: N_2  and  C_21
REMARK    2  A    between atoms: C_3  and  C_11
REMARK    3  A    between atoms: C_4  and  N_17
REMARK    4  A    between atoms: C_21  and  C_22
REMARK    5  A    between atoms: C_22  and  C_25
REMARK                            x       y       z     vdW  Elec       q    Type
REMARK                         _______ _______ _______ _____ _____    ______ ____
ROOT
ATOM      1  O   UNL     1      32.914 -21.083 -19.154  0.00  0.00    -0.275 OA
ATOM      2  N   UNL     1      35.233 -21.036 -19.230  0.00  0.00    -0.281 N 
ATOM      3  C   UNL     1      35.091 -18.683 -20.874  0.00  0.00    +0.015 C 
ATOM      4  C   UNL     1      36.369 -19.542 -20.898  0.00  0.00    -0.041 C 
ATOM      5  C   UNL     1      36.456 -20.319 -19.587  0.00  0.00    +0.072 C 
ATOM      6  C   UNL     1      33.883 -19.615 -20.748  0.00  0.00    +0.088 C 
ATOM      7  C   UNL     1      33.961 -20.621 -19.615  0.00  0.00    +0.226 C 
ENDROOT
BRANCH   3  11
ATOM      8  F   UNL     1      34.506 -19.641 -23.481  0.00  0.00    -0.204 F 
ATOM      9  F   UNL     1      35.031 -14.230 -22.885  0.00  0.00    -0.202 F 
ATOM     10  F   UNL     1      34.469 -15.291 -25.341  0.00  0.00    -0.202 F 
ATOM     11  C   UNL     1      34.923 -17.772 -22.079  0.00  0.00    +0.006 C 
ATOM     12  C   UNL     1      34.637 -18.316 -23.327  0.00  0.00    +0.138 C 
ATOM     13  C   UNL     1      35.058 -16.395 -21.925  0.00  0.00    +0.030 C 
ATOM     14  C   UNL     1      34.904 -15.555 -23.028  0.00  0.00    +0.167 C 
ATOM     15  C   UNL     1      34.484 -17.477 -24.431  0.00  0.00    +0.061 C 
ATOM     16  C   UNL     1      34.617 -16.096 -24.281  0.00  0.00    +0.170 C 
ENDBRANCH   3  11
BRANCH   4  17
ATOM     17  N   UNL     1      37.578 -18.725 -21.032  0.00  0.00    +0.383 N 
ATOM     18  H   UNL     1      38.012 -18.907 -21.937  0.00  0.00    -0.089 HD
ATOM     19  H   UNL     1      38.233 -18.964 -20.286  0.00  0.00    -0.089 HD
ATOM     20  H   UNL     1      37.331 -17.738 -20.965  0.00  0.00    -0.089 HD
ENDBRANCH   4  17
BRANCH   2  21
ATOM     21  C   UNL     1      35.376 -22.069 -18.213  0.00  0.00    +0.098 C 
BRANCH  21  22
ATOM     22  C   UNL     1      36.453 -21.733 -17.184  0.00  0.00    +0.048 C 
BRANCH  22  25
ATOM     23  O   UNL     1      38.287 -24.002 -13.200  0.00  0.00    -0.435 OA
ATOM     24  O   UNL     1      36.106 -24.700 -12.450  0.00  0.00    -0.435 OA
ATOM     25  C   UNL     1      36.323 -22.534 -15.912  0.00  0.00    -0.017 C 
ATOM     26  C   UNL     1      37.467 -22.855 -15.194  0.00  0.00    +0.036 C 
ATOM     27  C   UNL     1      35.052 -22.933 -15.489  0.00  0.00    -0.001 C 
ATOM     28  C   UNL     1      37.297 -23.589 -14.037  0.00  0.00    +0.176 C 
ATOM     29  C   UNL     1      36.051 -23.988 -13.609  0.00  0.00    +0.176 C 
ATOM     30  C   UNL     1      34.907 -23.675 -14.315  0.00  0.00    +0.040 C 
ATOM     31  C   UNL     1      37.525 -24.704 -12.197  0.00  0.00    +0.429 C 
ENDBRANCH  22  25
ENDBRANCH  21  22
ENDBRANCH   2  21
TORSDOF 5
ENDMDL
MODEL 6
REMARK VINA RESULT:     -11.9      4.099      6.823
REMARK  Name = 16040279
REMARK  5 active torsions:
REMARK  status: ('A' for Active; 'I' for Inactive)
REMARK    1  A    between atoms: N_2  and  C_21
REMARK    2  A    between atoms: C_3  and  C_11
REMARK    3  A    between atoms: C_4  and  N_17
REMARK    4  A    between atoms: C_21  and  C_22
REMARK    5  A    between atoms: C_22  and  C_25
REMARK                            x       y       z     vdW  Elec       q    Type
REMARK                         _______ _______ _______ _____ _____    ______ ____
ROOT
ATOM      1  O   UNL     1      36.723 -22.151 -18.029  0.00  0.00    -0.275 OA
ATOM      2  N   UNL     1      34.423 -22.163 -18.340  0.00  0.00    -0.281 N 
ATOM      3  C   UNL     1      34.739 -20.241 -20.453  0.00  0.00    +0.015 C 
ATOM      4  C   UNL     1      33.374 -20.372 -19.754  0.00  0.00    -0.041 C 
ATOM      5  C   UNL     1      33.271 -21.770 -19.149  0.00  0.00    +0.072 C 
ATOM      6  C   UNL     1      35.840 -20.431 -19.406  0.00  0.00    +0.088 C 
ATOM      7  C   UNL     1      35.711 -21.680 -18.555  0.00  0.00    +0.226 C 
ENDROOT
BRANCH   3  11
ATOM      8  F   UNL     1      34.956 -20.064 -23.277  0.00  0.00    -0.204 F 
ATOM      9  F   UNL     1      35.304 -15.387 -20.462  0.00  0.00    -0.202 F 
ATOM     10  F   UNL     1      35.497 -15.363 -23.189  0.00  0.00    -0.202 F 
ATOM     11  C   UNL     1      34.944 -18.928 -21.192  0.00  0.00    +0.006 C 
ATOM     12  C   UNL     1      35.041 -18.921 -22.581  0.00  0.00    +0.138 C 
ATOM     13  C   UNL     1      35.032 -17.740 -20.474  0.00  0.00    +0.030 C 
ATOM     14  C   UNL     1      35.219 -16.533 -21.149  0.00  0.00    +0.167 C 
ATOM     15  C   UNL     1      35.229 -17.715 -23.257  0.00  0.00    +0.061 C 
ATOM     16  C   UNL     1      35.318 -16.521 -22.540  0.00  0.00    +0.170 C 
ENDBRANCH   3  11
BRANCH   4  17
ATOM     17  N   UNL     1      32.259 -20.188 -20.685  0.00  0.00    +0.383 N 
ATOM     18  H   UNL     1      31.422 -20.629 -20.305  0.00  0.00    -0.089 HD
ATOM     19  H   UNL     1      32.492 -20.617 -21.583  0.00  0.00    -0.089 HD
ATOM     20  H   UNL     1      32.088 -19.191 -20.819  0.00  0.00    -0.089 HD
ENDBRANCH   4  17
BRANCH   2  21
ATOM     21  C   UNL     1      34.220 -23.303 -17.455  0.00  0.00    +0.098 C 
BRANCH  21  22
ATOM     22  C   UNL     1      33.902 -22.882 -16.022  0.00  0.00    +0.048 C 
BRANCH  22  25
ATOM     23  O   UNL     1      29.019 -22.533 -16.664  0.00  0.00    -0.435 OA
ATOM     24  O   UNL     1      28.550 -23.826 -14.685  0.00  0.00    -0.435 OA
ATOM     25  C   UNL     1      32.470 -23.156 -15.632  0.00  0.00    -0.017 C 
ATOM     26  C   UNL     1      31.446 -22.657 -16.424  0.00  0.00    +0.036 C 
ATOM     27  C   UNL     1      32.213 -23.906 -14.481  0.00  0.00    -0.001 C 
ATOM     28  C   UNL     1      30.153 -22.932 -16.027  0.00  0.00    +0.176 C 
ATOM     29  C   UNL     1      29.885 -23.670 -14.896  0.00  0.00    +0.176 C 
ATOM     30  C   UNL     1      30.895 -24.172 -14.101  0.00  0.00    +0.040 C 
ATOM     31  C   UNL     1      28.007 -23.103 -15.809  0.00  0.00    +0.429 C 
ENDBRANCH  22  25
ENDBRANCH  21  22
ENDBRANCH   2  21
TORSDOF 5
ENDMDL
MODEL 7
REMARK VINA RESULT:     -11.8      3.780      6.385
REMARK  Name = 16040279
REMARK  5 active torsions:
REMARK  status: ('A' for Active; 'I' for Inactive)
REMARK    1  A    between atoms: N_2  and  C_21
REMARK    2  A    between atoms: C_3  and  C_11
REMARK    3  A    between atoms: C_4  and  N_17
REMARK    4  A    between atoms: C_21  and  C_22
REMARK    5  A    between atoms: C_22  and  C_25
REMARK                            x       y       z     vdW  Elec       q    Type
REMARK                         _______ _______ _______ _____ _____    ______ ____
ROOT
ATOM      1  O   UNL     1      32.445 -21.630 -18.911  0.00  0.00    -0.275 OA
ATOM      2  N   UNL     1      34.762 -21.716 -18.800  0.00  0.00    -0.281 N 
ATOM      3  C   UNL     1      34.885 -19.259 -20.286  0.00  0.00    +0.015 C 
ATOM      4  C   UNL     1      36.111 -20.188 -20.267  0.00  0.00    -0.041 C 
ATOM      5  C   UNL     1      36.047 -21.051 -19.009  0.00  0.00    +0.072 C 
ATOM      6  C   UNL     1      33.622 -20.124 -20.319  0.00  0.00    +0.088 C 
ATOM      7  C   UNL     1      33.551 -21.202 -19.255  0.00  0.00    +0.226 C 
ENDROOT
BRANCH   3  11
ATOM      8  F   UNL     1      35.504 -16.507 -19.972  0.00  0.00    -0.204 F 
ATOM      9  F   UNL     1      34.196 -18.199 -25.006  0.00  0.00    -0.202 F 
ATOM     10  F   UNL     1      34.815 -15.574 -24.560  0.00  0.00    -0.202 F 
ATOM     11  C   UNL     1      34.866 -18.264 -21.435  0.00  0.00    +0.006 C 
ATOM     12  C   UNL     1      35.182 -16.929 -21.203  0.00  0.00    +0.138 C 
ATOM     13  C   UNL     1      34.533 -18.697 -22.715  0.00  0.00    +0.030 C 
ATOM     14  C   UNL     1      34.516 -17.787 -23.773  0.00  0.00    +0.167 C 
ATOM     15  C   UNL     1      35.164 -16.018 -22.260  0.00  0.00    +0.061 C 
ATOM     16  C   UNL     1      34.831 -16.448 -23.545  0.00  0.00    +0.170 C 
ENDBRANCH   3  11
BRANCH   4  17
ATOM     17  N   UNL     1      37.369 -19.438 -20.249  0.00  0.00    +0.383 N 
ATOM     18  H   UNL     1      37.242 -18.573 -19.724  0.00  0.00    -0.089 HD
ATOM     19  H   UNL     1      37.648 -19.218 -21.206  0.00  0.00    -0.089 HD
ATOM     20  H   UNL     1      38.095 -20.001 -19.805  0.00  0.00    -0.089 HD
ENDBRANCH   4  17
BRANCH   2  21
ATOM     21  C   UNL     1      34.764 -22.818 -17.847  0.00  0.00    +0.098 C 
BRANCH  21  22
ATOM     22  C   UNL     1      35.148 -22.374 -16.437  0.00  0.00    +0.048 C 
BRANCH  22  25
ATOM     23  O   UNL     1      30.970 -24.225 -14.567  0.00  0.00    -0.435 OA
ATOM     24  O   UNL     1      32.054 -24.919 -12.530  0.00  0.00    -0.435 OA
ATOM     25  C   UNL     1      34.344 -23.063 -15.363  0.00  0.00    -0.017 C 
ATOM     26  C   UNL     1      32.990 -23.286 -15.569  0.00  0.00    +0.036 C 
ATOM     27  C   UNL     1      34.985 -23.459 -14.186  0.00  0.00    -0.001 C 
ATOM     28  C   UNL     1      32.296 -23.919 -14.558  0.00  0.00    +0.176 C 
ATOM     29  C   UNL     1      32.915 -24.315 -13.394  0.00  0.00    +0.176 C 
ATOM     30  C   UNL     1      34.261 -24.099 -13.178  0.00  0.00    +0.040 C 
ATOM     31  C   UNL     1      30.824 -24.858 -13.280  0.00  0.00    +0.429 C 
ENDBRANCH  22  25
ENDBRANCH  21  22
ENDBRANCH   2  21
TORSDOF 5
ENDMDL
MODEL 8
REMARK VINA RESULT:     -11.8      1.506      2.697
REMARK  Name = 16040279
REMARK  5 active torsions:
REMARK  status: ('A' for Active; 'I' for Inactive)
REMARK    1  A    between atoms: N_2  and  C_21
REMARK    2  A    between atoms: C_3  and  C_11
REMARK    3  A    between atoms: C_4  and  N_17
REMARK    4  A    between atoms: C_21  and  C_22
REMARK    5  A    between atoms: C_22  and  C_25
REMARK                            x       y       z     vdW  Elec       q    Type
REMARK                         _______ _______ _______ _____ _____    ______ ____
ROOT
ATOM      1  O   UNL     1      33.234 -15.716 -25.431  0.00  0.00    -0.275 OA
ATOM      2  N   UNL     1      34.565 -15.830 -23.533  0.00  0.00    -0.281 N 
ATOM      3  C   UNL     1      33.141 -13.583 -22.448  0.00  0.00    +0.015 C 
ATOM      4  C   UNL     1      34.546 -13.912 -21.913  0.00  0.00    -0.041 C 
ATOM      5  C   UNL     1      34.826 -15.392 -22.163  0.00  0.00    +0.072 C 
ATOM      6  C   UNL     1      33.118 -13.863 -23.953  0.00  0.00    +0.088 C 
ATOM      7  C   UNL     1      33.616 -15.236 -24.361  0.00  0.00    +0.226 C 
ENDROOT
BRANCH   3  11
ATOM      8  F   UNL     1      34.189 -11.321 -23.806  0.00  0.00    -0.204 F 
ATOM      9  F   UNL     1      30.330 -10.389 -20.043  0.00  0.00    -0.202 F 
ATOM     10  F   UNL     1      31.428  -8.303 -21.427  0.00  0.00    -0.202 F 
ATOM     11  C   UNL     1      32.681 -12.159 -22.175  0.00  0.00    +0.006 C 
ATOM     12  C   UNL     1      33.243 -11.101 -22.882  0.00  0.00    +0.138 C 
ATOM     13  C   UNL     1      31.700 -11.925 -21.217  0.00  0.00    +0.030 C 
ATOM     14  C   UNL     1      31.275 -10.620 -20.963  0.00  0.00    +0.167 C 
ATOM     15  C   UNL     1      32.820  -9.795 -22.629  0.00  0.00    +0.061 C 
ATOM     16  C   UNL     1      31.835  -9.556 -21.670  0.00  0.00    +0.170 C 
ENDBRANCH   3  11
BRANCH   4  17
ATOM     17  N   UNL     1      34.660 -13.658 -20.475  0.00  0.00    +0.383 N 
ATOM     18  H   UNL     1      33.748 -13.782 -20.034  0.00  0.00    -0.089 HD
ATOM     19  H   UNL     1      34.984 -12.701 -20.323  0.00  0.00    -0.089 HD
ATOM     20  H   UNL     1      35.328 -14.312 -20.065  0.00  0.00    -0.089 HD
ENDBRANCH   4  17
BRANCH   2  21
ATOM     21  C   UNL     1      35.155 -17.106 -23.916  0.00  0.00    +0.098 C 
BRANCH  21  22
ATOM     22  C   UNL     1      34.395 -18.299 -23.339  0.00  0.00    +0.048 C 
BRANCH  22  25
ATOM     23  O   UNL     1      34.538 -21.266 -19.395  0.00  0.00    -0.435 OA
ATOM     24  O   UNL     1      36.775 -20.582 -18.816  0.00  0.00    -0.435 OA
ATOM     25  C   UNL     1      35.067 -18.895 -22.126  0.00  0.00    -0.017 C 
ATOM     26  C   UNL     1      34.382 -19.830 -21.363  0.00  0.00    +0.036 C 
ATOM     27  C   UNL     1      36.364 -18.487 -21.802  0.00  0.00    -0.001 C 
ATOM     28  C   UNL     1      35.037 -20.346 -20.264  0.00  0.00    +0.176 C 
ATOM     29  C   UNL     1      36.315 -19.954 -19.933  0.00  0.00    +0.176 C 
ATOM     30  C   UNL     1      37.006 -19.025 -20.684  0.00  0.00    +0.040 C 
ATOM     31  C   UNL     1      35.645 -21.411 -18.481  0.00  0.00    +0.429 C 
ENDBRANCH  22  25
ENDBRANCH  21  22
ENDBRANCH   2  21
TORSDOF 5
ENDMDL
MODEL 9
REMARK VINA RESULT:     -11.5      4.138      9.038
REMARK  Name = 16040279
REMARK  5 active torsions:
REMARK  status: ('A' for Active; 'I' for Inactive)
REMARK    1  A    between atoms: N_2  and  C_21
REMARK    2  A    between atoms: C_3  and  C_11
REMARK    3  A    between atoms: C_4  and  N_17
REMARK    4  A    between atoms: C_21  and  C_22
REMARK    5  A    between atoms: C_22  and  C_25
REMARK                            x       y       z     vdW  Elec       q    Type
REMARK                         _______ _______ _______ _____ _____    ______ ____
ROOT
ATOM      1  O   UNL     1      34.932 -14.897 -20.649  0.00  0.00    -0.275 OA
ATOM      2  N   UNL     1      35.097 -16.077 -22.641  0.00  0.00    -0.281 N 
ATOM      3  C   UNL     1      34.430 -18.486 -21.222  0.00  0.00    +0.015 C 
ATOM      4  C   UNL     1      35.167 -18.586 -22.570  0.00  0.00    -0.041 C 
ATOM      5  C   UNL     1      34.879 -17.321 -23.376  0.00  0.00    +0.072 C 
ATOM      6  C   UNL     1      34.962 -17.264 -20.469  0.00  0.00    +0.088 C 
ATOM      7  C   UNL     1      34.962 -15.969 -21.259  0.00  0.00    +0.226 C 
ENDROOT
BRANCH   3  11
ATOM      8  F   UNL     1      32.179 -19.946 -20.296  0.00  0.00    -0.204 F 
ATOM      9  F   UNL     1      37.112 -21.780 -18.807  0.00  0.00    -0.202 F 
ATOM     10  F   UNL     1      34.857 -23.089 -17.986  0.00  0.00    -0.202 F 
ATOM     11  C   UNL     1      34.542 -19.726 -20.350  0.00  0.00    +0.006 C 
ATOM     12  C   UNL     1      33.391 -20.389 -19.935  0.00  0.00    +0.138 C 
ATOM     13  C   UNL     1      35.799 -20.190 -19.972  0.00  0.00    +0.030 C 
ATOM     14  C   UNL     1      35.906 -21.329 -19.173  0.00  0.00    +0.167 C 
ATOM     15  C   UNL     1      33.498 -21.527 -19.134  0.00  0.00    +0.061 C 
ATOM     16  C   UNL     1      34.755 -21.997 -18.754  0.00  0.00    +0.170 C 
ENDBRANCH   3  11
BRANCH   4  17
ATOM     17  N   UNL     1      34.726 -19.743 -23.353  0.00  0.00    +0.383 N 
ATOM     18  H   UNL     1      35.049 -20.600 -22.905  0.00  0.00    -0.089 HD
ATOM     19  H   UNL     1      35.115 -19.684 -24.295  0.00  0.00    -0.089 HD
ATOM     20  H   UNL     1      33.707 -19.750 -23.406  0.00  0.00    -0.089 HD
ENDBRANCH   4  17
BRANCH   2  21
ATOM     21  C   UNL     1      35.198 -14.870 -23.450  0.00  0.00    +0.098 C 
BRANCH  21  22
ATOM     22  C   UNL     1      33.839 -14.385 -23.952  0.00  0.00    +0.048 C 
BRANCH  22  25
ATOM     23  O   UNL     1      31.532 -11.481 -20.693  0.00  0.00    -0.435 OA
ATOM     24  O   UNL     1      32.314  -9.467 -21.759  0.00  0.00    -0.435 OA
ATOM     25  C   UNL     1      33.448 -13.042 -23.387  0.00  0.00    -0.017 C 
ATOM     26  C   UNL     1      32.641 -12.992 -22.259  0.00  0.00    +0.036 C 
ATOM     27  C   UNL     1      33.908 -11.882 -24.016  0.00  0.00    -0.001 C 
ATOM     28  C   UNL     1      32.309 -11.741 -21.779  0.00  0.00    +0.176 C 
ATOM     29  C   UNL     1      32.755 -10.590 -22.389  0.00  0.00    +0.176 C 
ATOM     30  C   UNL     1      33.557 -10.627 -23.511  0.00  0.00    +0.040 C 
ATOM     31  C   UNL     1      31.540 -10.039 -20.686  0.00  0.00    +0.429 C 
ENDBRANCH  22  25
ENDBRANCH  21  22
ENDBRANCH   2  21
TORSDOF 5
ENDMDL
