MODEL 1
REMARK VINA RESULT:     -13.0      0.000      0.000
REMARK  Name = 10200813
REMARK  4 active torsions:
REMARK  status: ('A' for Active; 'I' for Inactive)
REMARK    1  A    between atoms: C_3  and  C_24
REMARK    2  A    between atoms: C_8  and  C_11
REMARK    3  A    between atoms: N_10  and  C_16
REMARK    4  A    between atoms: C_24  and  C_26
REMARK                            x       y       z     vdW  Elec       q    Type
REMARK                         _______ _______ _______ _____ _____    ______ ____
ROOT
ATOM      1  O   UNL     1      34.941 -17.090 -24.085  0.00  0.00    -0.265 OA
ATOM      2  N   UNL     1      34.793 -15.517 -22.345  0.00  0.00    -0.272 N 
ATOM      3  C   UNL     1      33.215 -13.376 -21.196  0.00  0.00    +0.008 C 
ATOM      4  C   UNL     1      33.085 -13.773 -22.675  0.00  0.00    +0.022 C 
ATOM      5  C   UNL     1      33.670 -14.583 -20.360  0.00  0.00    +0.022 C 
ATOM      6  C   UNL     1      34.377 -14.401 -23.193  0.00  0.00    +0.094 C 
ATOM      7  C   UNL     1      34.950 -15.197 -20.923  0.00  0.00    +0.094 C 
ATOM      8  C   UNL     1      35.051 -16.756 -22.912  0.00  0.00    +0.303 C 
ENDROOT
BRANCH   8  11
ATOM      9  O   UNL     1      36.726 -17.916 -21.831  0.00  0.00    -0.265 OA
ATOM     10  N   UNL     1      34.476 -18.535 -21.435  0.00  0.00    -0.277 N 
ATOM     11  C   UNL     1      35.516 -17.815 -21.988  0.00  0.00    +0.303 C 
ATOM     12  H   UNL     1      33.567 -18.271 -21.710  0.00  0.00    +0.155 HD
BRANCH  10  16
ATOM     13  O   UNL     1      32.528 -21.802 -18.390  0.00  0.00    -0.407 OA
ATOM     14  O   UNL     1      32.657 -23.560 -16.893  0.00  0.00    -0.223 OA
ATOM     15  N   UNL     1      34.585 -22.686 -17.868  0.00  0.00    -0.287 N 
ATOM     16  C   UNL     1      34.569 -19.608 -20.519  0.00  0.00    +0.054 C 
ATOM     17  C   UNL     1      33.405 -20.110 -19.951  0.00  0.00    +0.054 C 
ATOM     18  C   UNL     1      35.834 -20.131 -20.217  0.00  0.00    +0.016 C 
ATOM     19  C   UNL     1      33.551 -21.156 -19.066  0.00  0.00    +0.167 A 
ATOM     20  C   UNL     1      34.792 -21.673 -18.765  0.00  0.00    +0.096 A 
ATOM     21  C   UNL     1      35.959 -21.191 -19.317  0.00  0.00    +0.022 C 
ATOM     22  C   UNL     1      33.221 -22.769 -17.638  0.00  0.00    +0.419 A 
ATOM     23  H   UNL     1      35.278 -23.254 -17.460  0.00  0.00    +0.172 HD
ENDBRANCH  10  16
ENDBRANCH   8  11
BRANCH   3  24
ATOM     24  C   UNL     1      31.897 -12.815 -20.667  0.00  0.00    +0.026 C 
BRANCH  24  26
ATOM     25  F   UNL     1      32.163  -7.250 -19.929  0.00  0.00    -0.204 F 
ATOM     26  C   UNL     1      31.969 -11.326 -20.469  0.00  0.00    -0.022 C 
ATOM     27  C   UNL     1      31.970 -10.806 -19.182  0.00  0.00    -0.002 C 
ATOM     28  C   UNL     1      32.032 -10.491 -21.577  0.00  0.00    -0.002 C 
ATOM     29  C   UNL     1      32.036  -9.424 -18.999  0.00  0.00    +0.029 C 
ATOM     30  C   UNL     1      32.099  -9.110 -21.394  0.00  0.00    +0.029 C 
ATOM     31  C   UNL     1      32.101  -8.576 -20.105  0.00  0.00    +0.140 C 
ENDBRANCH  24  26
ENDBRANCH   3  24
TORSDOF 4
ENDMDL
MODEL 2
REMARK VINA RESULT:     -12.9      1.437      1.894
REMARK  Name = 10200813
REMARK  4 active torsions:
REMARK  status: ('A' for Active; 'I' for Inactive)
REMARK    1  A    between atoms: C_3  and  C_24
REMARK    2  A    between atoms: C_8  and  C_11
REMARK    3  A    between atoms: N_10  and  C_16
REMARK    4  A    between atoms: C_24  and  C_26
REMARK                            x       y       z     vdW  Elec       q    Type
REMARK                         _______ _______ _______ _____ _____    ______ ____
ROOT
ATOM      1  O   UNL     1      34.083 -18.126 -24.695  0.00  0.00    -0.265 OA
ATOM      2  N   UNL     1      34.614 -16.155 -23.528  0.00  0.00    -0.272 N 
ATOM      3  C   UNL     1      33.703 -13.509 -22.782  0.00  0.00    +0.008 C 
ATOM      4  C   UNL     1      33.137 -14.244 -24.006  0.00  0.00    +0.022 C 
ATOM      5  C   UNL     1      34.191 -14.521 -21.733  0.00  0.00    +0.022 C 
ATOM      6  C   UNL     1      34.148 -15.241 -24.569  0.00  0.00    +0.094 C 
ATOM      7  C   UNL     1      35.182 -15.513 -22.338  0.00  0.00    +0.094 C 
ATOM      8  C   UNL     1      34.542 -17.526 -23.731  0.00  0.00    +0.303 C 
ENDROOT
BRANCH   8  11
ATOM      9  O   UNL     1      36.301 -18.411 -22.529  0.00  0.00    -0.265 OA
ATOM     10  N   UNL     1      34.094 -19.012 -21.924  0.00  0.00    -0.277 N 
ATOM     11  C   UNL     1      35.083 -18.378 -22.647  0.00  0.00    +0.303 C 
ATOM     12  H   UNL     1      33.166 -18.833 -22.202  0.00  0.00    +0.155 HD
BRANCH  10  16
ATOM     13  O   UNL     1      32.383 -21.869 -18.366  0.00  0.00    -0.407 OA
ATOM     14  O   UNL     1      32.638 -23.310 -16.576  0.00  0.00    -0.223 OA
ATOM     15  N   UNL     1      34.499 -22.433 -17.669  0.00  0.00    -0.287 N 
ATOM     16  C   UNL     1      34.264 -19.891 -20.829  0.00  0.00    +0.054 C 
ATOM     17  C   UNL     1      33.137 -20.400 -20.194  0.00  0.00    +0.054 C 
ATOM     18  C   UNL     1      35.564 -20.220 -20.422  0.00  0.00    +0.016 C 
ATOM     19  C   UNL     1      33.358 -21.252 -19.134  0.00  0.00    +0.167 A 
ATOM     20  C   UNL     1      34.634 -21.579 -18.731  0.00  0.00    +0.096 A 
ATOM     21  C   UNL     1      35.764 -21.087 -19.345  0.00  0.00    +0.022 C 
ATOM     22  C   UNL     1      33.144 -22.611 -17.444  0.00  0.00    +0.419 A 
ATOM     23  H   UNL     1      35.233 -22.846 -17.157  0.00  0.00    +0.172 HD
ENDBRANCH  10  16
ENDBRANCH   8  11
BRANCH   3  24
ATOM     24  C   UNL     1      32.660 -12.567 -22.184  0.00  0.00    +0.026 C 
BRANCH  24  26
ATOM     25  F   UNL     1      33.826  -7.190 -23.331  0.00  0.00    -0.204 F 
ATOM     26  C   UNL     1      32.972 -11.129 -22.491  0.00  0.00    -0.022 C 
ATOM     27  C   UNL     1      33.971 -10.825 -23.406  0.00  0.00    -0.002 C 
ATOM     28  C   UNL     1      32.257 -10.123 -21.855  0.00  0.00    -0.002 C 
ATOM     29  C   UNL     1      34.260  -9.490 -23.691  0.00  0.00    +0.029 C 
ATOM     30  C   UNL     1      32.545  -8.788 -22.140  0.00  0.00    +0.029 C 
ATOM     31  C   UNL     1      33.547  -8.472 -23.058  0.00  0.00    +0.140 C 
ENDBRANCH  24  26
ENDBRANCH   3  24
TORSDOF 4
ENDMDL
MODEL 3
REMARK VINA RESULT:     -12.7      4.403      7.308
REMARK  Name = 10200813
REMARK  4 active torsions:
REMARK  status: ('A' for Active; 'I' for Inactive)
REMARK    1  A    between atoms: C_3  and  C_24
REMARK    2  A    between atoms: C_8  and  C_11
REMARK    3  A    between atoms: N_10  and  C_16
REMARK    4  A    between atoms: C_24  and  C_26
REMARK                            x       y       z     vdW  Elec       q    Type
REMARK                         _______ _______ _______ _____ _____    ______ ____
ROOT
ATOM      1  O   UNL     1      31.891 -21.965 -17.877  0.00  0.00    -0.265 OA
ATOM      2  N   UNL     1      33.863 -21.722 -19.134  0.00  0.00    -0.272 N 
ATOM      3  C   UNL     1      35.575 -19.860 -20.545  0.00  0.00    +0.008 C 
ATOM      4  C   UNL     1      34.091 -19.558 -20.286  0.00  0.00    +0.022 C 
ATOM      5  C   UNL     1      36.124 -20.798 -19.458  0.00  0.00    +0.022 C 
ATOM      6  C   UNL     1      33.281 -20.846 -20.148  0.00  0.00    +0.094 C 
ATOM      7  C   UNL     1      35.275 -22.061 -19.334  0.00  0.00    +0.094 C 
ATOM      8  C   UNL     1      33.071 -22.206 -18.103  0.00  0.00    +0.303 C 
ENDROOT
BRANCH   8  11
ATOM      9  O   UNL     1      33.725 -24.317 -17.441  0.00  0.00    -0.265 OA
ATOM     10  N   UNL     1      34.256 -22.475 -16.054  0.00  0.00    -0.277 N 
ATOM     11  C   UNL     1      33.728 -23.128 -17.149  0.00  0.00    +0.303 C 
ATOM     12  H   UNL     1      34.139 -21.497 -16.030  0.00  0.00    +0.155 HD
BRANCH  10  16
ATOM     13  O   UNL     1      34.451 -24.289 -11.535  0.00  0.00    -0.407 OA
ATOM     14  O   UNL     1      35.558 -25.237  -9.739  0.00  0.00    -0.223 OA
ATOM     15  N   UNL     1      36.704 -24.717 -11.700  0.00  0.00    -0.287 N 
ATOM     16  C   UNL     1      34.945 -23.052 -14.962  0.00  0.00    +0.054 C 
ATOM     17  C   UNL     1      34.238 -23.352 -13.804  0.00  0.00    +0.054 C 
ATOM     18  C   UNL     1      36.318 -23.305 -15.086  0.00  0.00    +0.016 C 
ATOM     19  C   UNL     1      34.956 -23.914 -12.771  0.00  0.00    +0.167 A 
ATOM     20  C   UNL     1      36.306 -24.164 -12.888  0.00  0.00    +0.096 A 
ATOM     21  C   UNL     1      37.026 -23.875 -14.026  0.00  0.00    +0.022 C 
ATOM     22  C   UNL     1      35.590 -24.795 -10.881  0.00  0.00    +0.419 A 
ATOM     23  H   UNL     1      37.616 -25.008 -11.470  0.00  0.00    +0.172 HD
ENDBRANCH  10  16
ENDBRANCH   8  11
BRANCH   3  24
ATOM     24  C   UNL     1      36.388 -18.569 -20.611  0.00  0.00    +0.026 C 
BRANCH  24  26
ATOM     25  F   UNL     1      33.972 -14.773 -23.979  0.00  0.00    -0.204 F 
ATOM     26  C   UNL     1      35.742 -17.553 -21.512  0.00  0.00    -0.022 C 
ATOM     27  C   UNL     1      35.360 -16.323 -20.994  0.00  0.00    -0.002 C 
ATOM     28  C   UNL     1      35.535 -17.859 -22.850  0.00  0.00    -0.002 C 
ATOM     29  C   UNL     1      34.761 -15.381 -21.830  0.00  0.00    +0.029 C 
ATOM     30  C   UNL     1      34.935 -16.917 -23.687  0.00  0.00    +0.029 C 
ATOM     31  C   UNL     1      34.549 -15.678 -23.176  0.00  0.00    +0.140 C 
ENDBRANCH  24  26
ENDBRANCH   3  24
TORSDOF 4
ENDMDL
MODEL 4
REMARK VINA RESULT:     -12.4      4.990      7.714
REMARK  Name = 10200813
REMARK  4 active torsions:
REMARK  status: ('A' for Active; 'I' for Inactive)
REMARK    1  A    between atoms: C_3  and  C_24
REMARK    2  A    between atoms: C_8  and  C_11
REMARK    3  A    between atoms: N_10  and  C_16
REMARK    4  A    between atoms: C_24  and  C_26
REMARK                            x       y       z     vdW  Elec       q    Type
REMARK                         _______ _______ _______ _____ _____    ______ ____
ROOT
ATOM      1  O   UNL     1      31.853 -22.074 -17.339  0.00  0.00    -0.265 OA
ATOM      2  N   UNL     1      33.559 -21.833 -18.939  0.00  0.00    -0.272 N 
ATOM      3  C   UNL     1      34.981 -19.973 -20.644  0.00  0.00    +0.008 C 
ATOM      4  C   UNL     1      33.571 -19.671 -20.116  0.00  0.00    +0.022 C 
ATOM      5  C   UNL     1      35.721 -20.909 -19.676  0.00  0.00    +0.022 C 
ATOM      6  C   UNL     1      32.800 -20.959 -19.830  0.00  0.00    +0.094 C 
ATOM      7  C   UNL     1      34.911 -22.172 -19.395  0.00  0.00    +0.094 C 
ATOM      8  C   UNL     1      32.971 -22.315 -17.778  0.00  0.00    +0.303 C 
ENDROOT
BRANCH   8  11
ATOM      9  O   UNL     1      33.680 -24.432 -17.196  0.00  0.00    -0.265 OA
ATOM     10  N   UNL     1      34.579 -22.573 -16.040  0.00  0.00    -0.277 N 
ATOM     11  C   UNL     1      33.793 -23.236 -16.960  0.00  0.00    +0.303 C 
ATOM     12  H   UNL     1      34.507 -21.591 -16.030  0.00  0.00    +0.155 HD
BRANCH  10  16
ATOM     13  O   UNL     1      39.005 -24.077 -14.662  0.00  0.00    -0.407 OA
ATOM     14  O   UNL     1      40.489 -25.010 -13.154  0.00  0.00    -0.223 OA
ATOM     15  N   UNL     1      38.238 -24.761 -12.606  0.00  0.00    -0.287 N 
ATOM     16  C   UNL     1      35.476 -23.147 -15.109  0.00  0.00    +0.054 C 
ATOM     17  C   UNL     1      36.813 -23.285 -15.462  0.00  0.00    +0.054 C 
ATOM     18  C   UNL     1      34.986 -23.556 -13.862  0.00  0.00    +0.016 C 
ATOM     19  C   UNL     1      37.645 -23.849 -14.519  0.00  0.00    +0.167 A 
ATOM     20  C   UNL     1      37.168 -24.253 -13.291  0.00  0.00    +0.096 A 
ATOM     21  C   UNL     1      35.847 -24.125 -12.921  0.00  0.00    +0.022 C 
ATOM     22  C   UNL     1      39.349 -24.658 -13.427  0.00  0.00    +0.419 A 
ATOM     23  H   UNL     1      38.223 -25.133 -11.693  0.00  0.00    +0.172 HD
ENDBRANCH  10  16
ENDBRANCH   8  11
BRANCH   3  24
ATOM     24  C   UNL     1      35.768 -18.683 -20.861  0.00  0.00    +0.026 C 
BRANCH  24  26
ATOM     25  F   UNL     1      33.974 -15.899 -25.402  0.00  0.00    -0.204 F 
ATOM     26  C   UNL     1      35.287 -17.938 -22.076  0.00  0.00    -0.022 C 
ATOM     27  C   UNL     1      34.702 -18.639 -23.121  0.00  0.00    -0.002 C 
ATOM     28  C   UNL     1      35.437 -16.559 -22.136  0.00  0.00    -0.002 C 
ATOM     29  C   UNL     1      34.257 -17.948 -24.248  0.00  0.00    +0.029 C 
ATOM     30  C   UNL     1      34.992 -15.868 -23.263  0.00  0.00    +0.029 C 
ATOM     31  C   UNL     1      34.401 -16.563 -24.319  0.00  0.00    +0.140 C 
ENDBRANCH  24  26
ENDBRANCH   3  24
TORSDOF 4
ENDMDL
MODEL 5
REMARK VINA RESULT:     -11.8      5.276     10.494
REMARK  Name = 10200813
REMARK  4 active torsions:
REMARK  status: ('A' for Active; 'I' for Inactive)
REMARK    1  A    between atoms: C_3  and  C_24
REMARK    2  A    between atoms: C_8  and  C_11
REMARK    3  A    between atoms: N_10  and  C_16
REMARK    4  A    between atoms: C_24  and  C_26
REMARK                            x       y       z     vdW  Elec       q    Type
REMARK                         _______ _______ _______ _____ _____    ______ ____
ROOT
ATOM      1  O   UNL     1      33.408 -12.858 -25.848  0.00  0.00    -0.265 OA
ATOM      2  N   UNL     1      33.649 -14.190 -23.926  0.00  0.00    -0.272 N 
ATOM      3  C   UNL     1      34.852 -16.582 -22.820  0.00  0.00    +0.008 C 
ATOM      4  C   UNL     1      34.621 -16.416 -24.330  0.00  0.00    +0.022 C 
ATOM      5  C   UNL     1      35.030 -15.208 -22.156  0.00  0.00    +0.022 C 
ATOM      6  C   UNL     1      33.457 -15.467 -24.609  0.00  0.00    +0.094 C 
ATOM      7  C   UNL     1      33.860 -14.280 -22.478  0.00  0.00    +0.094 C 
ATOM      8  C   UNL     1      33.580 -13.005 -24.645  0.00  0.00    +0.303 C 
ENDROOT
BRANCH   8  11
ATOM      9  O   UNL     1      34.820 -11.194 -23.935  0.00  0.00    -0.265 OA
ATOM     10  N   UNL     1      32.594 -11.420 -23.166  0.00  0.00    -0.277 N 
ATOM     11  C   UNL     1      33.735 -11.756 -23.864  0.00  0.00    +0.303 C 
ATOM     12  H   UNL     1      31.827 -12.030 -23.261  0.00  0.00    +0.155 HD
BRANCH  10  16
ATOM     13  O   UNL     1      32.688  -6.632 -22.264  0.00  0.00    -0.407 OA
ATOM     14  O   UNL     1      32.380  -4.781 -20.912  0.00  0.00    -0.223 OA
ATOM     15  N   UNL     1      31.929  -6.923 -20.114  0.00  0.00    -0.287 N 
ATOM     16  C   UNL     1      32.403 -10.296 -22.328  0.00  0.00    +0.054 C 
ATOM     17  C   UNL     1      32.680  -9.030 -22.828  0.00  0.00    +0.054 C 
ATOM     18  C   UNL     1      31.939 -10.499 -21.021  0.00  0.00    +0.016 C 
ATOM     19  C   UNL     1      32.476  -7.970 -21.971  0.00  0.00    +0.167 A 
ATOM     20  C   UNL     1      32.021  -8.164 -20.685  0.00  0.00    +0.096 A 
ATOM     21  C   UNL     1      31.740  -9.410 -20.170  0.00  0.00    +0.022 C 
ATOM     22  C   UNL     1      32.330  -5.995 -21.061  0.00  0.00    +0.419 A 
ATOM     23  H   UNL     1      31.632  -6.725 -19.196  0.00  0.00    +0.172 HD
ENDBRANCH  10  16
ENDBRANCH   8  11
BRANCH   3  24
ATOM     24  C   UNL     1      36.061 -17.476 -22.551  0.00  0.00    +0.026 C 
BRANCH  24  26
ATOM     25  F   UNL     1      34.858 -21.521 -18.839  0.00  0.00    -0.204 F 
ATOM     26  C   UNL     1      35.739 -18.559 -21.559  0.00  0.00    -0.022 C 
ATOM     27  C   UNL     1      34.444 -19.053 -21.481  0.00  0.00    -0.002 C 
ATOM     28  C   UNL     1      36.741 -19.048 -20.732  0.00  0.00    -0.002 C 
ATOM     29  C   UNL     1      34.146 -20.058 -20.560  0.00  0.00    +0.029 C 
ATOM     30  C   UNL     1      36.443 -20.053 -19.810  0.00  0.00    +0.029 C 
ATOM     31  C   UNL     1      35.146 -20.558 -19.725  0.00  0.00    +0.140 C 
ENDBRANCH  24  26
ENDBRANCH   3  24
TORSDOF 4
ENDMDL
MODEL 6
REMARK VINA RESULT:     -11.6      1.996      2.539
REMARK  Name = 10200813
REMARK  4 active torsions:
REMARK  status: ('A' for Active; 'I' for Inactive)
REMARK    1  A    between atoms: C_3  and  C_24
REMARK    2  A    between atoms: C_8  and  C_11
REMARK    3  A    between atoms: N_10  and  C_16
REMARK    4  A    between atoms: C_24  and  C_26
REMARK                            x       y       z     vdW  Elec       q    Type
REMARK                         _______ _______ _______ _____ _____    ______ ____
ROOT
ATOM      1  O   UNL     1      35.012 -18.842 -23.462  0.00  0.00    -0.265 OA
ATOM      2  N   UNL     1      35.082 -16.666 -22.575  0.00  0.00    -0.272 N 
ATOM      3  C   UNL     1      33.921 -14.014 -22.674  0.00  0.00    +0.008 C 
ATOM      4  C   UNL     1      33.813 -14.989 -23.857  0.00  0.00    +0.022 C 
ATOM      5  C   UNL     1      34.049 -14.791 -21.355  0.00  0.00    +0.022 C 
ATOM      6  C   UNL     1      34.974 -15.981 -23.862  0.00  0.00    +0.094 C 
ATOM      7  C   UNL     1      35.204 -15.788 -21.407  0.00  0.00    +0.094 C 
ATOM      8  C   UNL     1      35.108 -18.052 -22.531  0.00  0.00    +0.303 C 
ENDROOT
BRANCH   8  11
ATOM      9  O   UNL     1      36.038 -18.099 -20.420  0.00  0.00    -0.265 OA
ATOM     10  N   UNL     1      34.507 -19.799 -21.027  0.00  0.00    -0.277 N 
ATOM     11  C   UNL     1      35.272 -18.662 -21.191  0.00  0.00    +0.303 C 
ATOM     12  H   UNL     1      33.955 -20.070 -21.797  0.00  0.00    +0.155 HD
BRANCH  10  16
ATOM     13  O   UNL     1      36.496 -22.186 -17.274  0.00  0.00    -0.407 OA
ATOM     14  O   UNL     1      36.390 -23.523 -15.389  0.00  0.00    -0.223 OA
ATOM     15  N   UNL     1      34.453 -22.952 -16.552  0.00  0.00    -0.287 N 
ATOM     16  C   UNL     1      34.428 -20.618 -19.877  0.00  0.00    +0.054 C 
ATOM     17  C   UNL     1      35.598 -20.945 -19.203  0.00  0.00    +0.054 C 
ATOM     18  C   UNL     1      33.171 -21.073 -19.456  0.00  0.00    +0.016 C 
ATOM     19  C   UNL     1      35.466 -21.745 -18.088  0.00  0.00    +0.167 A 
ATOM     20  C   UNL     1      34.232 -22.194 -17.671  0.00  0.00    +0.096 A 
ATOM     21  C   UNL     1      33.060 -21.883 -18.324  0.00  0.00    +0.022 C 
ATOM     22  C   UNL     1      35.817 -22.951 -16.308  0.00  0.00    +0.419 A 
ATOM     23  H   UNL     1      33.767 -23.415 -16.017  0.00  0.00    +0.172 HD
ENDBRANCH  10  16
ENDBRANCH   8  11
BRANCH   3  24
ATOM     24  C   UNL     1      32.719 -13.072 -22.636  0.00  0.00    +0.026 C 
BRANCH  24  26
ATOM     25  F   UNL     1      34.253  -7.726 -23.441  0.00  0.00    -0.204 F 
ATOM     26  C   UNL     1      33.130 -11.642 -22.851  0.00  0.00    -0.022 C 
ATOM     27  C   UNL     1      32.454 -10.628 -22.185  0.00  0.00    -0.002 C 
ATOM     28  C   UNL     1      34.179 -11.353 -23.713  0.00  0.00    -0.002 C 
ATOM     29  C   UNL     1      32.835  -9.301 -22.385  0.00  0.00    +0.029 C 
ATOM     30  C   UNL     1      34.561 -10.026 -23.913  0.00  0.00    +0.029 C 
ATOM     31  C   UNL     1      33.889  -9.000 -23.249  0.00  0.00    +0.140 C 
ENDBRANCH  24  26
ENDBRANCH   3  24
TORSDOF 4
ENDMDL
MODEL 7
REMARK VINA RESULT:     -11.4      4.816     10.164
REMARK  Name = 10200813
REMARK  4 active torsions:
REMARK  status: ('A' for Active; 'I' for Inactive)
REMARK    1  A    between atoms: C_3  and  C_24
REMARK    2  A    between atoms: C_8  and  C_11
REMARK    3  A    between atoms: N_10  and  C_16
REMARK    4  A    between atoms: C_24  and  C_26
REMARK                            x       y       z     vdW  Elec       q    Type
REMARK                         _______ _______ _______ _____ _____    ______ ____
ROOT
ATOM      1  O   UNL     1      37.489 -18.886 -20.372  0.00  0.00    -0.265 OA
ATOM      2  N   UNL     1      35.476 -20.099 -20.326  0.00  0.00    -0.272 N 
ATOM      3  C   UNL     1      33.888 -22.027 -18.857  0.00  0.00    +0.008 C 
ATOM      4  C   UNL     1      35.411 -21.926 -18.676  0.00  0.00    +0.022 C 
ATOM      5  C   UNL     1      33.314 -20.668 -19.289  0.00  0.00    +0.022 C 
ATOM      6  C   UNL     1      36.081 -21.369 -19.930  0.00  0.00    +0.094 C 
ATOM      7  C   UNL     1      34.024 -20.134 -20.530  0.00  0.00    +0.094 C 
ATOM      8  C   UNL     1      36.278 -18.985 -20.523  0.00  0.00    +0.303 C 
ENDROOT
BRANCH   8  11
ATOM      9  O   UNL     1      35.186 -16.997 -20.098  0.00  0.00    -0.265 OA
ATOM     10  N   UNL     1      35.514 -17.657 -22.347  0.00  0.00    -0.277 N 
ATOM     11  C   UNL     1      35.588 -17.753 -20.972  0.00  0.00    +0.303 C 
ATOM     12  H   UNL     1      35.915 -18.396 -22.860  0.00  0.00    +0.155 HD
BRANCH  10  16
ATOM     13  O   UNL     1      34.351 -12.984 -23.095  0.00  0.00    -0.407 OA
ATOM     14  O   UNL     1      33.398 -11.265 -24.314  0.00  0.00    -0.223 OA
ATOM     15  N   UNL     1      33.311 -13.461 -25.089  0.00  0.00    -0.287 N 
ATOM     16  C   UNL     1      34.925 -16.615 -23.101  0.00  0.00    +0.054 C 
ATOM     17  C   UNL     1      34.990 -15.314 -22.616  0.00  0.00    +0.054 C 
ATOM     18  C   UNL     1      34.296 -16.930 -24.314  0.00  0.00    +0.016 C 
ATOM     19  C   UNL     1      34.401 -14.337 -23.390  0.00  0.00    +0.167 A 
ATOM     20  C   UNL     1      33.782 -14.642 -24.582  0.00  0.00    +0.096 A 
ATOM     21  C   UNL     1      33.707 -15.923 -25.081  0.00  0.00    +0.022 C 
ATOM     22  C   UNL     1      33.651 -12.457 -24.196  0.00  0.00    +0.419 A 
ATOM     23  H   UNL     1      32.820 -13.344 -25.935  0.00  0.00    +0.172 HD
ENDBRANCH  10  16
ENDBRANCH   8  11
BRANCH   3  24
ATOM     24  C   UNL     1      33.220 -22.517 -17.575  0.00  0.00    +0.026 C 
BRANCH  24  26
ATOM     25  F   UNL     1      37.012 -24.031 -13.712  0.00  0.00    -0.204 F 
ATOM     26  C   UNL     1      34.234 -22.921 -16.541  0.00  0.00    -0.022 C 
ATOM     27  C   UNL     1      35.435 -22.230 -16.454  0.00  0.00    -0.002 C 
ATOM     28  C   UNL     1      33.957 -23.982 -15.689  0.00  0.00    -0.002 C 
ATOM     29  C   UNL     1      36.376 -22.606 -15.494  0.00  0.00    +0.029 C 
ATOM     30  C   UNL     1      34.898 -24.357 -14.729  0.00  0.00    +0.029 C 
ATOM     31  C   UNL     1      36.107 -23.669 -14.632  0.00  0.00    +0.140 C 
ENDBRANCH  24  26
ENDBRANCH   3  24
TORSDOF 4
ENDMDL
MODEL 8
REMARK VINA RESULT:     -11.3      4.045      6.801
REMARK  Name = 10200813
REMARK  4 active torsions:
REMARK  status: ('A' for Active; 'I' for Inactive)
REMARK    1  A    between atoms: C_3  and  C_24
REMARK    2  A    between atoms: C_8  and  C_11
REMARK    3  A    between atoms: N_10  and  C_16
REMARK    4  A    between atoms: C_24  and  C_26
REMARK                            x       y       z     vdW  Elec       q    Type
REMARK                         _______ _______ _______ _____ _____    ______ ____
ROOT
ATOM      1  O   UNL     1      31.986 -11.033 -18.832  0.00  0.00    -0.265 OA
ATOM      2  N   UNL     1      32.001  -9.802 -20.835  0.00  0.00    -0.272 N 
ATOM      3  C   UNL     1      32.892  -7.369 -22.130  0.00  0.00    +0.008 C 
ATOM      4  C   UNL     1      32.744  -7.466 -20.603  0.00  0.00    +0.022 C 
ATOM      5  C   UNL     1      33.186  -8.755 -22.724  0.00  0.00    +0.022 C 
ATOM      6  C   UNL     1      31.702  -8.513 -20.215  0.00  0.00    +0.094 C 
ATOM      7  C   UNL     1      32.138  -9.778 -22.294  0.00  0.00    +0.094 C 
ATOM      8  C   UNL     1      32.090 -10.942 -20.049  0.00  0.00    +0.303 C 
ENDROOT
BRANCH   8  11
ATOM      9  O   UNL     1      31.418 -12.670 -21.422  0.00  0.00    -0.265 OA
ATOM     10  N   UNL     1      33.626 -12.687 -20.570  0.00  0.00    -0.277 N 
ATOM     11  C   UNL     1      32.344 -12.213 -20.765  0.00  0.00    +0.303 C 
ATOM     12  H   UNL     1      34.210 -12.143 -19.993  0.00  0.00    +0.155 HD
BRANCH  10  16
ATOM     13  O   UNL     1      35.495 -17.167 -20.141  0.00  0.00    -0.407 OA
ATOM     14  O   UNL     1      36.421 -19.106 -20.996  0.00  0.00    -0.223 OA
ATOM     15  N   UNL     1      35.832 -17.348 -22.408  0.00  0.00    -0.287 N 
ATOM     16  C   UNL     1      34.193 -13.866 -21.106  0.00  0.00    +0.054 C 
ATOM     17  C   UNL     1      34.536 -14.899 -20.242  0.00  0.00    +0.054 C 
ATOM     18  C   UNL     1      34.389 -13.954 -22.490  0.00  0.00    +0.016 C 
ATOM     19  C   UNL     1      35.084 -16.027 -20.815  0.00  0.00    +0.167 A 
ATOM     20  C   UNL     1      35.279 -16.117 -22.175  0.00  0.00    +0.096 A 
ATOM     21  C   UNL     1      34.946 -15.106 -23.049  0.00  0.00    +0.022 C 
ATOM     22  C   UNL     1      35.964 -17.985 -21.185  0.00  0.00    +0.419 A 
ATOM     23  H   UNL     1      36.089 -17.715 -23.285  0.00  0.00    +0.172 HD
ENDBRANCH  10  16
ENDBRANCH   8  11
BRANCH   3  24
ATOM     24  C   UNL     1      33.985  -6.372 -22.507  0.00  0.00    +0.026 C 
BRANCH  24  26
ATOM     25  F   UNL     1      32.440  -3.152 -26.847  0.00  0.00    -0.204 F 
ATOM     26  C   UNL     1      33.571  -5.510 -23.668  0.00  0.00    -0.022 C 
ATOM     27  C   UNL     1      32.382  -4.797 -23.602  0.00  0.00    -0.002 C 
ATOM     28  C   UNL     1      34.384  -5.440 -24.792  0.00  0.00    -0.002 C 
ATOM     29  C   UNL     1      31.999  -3.997 -24.679  0.00  0.00    +0.029 C 
ATOM     30  C   UNL     1      34.001  -4.641 -25.869  0.00  0.00    +0.029 C 
ATOM     31  C   UNL     1      32.809  -3.919 -25.812  0.00  0.00    +0.140 C 
ENDBRANCH  24  26
ENDBRANCH   3  24
TORSDOF 4
ENDMDL
MODEL 9
REMARK VINA RESULT:     -11.0      5.377     10.848
REMARK  Name = 10200813
REMARK  4 active torsions:
REMARK  status: ('A' for Active; 'I' for Inactive)
REMARK    1  A    between atoms: C_3  and  C_24
REMARK    2  A    between atoms: C_8  and  C_11
REMARK    3  A    between atoms: N_10  and  C_16
REMARK    4  A    between atoms: C_24  and  C_26
REMARK                            x       y       z     vdW  Elec       q    Type
REMARK                         _______ _______ _______ _____ _____    ______ ____
ROOT
ATOM      1  O   UNL     1      37.202 -19.311 -19.452  0.00  0.00    -0.265 OA
ATOM      2  N   UNL     1      35.832 -21.164 -18.985  0.00  0.00    -0.272 N 
ATOM      3  C   UNL     1      34.809 -22.909 -16.911  0.00  0.00    +0.008 C 
ATOM      4  C   UNL     1      36.105 -22.104 -16.725  0.00  0.00    +0.022 C 
ATOM      5  C   UNL     1      33.874 -22.189 -17.895  0.00  0.00    +0.022 C 
ATOM      6  C   UNL     1      36.770 -21.810 -18.069  0.00  0.00    +0.094 C 
ATOM      7  C   UNL     1      34.580 -21.891 -19.216  0.00  0.00    +0.094 C 
ATOM      8  C   UNL     1      36.179 -19.969 -19.598  0.00  0.00    +0.303 C 
ENDROOT
BRANCH   8  11
ATOM      9  O   UNL     1      34.027 -19.754 -20.400  0.00  0.00    -0.265 OA
ATOM     10  N   UNL     1      35.766 -18.564 -21.477  0.00  0.00    -0.277 N 
ATOM     11  C   UNL     1      35.192 -19.410 -20.550  0.00  0.00    +0.303 C 
ATOM     12  H   UNL     1      36.739 -18.431 -21.404  0.00  0.00    +0.155 HD
BRANCH  10  16
ATOM     13  O   UNL     1      34.294 -14.480 -23.691  0.00  0.00    -0.407 OA
ATOM     14  O   UNL     1      33.234 -13.321 -25.388  0.00  0.00    -0.223 OA
ATOM     15  N   UNL     1      33.302 -15.651 -25.403  0.00  0.00    -0.287 N 
ATOM     16  C   UNL     1      35.113 -17.868 -22.520  0.00  0.00    +0.054 C 
ATOM     17  C   UNL     1      35.086 -16.479 -22.487  0.00  0.00    +0.054 C 
ATOM     18  C   UNL     1      34.516 -18.603 -23.553  0.00  0.00    +0.016 C 
ATOM     19  C   UNL     1      34.438 -15.849 -23.528  0.00  0.00    +0.167 A 
ATOM     20  C   UNL     1      33.849 -16.567 -24.545  0.00  0.00    +0.096 A 
ATOM     21  C   UNL     1      33.864 -17.944 -24.598  0.00  0.00    +0.022 C 
ATOM     22  C   UNL     1      33.567 -14.390 -24.892  0.00  0.00    +0.419 A 
ATOM     23  H   UNL     1      32.810 -15.850 -26.232  0.00  0.00    +0.172 HD
ENDBRANCH  10  16
ENDBRANCH   8  11
BRANCH   3  24
ATOM     24  C   UNL     1      34.116 -23.137 -15.570  0.00  0.00    +0.026 C 
BRANCH  24  26
ATOM     25  F   UNL     1      37.590 -25.463 -11.814  0.00  0.00    -0.204 F 
ATOM     26  C   UNL     1      35.045 -23.759 -14.564  0.00  0.00    -0.022 C 
ATOM     27  C   UNL     1      35.369 -23.062 -13.409  0.00  0.00    -0.002 C 
ATOM     28  C   UNL     1      35.567 -25.023 -14.806  0.00  0.00    -0.002 C 
ATOM     29  C   UNL     1      36.231 -23.640 -12.477  0.00  0.00    +0.029 C 
ATOM     30  C   UNL     1      36.429 -25.601 -13.874  0.00  0.00    +0.029 C 
ATOM     31  C   UNL     1      36.761 -24.909 -12.709  0.00  0.00    +0.140 C 
ENDBRANCH  24  26
ENDBRANCH   3  24
TORSDOF 4
ENDMDL
