MODEL 1
REMARK VINA RESULT:     -12.6      0.000      0.000
REMARK  Name = 25151352
REMARK  5 active torsions:
REMARK  status: ('A' for Active; 'I' for Inactive)
REMARK    1  A    between atoms: N_1  and  C_21
REMARK    2  A    between atoms: C_3  and  C_9
REMARK    3  A    between atoms: C_9  and  C_13
REMARK    4  A    between atoms: C_21  and  C_23
REMARK    5  A    between atoms: C_27  and  C_31
REMARK                            x       y       z     vdW  Elec       q    Type
REMARK                         _______ _______ _______ _____ _____    ______ ____
ROOT
ATOM      1  N   UNL     1      33.211 -22.095 -18.295  0.00  0.00    -0.314 N 
ATOM      2  N   UNL     1      33.115 -20.443 -20.011  0.00  0.00    -0.230 NA
ATOM      3  C   UNL     1      35.167 -19.483 -20.852  0.00  0.00    +0.002 C 
ATOM      4  C   UNL     1      35.905 -20.275 -19.978  0.00  0.00    +0.000 C 
ATOM      5  C   UNL     1      33.788 -19.603 -20.829  0.00  0.00    +0.096 C 
ATOM      6  C   UNL     1      33.865 -21.196 -19.175  0.00  0.00    +0.129 C 
ATOM      7  C   UNL     1      35.249 -21.150 -19.120  0.00  0.00    +0.034 C 
ATOM      8  H   UNL     1      32.228 -22.144 -18.316  0.00  0.00    +0.149 HD
ENDROOT
BRANCH   3   9
ATOM      9  C   UNL     1      35.856 -18.516 -21.804  0.00  0.00    +0.056 C 
BRANCH   9  13
ATOM     10 CL   UNL     1      34.345 -12.902 -23.019  0.00  0.00    -0.081 Cl
ATOM     11  N   UNL     1      33.903 -18.343 -24.891  0.00  0.00    -0.297 N 
ATOM     12  N   UNL     1      33.343 -16.035 -25.293  0.00  0.00    -0.228 NA
ATOM     13  C   UNL     1      35.063 -18.167 -23.000  0.00  0.00    -0.000 C 
ATOM     14  C   UNL     1      34.645 -16.867 -23.388  0.00  0.00    +0.030 C 
ATOM     15  C   UNL     1      33.925 -17.011 -24.571  0.00  0.00    +0.132 C 
ATOM     16  C   UNL     1      34.591 -19.055 -23.943  0.00  0.00    +0.059 C 
ATOM     17  C   UNL     1      34.792 -15.568 -22.875  0.00  0.00    +0.015 C 
ATOM     18  C   UNL     1      34.209 -14.519 -23.584  0.00  0.00    +0.077 C 
ATOM     19  C   UNL     1      33.515 -14.806 -24.752  0.00  0.00    +0.112 C 
ATOM     20  H   UNL     1      33.461 -18.729 -25.680  0.00  0.00    +0.154 HD
ENDBRANCH   9  13
ENDBRANCH   3   9
BRANCH   1  21
ATOM     21  C   UNL     1      33.920 -22.928 -17.380  0.00  0.00    +0.117 C 
BRANCH  21  23
ATOM     22  N   UNL     1      32.835 -24.244 -14.002  0.00  0.00    -0.240 NA
ATOM     23  C   UNL     1      33.039 -23.306 -16.221  0.00  0.00    +0.017 C 
ATOM     24  C   UNL     1      31.666 -23.090 -16.264  0.00  0.00    +0.000 C 
ATOM     25  C   UNL     1      33.570 -23.880 -15.078  0.00  0.00    +0.096 C 
ATOM     26  C   UNL     1      30.877 -23.450 -15.177  0.00  0.00    +0.023 C 
ATOM     27  C   UNL     1      31.505 -24.018 -14.080  0.00  0.00    +0.153 C 
BRANCH  27  31
ATOM     28  F   UNL     1      31.186 -25.499 -12.228  0.00  0.00    -0.164 F 
ATOM     29  F   UNL     1      30.578 -23.435 -11.953  0.00  0.00    -0.164 F 
ATOM     30  F   UNL     1      29.408 -24.750 -13.230  0.00  0.00    -0.164 F 
ATOM     31  C   UNL     1      30.689 -24.417 -12.896  0.00  0.00    +0.435 C 
ENDBRANCH  27  31
ENDBRANCH  21  23
ENDBRANCH   1  21
TORSDOF 5
ENDMDL
MODEL 2
REMARK VINA RESULT:     -12.4      2.124      2.747
REMARK  Name = 25151352
REMARK  5 active torsions:
REMARK  status: ('A' for Active; 'I' for Inactive)
REMARK    1  A    between atoms: N_1  and  C_21
REMARK    2  A    between atoms: C_3  and  C_9
REMARK    3  A    between atoms: C_9  and  C_13
REMARK    4  A    between atoms: C_21  and  C_23
REMARK    5  A    between atoms: C_27  and  C_31
REMARK                            x       y       z     vdW  Elec       q    Type
REMARK                         _______ _______ _______ _____ _____    ______ ____
ROOT
ATOM      1  N   UNL     1      35.078 -21.895 -18.711  0.00  0.00    -0.314 N 
ATOM      2  N   UNL     1      36.468 -20.170 -19.589  0.00  0.00    -0.230 NA
ATOM      3  C   UNL     1      35.551 -18.601 -21.183  0.00  0.00    +0.002 C 
ATOM      4  C   UNL     1      34.319 -19.242 -21.117  0.00  0.00    +0.000 C 
ATOM      5  C   UNL     1      36.584 -19.099 -20.407  0.00  0.00    +0.096 C 
ATOM      6  C   UNL     1      35.256 -20.768 -19.552  0.00  0.00    +0.129 C 
ATOM      7  C   UNL     1      34.160 -20.347 -20.288  0.00  0.00    +0.034 C 
ATOM      8  H   UNL     1      35.842 -22.212 -18.179  0.00  0.00    +0.149 HD
ENDROOT
BRANCH   3   9
ATOM      9  C   UNL     1      35.755 -17.388 -22.080  0.00  0.00    +0.056 C 
BRANCH   9  13
ATOM     10 CL   UNL     1      33.313 -13.441 -25.784  0.00  0.00    -0.081 Cl
ATOM     11  N   UNL     1      34.365 -14.561 -20.222  0.00  0.00    -0.297 N 
ATOM     12  N   UNL     1      33.402 -13.025 -21.809  0.00  0.00    -0.228 NA
ATOM     13  C   UNL     1      35.120 -16.149 -21.586  0.00  0.00    -0.000 C 
ATOM     14  C   UNL     1      34.508 -15.140 -22.374  0.00  0.00    +0.030 C 
ATOM     15  C   UNL     1      34.047 -14.165 -21.495  0.00  0.00    +0.132 C 
ATOM     16  C   UNL     1      35.017 -15.766 -20.265  0.00  0.00    +0.059 C 
ATOM     17  C   UNL     1      34.286 -14.931 -23.745  0.00  0.00    +0.015 C 
ATOM     18  C   UNL     1      33.622 -13.766 -24.126  0.00  0.00    +0.077 C 
ATOM     19  C   UNL     1      33.217 -12.876 -23.141  0.00  0.00    +0.112 C 
ATOM     20  H   UNL     1      34.156 -14.059 -19.403  0.00  0.00    +0.154 HD
ENDBRANCH   9  13
ENDBRANCH   3   9
BRANCH   1  21
ATOM     21  C   UNL     1      33.836 -22.588 -18.607  0.00  0.00    +0.117 C 
BRANCH  21  23
ATOM     22  N   UNL     1      34.317 -23.376 -14.937  0.00  0.00    -0.240 NA
ATOM     23  C   UNL     1      33.521 -22.891 -17.168  0.00  0.00    +0.017 C 
ATOM     24  C   UNL     1      32.205 -22.970 -16.723  0.00  0.00    +0.000 C 
ATOM     25  C   UNL     1      34.531 -23.100 -16.243  0.00  0.00    +0.096 C 
ATOM     26  C   UNL     1      31.945 -23.252 -15.387  0.00  0.00    +0.023 C 
ATOM     27  C   UNL     1      33.026 -23.445 -14.542  0.00  0.00    +0.153 C 
BRANCH  27  31
ATOM     28  F   UNL     1      31.857 -22.931 -12.518  0.00  0.00    -0.164 F 
ATOM     29  F   UNL     1      32.329 -25.018 -12.879  0.00  0.00    -0.164 F 
ATOM     30  F   UNL     1      33.911 -23.625 -12.342  0.00  0.00    -0.164 F 
ATOM     31  C   UNL     1      32.783 -23.749 -13.101  0.00  0.00    +0.435 C 
ENDBRANCH  27  31
ENDBRANCH  21  23
ENDBRANCH   1  21
TORSDOF 5
ENDMDL
MODEL 3
REMARK VINA RESULT:     -12.2      6.406     11.058
REMARK  Name = 25151352
REMARK  5 active torsions:
REMARK  status: ('A' for Active; 'I' for Inactive)
REMARK    1  A    between atoms: N_1  and  C_21
REMARK    2  A    between atoms: C_3  and  C_9
REMARK    3  A    between atoms: C_9  and  C_13
REMARK    4  A    between atoms: C_21  and  C_23
REMARK    5  A    between atoms: C_27  and  C_31
REMARK                            x       y       z     vdW  Elec       q    Type
REMARK                         _______ _______ _______ _____ _____    ______ ____
ROOT
ATOM      1  N   UNL     1      35.929 -17.347 -22.550  0.00  0.00    -0.314 N 
ATOM      2  N   UNL     1      37.056 -18.608 -20.871  0.00  0.00    -0.230 NA
ATOM      3  C   UNL     1      35.932 -20.482 -19.837  0.00  0.00    +0.002 C 
ATOM      4  C   UNL     1      34.809 -20.252 -20.624  0.00  0.00    +0.000 C 
ATOM      5  C   UNL     1      37.020 -19.639 -19.997  0.00  0.00    +0.096 C 
ATOM      6  C   UNL     1      35.945 -18.414 -21.617  0.00  0.00    +0.129 C 
ATOM      7  C   UNL     1      34.807 -19.200 -21.533  0.00  0.00    +0.034 C 
ATOM      8  H   UNL     1      36.726 -16.775 -22.627  0.00  0.00    +0.149 HD
ENDROOT
BRANCH   3   9
ATOM      9  C   UNL     1      35.965 -21.626 -18.834  0.00  0.00    +0.056 C 
BRANCH   9  13
ATOM     10 CL   UNL     1      35.374 -23.953 -13.402  0.00  0.00    -0.081 Cl
ATOM     11  N   UNL     1      32.450 -22.316 -18.100  0.00  0.00    -0.297 N 
ATOM     12  N   UNL     1      32.318 -23.253 -15.884  0.00  0.00    -0.228 NA
ATOM     13  C   UNL     1      34.643 -21.997 -18.288  0.00  0.00    -0.000 C 
ATOM     14  C   UNL     1      34.383 -22.558 -17.010  0.00  0.00    +0.030 C 
ATOM     15  C   UNL     1      33.007 -22.745 -16.924  0.00  0.00    +0.132 C 
ATOM     16  C   UNL     1      33.434 -21.860 -18.936  0.00  0.00    +0.059 C 
ATOM     17  C   UNL     1      35.158 -22.936 -15.901  0.00  0.00    +0.015 C 
ATOM     18  C   UNL     1      34.495 -23.468 -14.796  0.00  0.00    +0.077 C 
ATOM     19  C   UNL     1      33.114 -23.600 -14.846  0.00  0.00    +0.112 C 
ATOM     20  H   UNL     1      31.489 -22.333 -18.311  0.00  0.00    +0.154 HD
ENDBRANCH   9  13
ENDBRANCH   3   9
BRANCH   1  21
ATOM     21  C   UNL     1      34.803 -17.068 -23.379  0.00  0.00    +0.117 C 
BRANCH  21  23
ATOM     22  N   UNL     1      33.597 -13.675 -24.542  0.00  0.00    -0.240 NA
ATOM     23  C   UNL     1      34.505 -15.594 -23.386  0.00  0.00    +0.017 C 
ATOM     24  C   UNL     1      34.838 -14.791 -22.300  0.00  0.00    +0.000 C 
ATOM     25  C   UNL     1      33.891 -14.993 -24.472  0.00  0.00    +0.096 C 
ATOM     26  C   UNL     1      34.551 -13.430 -22.335  0.00  0.00    +0.023 C 
ATOM     27  C   UNL     1      33.935 -12.926 -23.469  0.00  0.00    +0.153 C 
BRANCH  27  31
ATOM     28  F   UNL     1      32.728 -11.060 -22.584  0.00  0.00    -0.164 F 
ATOM     29  F   UNL     1      34.702 -10.661 -23.390  0.00  0.00    -0.164 F 
ATOM     30  F   UNL     1      33.052 -11.116 -24.733  0.00  0.00    -0.164 F 
ATOM     31  C   UNL     1      33.612 -11.471 -23.540  0.00  0.00    +0.435 C 
ENDBRANCH  27  31
ENDBRANCH  21  23
ENDBRANCH   1  21
TORSDOF 5
ENDMDL
MODEL 4
REMARK VINA RESULT:     -12.2      3.999      6.484
REMARK  Name = 25151352
REMARK  5 active torsions:
REMARK  status: ('A' for Active; 'I' for Inactive)
REMARK    1  A    between atoms: N_1  and  C_21
REMARK    2  A    between atoms: C_3  and  C_9
REMARK    3  A    between atoms: C_9  and  C_13
REMARK    4  A    between atoms: C_21  and  C_23
REMARK    5  A    between atoms: C_27  and  C_31
REMARK                            x       y       z     vdW  Elec       q    Type
REMARK                         _______ _______ _______ _____ _____    ______ ____
ROOT
ATOM      1  N   UNL     1      35.626 -18.137 -22.663  0.00  0.00    -0.314 N 
ATOM      2  N   UNL     1      34.393 -16.695 -24.107  0.00  0.00    -0.230 NA
ATOM      3  C   UNL     1      34.061 -14.385 -23.478  0.00  0.00    +0.002 C 
ATOM      4  C   UNL     1      34.779 -14.593 -22.305  0.00  0.00    +0.000 C 
ATOM      5  C   UNL     1      33.898 -15.459 -24.338  0.00  0.00    +0.096 C 
ATOM      6  C   UNL     1      35.084 -16.860 -22.956  0.00  0.00    +0.129 C 
ATOM      7  C   UNL     1      35.303 -15.851 -22.032  0.00  0.00    +0.034 C 
ATOM      8  H   UNL     1      35.483 -18.868 -23.305  0.00  0.00    +0.149 HD
ENDROOT
BRANCH   3   9
ATOM      9  C   UNL     1      33.476 -13.019 -23.807  0.00  0.00    +0.056 C 
BRANCH   9  13
ATOM     10 CL   UNL     1      33.555  -7.130 -23.038  0.00  0.00    -0.081 Cl
ATOM     11  N   UNL     1      31.535 -12.075 -20.855  0.00  0.00    -0.297 N 
ATOM     12  N   UNL     1      31.629  -9.678 -20.633  0.00  0.00    -0.228 NA
ATOM     13  C   UNL     1      32.766 -12.373 -22.684  0.00  0.00    -0.000 C 
ATOM     14  C   UNL     1      32.717 -10.982 -22.402  0.00  0.00    +0.030 C 
ATOM     15  C   UNL     1      31.941 -10.830 -21.257  0.00  0.00    +0.132 C 
ATOM     16  C   UNL     1      32.030 -13.020 -21.715  0.00  0.00    +0.059 C 
ATOM     17  C   UNL     1      33.242  -9.818 -22.987  0.00  0.00    +0.015 C 
ATOM     18  C   UNL     1      32.950  -8.598 -22.381  0.00  0.00    +0.077 C 
ATOM     19  C   UNL     1      32.162  -8.591 -21.238  0.00  0.00    +0.112 C 
ATOM     20  H   UNL     1      30.972 -12.262 -20.070  0.00  0.00    +0.154 HD
ENDBRANCH   9  13
ENDBRANCH   3   9
BRANCH   1  21
ATOM     21  C   UNL     1      36.369 -18.403 -21.476  0.00  0.00    +0.117 C 
BRANCH  21  23
ATOM     22  N   UNL     1      35.818 -21.232 -19.025  0.00  0.00    -0.240 NA
ATOM     23  C   UNL     1      35.670 -19.438 -20.638  0.00  0.00    +0.017 C 
ATOM     24  C   UNL     1      34.287 -19.579 -20.679  0.00  0.00    +0.000 C 
ATOM     25  C   UNL     1      36.383 -20.282 -19.802  0.00  0.00    +0.096 C 
ATOM     26  C   UNL     1      33.669 -20.546 -19.894  0.00  0.00    +0.023 C 
ATOM     27  C   UNL     1      34.472 -21.339 -19.091  0.00  0.00    +0.153 C 
BRANCH  27  31
ATOM     28  F   UNL     1      33.758 -23.609 -18.838  0.00  0.00    -0.164 F 
ATOM     29  F   UNL     1      34.509 -22.612 -17.065  0.00  0.00    -0.164 F 
ATOM     30  F   UNL     1      32.564 -22.070 -17.872  0.00  0.00    -0.164 F 
ATOM     31  C   UNL     1      33.842 -22.387 -18.235  0.00  0.00    +0.435 C 
ENDBRANCH  27  31
ENDBRANCH  21  23
ENDBRANCH   1  21
TORSDOF 5
ENDMDL
MODEL 5
REMARK VINA RESULT:     -11.9      4.041      6.571
REMARK  Name = 25151352
REMARK  5 active torsions:
REMARK  status: ('A' for Active; 'I' for Inactive)
REMARK    1  A    between atoms: N_1  and  C_21
REMARK    2  A    between atoms: C_3  and  C_9
REMARK    3  A    between atoms: C_9  and  C_13
REMARK    4  A    between atoms: C_21  and  C_23
REMARK    5  A    between atoms: C_27  and  C_31
REMARK                            x       y       z     vdW  Elec       q    Type
REMARK                         _______ _______ _______ _____ _____    ______ ____
ROOT
ATOM      1  N   UNL     1      35.739 -17.002 -21.095  0.00  0.00    -0.314 N 
ATOM      2  N   UNL     1      34.799 -14.832 -21.391  0.00  0.00    -0.230 NA
ATOM      3  C   UNL     1      33.905 -14.209 -23.548  0.00  0.00    +0.002 C 
ATOM      4  C   UNL     1      34.242 -15.459 -24.057  0.00  0.00    +0.000 C 
ATOM      5  C   UNL     1      34.202 -13.947 -22.221  0.00  0.00    +0.096 C 
ATOM      6  C   UNL     1      35.112 -16.036 -21.921  0.00  0.00    +0.129 C 
ATOM      7  C   UNL     1      34.857 -16.395 -23.235  0.00  0.00    +0.034 C 
ATOM      8  H   UNL     1      35.930 -16.769 -20.158  0.00  0.00    +0.149 HD
ENDROOT
BRANCH   3   9
ATOM      9  C   UNL     1      33.229 -13.163 -24.423  0.00  0.00    +0.056 C 
BRANCH   9  13
ATOM     10 CL   UNL     1      30.944 -10.004 -19.943  0.00  0.00    -0.081 Cl
ATOM     11  N   UNL     1      34.705  -9.819 -24.315  0.00  0.00    -0.297 N 
ATOM     12  N   UNL     1      33.716  -8.624 -22.472  0.00  0.00    -0.228 NA
ATOM     13  C   UNL     1      33.656 -11.774 -24.155  0.00  0.00    -0.000 C 
ATOM     14  C   UNL     1      33.180 -10.928 -23.119  0.00  0.00    +0.030 C 
ATOM     15  C   UNL     1      33.855  -9.717 -23.246  0.00  0.00    +0.132 C 
ATOM     16  C   UNL     1      34.593 -11.065 -24.876  0.00  0.00    +0.059 C 
ATOM     17  C   UNL     1      32.248 -11.043 -22.075  0.00  0.00    +0.015 C 
ATOM     18  C   UNL     1      32.066  -9.940 -21.242  0.00  0.00    +0.077 C 
ATOM     19  C   UNL     1      32.806  -8.791 -21.484  0.00  0.00    +0.112 C 
ATOM     20  H   UNL     1      35.306  -9.107 -24.632  0.00  0.00    +0.154 HD
ENDBRANCH   9  13
ENDBRANCH   3   9
BRANCH   1  21
ATOM     21  C   UNL     1      36.105 -18.297 -21.567  0.00  0.00    +0.117 C 
BRANCH  21  23
ATOM     22  N   UNL     1      35.771 -21.164 -19.121  0.00  0.00    -0.240 NA
ATOM     23  C   UNL     1      35.484 -19.365 -20.710  0.00  0.00    +0.017 C 
ATOM     24  C   UNL     1      34.106 -19.559 -20.692  0.00  0.00    +0.000 C 
ATOM     25  C   UNL     1      36.264 -20.187 -19.913  0.00  0.00    +0.096 C 
ATOM     26  C   UNL     1      33.561 -20.555 -19.889  0.00  0.00    +0.023 C 
ATOM     27  C   UNL     1      34.428 -21.323 -19.129  0.00  0.00    +0.153 C 
BRANCH  27  31
ATOM     28  F   UNL     1      34.613 -22.619 -17.127  0.00  0.00    -0.164 F 
ATOM     29  F   UNL     1      32.609 -22.151 -17.814  0.00  0.00    -0.164 F 
ATOM     30  F   UNL     1      33.812 -23.608 -18.891  0.00  0.00    -0.164 F 
ATOM     31  C   UNL     1      33.877 -22.401 -18.256  0.00  0.00    +0.435 C 
ENDBRANCH  27  31
ENDBRANCH  21  23
ENDBRANCH   1  21
TORSDOF 5
ENDMDL
MODEL 6
REMARK VINA RESULT:     -11.9      3.319      4.156
REMARK  Name = 25151352
REMARK  5 active torsions:
REMARK  status: ('A' for Active; 'I' for Inactive)
REMARK    1  A    between atoms: N_1  and  C_21
REMARK    2  A    between atoms: C_3  and  C_9
REMARK    3  A    between atoms: C_9  and  C_13
REMARK    4  A    between atoms: C_21  and  C_23
REMARK    5  A    between atoms: C_27  and  C_31
REMARK                            x       y       z     vdW  Elec       q    Type
REMARK                         _______ _______ _______ _____ _____    ______ ____
ROOT
ATOM      1  N   UNL     1      36.439 -21.020 -18.689  0.00  0.00    -0.314 N 
ATOM      2  N   UNL     1      37.128 -19.264 -20.147  0.00  0.00    -0.230 NA
ATOM      3  C   UNL     1      35.515 -18.255 -21.638  0.00  0.00    +0.002 C 
ATOM      4  C   UNL     1      34.524 -19.100 -21.149  0.00  0.00    +0.000 C 
ATOM      5  C   UNL     1      36.789 -18.375 -21.108  0.00  0.00    +0.096 C 
ATOM      6  C   UNL     1      36.139 -20.069 -19.698  0.00  0.00    +0.129 C 
ATOM      7  C   UNL     1      34.834 -20.028 -20.162  0.00  0.00    +0.034 C 
ATOM      8  H   UNL     1      37.359 -21.068 -18.345  0.00  0.00    +0.149 HD
ENDROOT
BRANCH   3   9
ATOM      9  C   UNL     1      35.207 -17.229 -22.718  0.00  0.00    +0.056 C 
BRANCH   9  13
ATOM     10 CL   UNL     1      33.111 -12.971 -26.289  0.00  0.00    -0.081 Cl
ATOM     11  N   UNL     1      34.531 -14.172 -20.827  0.00  0.00    -0.297 N 
ATOM     12  N   UNL     1      33.689 -12.515 -22.359  0.00  0.00    -0.228 NA
ATOM     13  C   UNL     1      34.851 -15.890 -22.204  0.00  0.00    -0.000 C 
ATOM     14  C   UNL     1      34.345 -14.800 -22.961  0.00  0.00    +0.030 C 
ATOM     15  C   UNL     1      34.156 -13.746 -22.073  0.00  0.00    +0.132 C 
ATOM     16  C   UNL     1      34.956 -15.474 -20.894  0.00  0.00    +0.059 C 
ATOM     17  C   UNL     1      34.020 -14.577 -24.309  0.00  0.00    +0.015 C 
ATOM     18  C   UNL     1      33.532 -13.320 -24.660  0.00  0.00    +0.077 C 
ATOM     19  C   UNL     1      33.393 -12.356 -23.670  0.00  0.00    +0.112 C 
ATOM     20  H   UNL     1      34.500 -13.628 -20.007  0.00  0.00    +0.154 HD
ENDBRANCH   9  13
ENDBRANCH   3   9
BRANCH   1  21
ATOM     21  C   UNL     1      35.460 -21.909 -18.156  0.00  0.00    +0.117 C 
BRANCH  21  23
ATOM     22  N   UNL     1      37.542 -22.537 -15.059  0.00  0.00    -0.240 NA
ATOM     23  C   UNL     1      35.841 -22.338 -16.766  0.00  0.00    +0.017 C 
ATOM     24  C   UNL     1      34.906 -22.914 -15.911  0.00  0.00    +0.000 C 
ATOM     25  C   UNL     1      37.134 -22.173 -16.295  0.00  0.00    +0.096 C 
ATOM     26  C   UNL     1      35.288 -23.302 -14.632  0.00  0.00    +0.023 C 
ATOM     27  C   UNL     1      36.606 -23.093 -14.257  0.00  0.00    +0.153 C 
BRANCH  27  31
ATOM     28  F   UNL     1      36.062 -24.069 -12.142  0.00  0.00    -0.164 F 
ATOM     29  F   UNL     1      38.068 -24.407 -12.894  0.00  0.00    -0.164 F 
ATOM     30  F   UNL     1      37.504 -22.442 -12.154  0.00  0.00    -0.164 F 
ATOM     31  C   UNL     1      37.050 -23.497 -12.891  0.00  0.00    +0.435 C 
ENDBRANCH  27  31
ENDBRANCH  21  23
ENDBRANCH   1  21
TORSDOF 5
ENDMDL
MODEL 7
REMARK VINA RESULT:     -11.9      7.325     11.872
REMARK  Name = 25151352
REMARK  5 active torsions:
REMARK  status: ('A' for Active; 'I' for Inactive)
REMARK    1  A    between atoms: N_1  and  C_21
REMARK    2  A    between atoms: C_3  and  C_9
REMARK    3  A    between atoms: C_9  and  C_13
REMARK    4  A    between atoms: C_21  and  C_23
REMARK    5  A    between atoms: C_27  and  C_31
REMARK                            x       y       z     vdW  Elec       q    Type
REMARK                         _______ _______ _______ _____ _____    ______ ____
ROOT
ATOM      1  N   UNL     1      34.385 -13.598 -21.981  0.00  0.00    -0.314 N 
ATOM      2  N   UNL     1      34.937 -15.438 -20.570  0.00  0.00    -0.230 NA
ATOM      3  C   UNL     1      35.375 -17.602 -21.556  0.00  0.00    +0.002 C 
ATOM      4  C   UNL     1      35.149 -17.078 -22.824  0.00  0.00    +0.000 C 
ATOM      5  C   UNL     1      35.257 -16.748 -20.471  0.00  0.00    +0.096 C 
ATOM      6  C   UNL     1      34.724 -14.965 -21.819  0.00  0.00    +0.129 C 
ATOM      7  C   UNL     1      34.817 -15.736 -22.967  0.00  0.00    +0.034 C 
ATOM      8  H   UNL     1      34.313 -13.032 -21.180  0.00  0.00    +0.149 HD
ENDROOT
BRANCH   3   9
ATOM      9  C   UNL     1      35.741 -19.066 -21.367  0.00  0.00    +0.056 C 
BRANCH   9  13
ATOM     10 CL   UNL     1      37.178 -22.368 -16.644  0.00  0.00    -0.081 Cl
ATOM     11  N   UNL     1      32.793 -20.772 -20.037  0.00  0.00    -0.297 N 
ATOM     12  N   UNL     1      33.479 -22.078 -18.133  0.00  0.00    -0.228 NA
ATOM     13  C   UNL     1      34.731 -19.860 -20.638  0.00  0.00    -0.000 C 
ATOM     14  C   UNL     1      34.959 -20.682 -19.503  0.00  0.00    +0.030 C 
ATOM     15  C   UNL     1      33.730 -21.235 -19.153  0.00  0.00    +0.132 C 
ATOM     16  C   UNL     1      33.389 -19.936 -20.945  0.00  0.00    +0.059 C 
ATOM     17  C   UNL     1      36.071 -21.028 -18.718  0.00  0.00    +0.015 C 
ATOM     18  C   UNL     1      35.866 -21.898 -17.649  0.00  0.00    +0.077 C 
ATOM     19  C   UNL     1      34.585 -22.378 -17.413  0.00  0.00    +0.112 C 
ATOM     20  H   UNL     1      31.836 -21.004 -20.023  0.00  0.00    +0.154 HD
ENDBRANCH   9  13
ENDBRANCH   3   9
BRANCH   1  21
ATOM     21  C   UNL     1      34.144 -13.012 -23.259  0.00  0.00    +0.117 C 
BRANCH  21  23
ATOM     22  N   UNL     1      32.287  -9.918 -22.119  0.00  0.00    -0.240 NA
ATOM     23  C   UNL     1      33.750 -11.569 -23.110  0.00  0.00    +0.017 C 
ATOM     24  C   UNL     1      34.438 -10.565 -23.785  0.00  0.00    +0.000 C 
ATOM     25  C   UNL     1      32.693 -11.196 -22.297  0.00  0.00    +0.096 C 
ATOM     26  C   UNL     1      34.050  -9.239 -23.628  0.00  0.00    +0.023 C 
ATOM     27  C   UNL     1      32.979  -8.970 -22.791  0.00  0.00    +0.153 C 
BRANCH  27  31
ATOM     28  F   UNL     1      33.567  -6.686 -22.394  0.00  0.00    -0.164 F 
ATOM     29  F   UNL     1      31.847  -7.052 -23.664  0.00  0.00    -0.164 F 
ATOM     30  F   UNL     1      31.710  -7.409 -21.523  0.00  0.00    -0.164 F 
ATOM     31  C   UNL     1      32.536  -7.558 -22.599  0.00  0.00    +0.435 C 
ENDBRANCH  27  31
ENDBRANCH  21  23
ENDBRANCH   1  21
TORSDOF 5
ENDMDL
MODEL 8
REMARK VINA RESULT:     -11.8      7.576     12.115
REMARK  Name = 25151352
REMARK  5 active torsions:
REMARK  status: ('A' for Active; 'I' for Inactive)
REMARK    1  A    between atoms: N_1  and  C_21
REMARK    2  A    between atoms: C_3  and  C_9
REMARK    3  A    between atoms: C_9  and  C_13
REMARK    4  A    between atoms: C_21  and  C_23
REMARK    5  A    between atoms: C_27  and  C_31
REMARK                            x       y       z     vdW  Elec       q    Type
REMARK                         _______ _______ _______ _____ _____    ______ ____
ROOT
ATOM      1  N   UNL     1      34.343 -12.385 -22.530  0.00  0.00    -0.314 N 
ATOM      2  N   UNL     1      34.984 -14.472 -21.575  0.00  0.00    -0.230 NA
ATOM      3  C   UNL     1      34.766 -16.494 -22.882  0.00  0.00    +0.002 C 
ATOM      4  C   UNL     1      34.266 -15.758 -23.951  0.00  0.00    +0.000 C 
ATOM      5  C   UNL     1      35.108 -15.810 -21.727  0.00  0.00    +0.096 C 
ATOM      6  C   UNL     1      34.493 -13.791 -22.634  0.00  0.00    +0.129 C 
ATOM      7  C   UNL     1      34.123 -14.380 -23.832  0.00  0.00    +0.034 C 
ATOM      8  H   UNL     1      34.599 -11.944 -21.689  0.00  0.00    +0.149 HD
ENDROOT
BRANCH   3   9
ATOM      9  C   UNL     1      34.936 -18.003 -22.981  0.00  0.00    +0.056 C 
BRANCH   9  13
ATOM     10 CL   UNL     1      32.835 -21.716 -18.850  0.00  0.00    -0.081 Cl
ATOM     11  N   UNL     1      37.611 -19.082 -20.733  0.00  0.00    -0.297 N 
ATOM     12  N   UNL     1      36.659 -20.578 -19.102  0.00  0.00    -0.228 NA
ATOM     13  C   UNL     1      35.812 -18.589 -21.946  0.00  0.00    -0.000 C 
ATOM     14  C   UNL     1      35.421 -19.482 -20.914  0.00  0.00    +0.030 C 
ATOM     15  C   UNL     1      36.566 -19.771 -20.176  0.00  0.00    +0.132 C 
ATOM     16  C   UNL     1      37.164 -18.360 -21.809  0.00  0.00    +0.059 C 
ATOM     17  C   UNL     1      34.221 -20.090 -20.510  0.00  0.00    +0.015 C 
ATOM     18  C   UNL     1      34.262 -20.936 -19.404  0.00  0.00    +0.077 C 
ATOM     19  C   UNL     1      35.475 -21.135 -18.758  0.00  0.00    +0.112 C 
ATOM     20  H   UNL     1      38.540 -19.103 -20.411  0.00  0.00    +0.154 HD
ENDBRANCH   9  13
ENDBRANCH   3   9
BRANCH   1  21
ATOM     21  C   UNL     1      33.835 -11.585 -23.595  0.00  0.00    +0.117 C 
BRANCH  21  23
ATOM     22  N   UNL     1      31.821  -9.032 -21.660  0.00  0.00    -0.240 NA
ATOM     23  C   UNL     1      33.350 -10.260 -23.074  0.00  0.00    +0.017 C 
ATOM     24  C   UNL     1      33.936  -9.069 -23.488  0.00  0.00    +0.000 C 
ATOM     25  C   UNL     1      32.305 -10.188 -22.167  0.00  0.00    +0.096 C 
ATOM     26  C   UNL     1      33.465  -7.859 -22.989  0.00  0.00    +0.023 C 
ATOM     27  C   UNL     1      32.416  -7.894 -22.085  0.00  0.00    +0.153 C 
BRANCH  27  31
ATOM     28  F   UNL     1      30.899  -6.056 -22.288  0.00  0.00    -0.164 F 
ATOM     29  F   UNL     1      31.347  -6.743 -20.280  0.00  0.00    -0.164 F 
ATOM     30  F   UNL     1      32.850  -5.654 -21.415  0.00  0.00    -0.164 F 
ATOM     31  C   UNL     1      31.887  -6.615 -21.529  0.00  0.00    +0.435 C 
ENDBRANCH  27  31
ENDBRANCH  21  23
ENDBRANCH   1  21
TORSDOF 5
ENDMDL
MODEL 9
REMARK VINA RESULT:     -11.6      5.808     10.316
REMARK  Name = 25151352
REMARK  5 active torsions:
REMARK  status: ('A' for Active; 'I' for Inactive)
REMARK    1  A    between atoms: N_1  and  C_21
REMARK    2  A    between atoms: C_3  and  C_9
REMARK    3  A    between atoms: C_9  and  C_13
REMARK    4  A    between atoms: C_21  and  C_23
REMARK    5  A    between atoms: C_27  and  C_31
REMARK                            x       y       z     vdW  Elec       q    Type
REMARK                         _______ _______ _______ _____ _____    ______ ____
ROOT
ATOM      1  N   UNL     1      34.578 -16.828 -23.243  0.00  0.00    -0.314 N 
ATOM      2  N   UNL     1      34.282 -19.031 -22.384  0.00  0.00    -0.230 NA
ATOM      3  C   UNL     1      35.705 -19.809 -20.591  0.00  0.00    +0.002 C 
ATOM      4  C   UNL     1      36.369 -18.587 -20.578  0.00  0.00    +0.000 C 
ATOM      5  C   UNL     1      34.677 -19.979 -21.504  0.00  0.00    +0.096 C 
ATOM      6  C   UNL     1      34.952 -17.857 -22.343  0.00  0.00    +0.129 C 
ATOM      7  C   UNL     1      35.992 -17.588 -21.468  0.00  0.00    +0.034 C 
ATOM      8  H   UNL     1      33.842 -16.997 -23.874  0.00  0.00    +0.149 HD
ENDROOT
BRANCH   3   9
ATOM      9  C   UNL     1      36.094 -20.921 -19.629  0.00  0.00    +0.056 C 
BRANCH   9  13
ATOM     10 CL   UNL     1      36.672 -23.223 -14.184  0.00  0.00    -0.081 Cl
ATOM     11  N   UNL     1      32.914 -22.303 -18.465  0.00  0.00    -0.297 N 
ATOM     12  N   UNL     1      33.254 -23.207 -16.258  0.00  0.00    -0.228 NA
ATOM     13  C   UNL     1      34.954 -21.545 -18.924  0.00  0.00    -0.000 C 
ATOM     14  C   UNL     1      34.976 -22.125 -17.628  0.00  0.00    +0.030 C 
ATOM     15  C   UNL     1      33.689 -22.587 -17.372  0.00  0.00    +0.132 C 
ATOM     16  C   UNL     1      33.672 -21.669 -19.415  0.00  0.00    +0.059 C 
ATOM     17  C   UNL     1      35.944 -22.316 -16.628  0.00  0.00    +0.015 C 
ATOM     18  C   UNL     1      35.547 -22.953 -15.454  0.00  0.00    +0.077 C 
ATOM     19  C   UNL     1      34.227 -23.366 -15.330  0.00  0.00    +0.112 C 
ATOM     20  H   UNL     1      31.958 -22.519 -18.554  0.00  0.00    +0.154 HD
ENDBRANCH   9  13
ENDBRANCH   3   9
BRANCH   1  21
ATOM     21  C   UNL     1      35.227 -15.558 -23.271  0.00  0.00    +0.117 C 
BRANCH  21  23
ATOM     22  N   UNL     1      32.960 -12.570 -22.768  0.00  0.00    -0.240 NA
ATOM     23  C   UNL     1      34.380 -14.519 -22.590  0.00  0.00    +0.017 C 
ATOM     24  C   UNL     1      34.220 -14.518 -21.208  0.00  0.00    +0.000 C 
ATOM     25  C   UNL     1      33.735 -13.533 -23.317  0.00  0.00    +0.096 C 
ATOM     26  C   UNL     1      33.431 -13.544 -20.606  0.00  0.00    +0.023 C 
ATOM     27  C   UNL     1      32.828 -12.601 -21.423  0.00  0.00    +0.153 C 
BRANCH  27  31
ATOM     28  F   UNL     1      32.048 -11.501 -19.447  0.00  0.00    -0.164 F 
ATOM     29  F   UNL     1      32.291 -10.278 -21.222  0.00  0.00    -0.164 F 
ATOM     30  F   UNL     1      30.651 -11.701 -21.101  0.00  0.00    -0.164 F 
ATOM     31  C   UNL     1      31.975 -11.542 -20.810  0.00  0.00    +0.435 C 
ENDBRANCH  27  31
ENDBRANCH  21  23
ENDBRANCH   1  21
TORSDOF 5
ENDMDL
