MODEL 1
REMARK VINA RESULT:     -13.6      0.000      0.000
REMARK  Name = 25049750
REMARK  7 active torsions:
REMARK  status: ('A' for Active; 'I' for Inactive)
REMARK    1  A    between atoms: C_1  and  C_14
REMARK    2  A    between atoms: C_6  and  O_20
REMARK    3  A    between atoms: C_10  and  C_17
REMARK    4  A    between atoms: C_17  and  O_18
REMARK    5  A    between atoms: O_20  and  C_21
REMARK    6  A    between atoms: C_21  and  C_23
REMARK    7  A    between atoms: C_27  and  C_32
REMARK                            x       y       z     vdW  Elec       q    Type
REMARK                         _______ _______ _______ _____ _____    ______ ____
ROOT
ATOM      1  C   UNL     1      34.960 -19.848 -21.085  0.00  0.00    -0.004 C 
ATOM      2  C   UNL     1      33.574 -19.759 -20.945  0.00  0.00    +0.000 C 
ATOM      3  C   UNL     1      35.704 -20.603 -20.180  0.00  0.00    +0.000 C 
ATOM      4  C   UNL     1      32.935 -20.425 -19.899  0.00  0.00    +0.037 C 
ATOM      5  C   UNL     1      35.065 -21.269 -19.135  0.00  0.00    +0.037 C 
ATOM      6  C   UNL     1      33.680 -21.181 -18.995  0.00  0.00    +0.139 C 
ENDROOT
BRANCH   1  14
ATOM      7  O   UNL     1      33.717 -17.227 -24.517  0.00  0.00    -0.275 OA
ATOM      8  N   UNL     1      34.782 -18.971 -23.373  0.00  0.00    -0.302 N 
ATOM      9  C   UNL     1      35.160 -16.847 -22.664  0.00  0.00    +0.081 C 
ATOM     10  C   UNL     1      34.439 -15.735 -21.985  0.00  0.00    +0.108 C 
ATOM     11  C   UNL     1      35.539 -15.443 -22.971  0.00  0.00    +0.021 C 
ATOM     12  C   UNL     1      36.089 -17.688 -21.867  0.00  0.00    +0.033 C 
ATOM     13  C   UNL     1      34.452 -17.656 -23.641  0.00  0.00    +0.222 C 
ATOM     14  C   UNL     1      35.652 -19.126 -22.219  0.00  0.00    +0.095 C 
ATOM     15  H   UNL     1      34.459 -19.729 -23.913  0.00  0.00    +0.150 HD
BRANCH  10  17
ATOM     16  O   UNL     1      34.990 -16.206 -19.755  0.00  0.00    -0.250 OA
ATOM     17  C   UNL     1      34.760 -15.374 -20.621  0.00  0.00    +0.314 C 
BRANCH  17  18
ATOM     18  O   UNL     1      34.777 -14.033 -20.425  0.00  0.00    -0.480 OA
ATOM     19  H   UNL     1      34.139 -13.490 -20.845  0.00  0.00    +0.295 HD
ENDBRANCH  17  18
ENDBRANCH  10  17
ENDBRANCH   1  14
BRANCH   6  20
ATOM     20  O   UNL     1      33.052 -21.836 -17.967  0.00  0.00    -0.471 OA
BRANCH  20  21
ATOM     21  C   UNL     1      33.554 -23.119 -17.623  0.00  0.00    +0.229 C 
BRANCH  21  23
ATOM     22  N   UNL     1      33.546 -23.593 -13.371  0.00  0.00    -0.406 NA
ATOM     23  C   UNL     1      33.514 -23.281 -16.135  0.00  0.00    +0.012 C 
ATOM     24  C   UNL     1      32.314 -23.238 -15.411  0.00  0.00    +0.096 C 
ATOM     25  C   UNL     1      34.720 -23.479 -15.478  0.00  0.00    +0.028 C 
ATOM     26  C   UNL     1      32.378 -23.401 -14.011  0.00  0.00    +0.117 C 
ATOM     27  C   UNL     1      34.681 -23.628 -14.106  0.00  0.00    +0.130 C 
ATOM     28  C   UNL     1      31.077 -23.039 -16.048  0.00  0.00    -0.015 C 
ATOM     29  C   UNL     1      31.186 -23.357 -13.294  0.00  0.00    +0.028 C 
ATOM     30  C   UNL     1      29.902 -23.000 -15.305  0.00  0.00    -0.004 C 
ATOM     31  C   UNL     1      29.956 -23.159 -13.926  0.00  0.00    +0.002 C 
BRANCH  27  32
ATOM     32  C   UNL     1      35.890 -23.837 -13.346  0.00  0.00    +0.030 C 
ATOM     33  C   UNL     1      37.001 -24.425 -13.952  0.00  0.00    +0.003 C 
ATOM     34  C   UNL     1      35.948 -23.453 -12.007  0.00  0.00    +0.003 C 
ATOM     35  C   UNL     1      38.171 -24.627 -13.218  0.00  0.00    +0.000 C 
ATOM     36  C   UNL     1      37.118 -23.655 -11.273  0.00  0.00    +0.000 C 
ATOM     37  C   UNL     1      38.228 -24.243 -11.879  0.00  0.00    +0.000 C 
ENDBRANCH  27  32
ENDBRANCH  21  23
ENDBRANCH  20  21
ENDBRANCH   6  20
TORSDOF 7
ENDMDL
MODEL 2
REMARK VINA RESULT:     -12.7      1.341      4.279
REMARK  Name = 25049750
REMARK  7 active torsions:
REMARK  status: ('A' for Active; 'I' for Inactive)
REMARK    1  A    between atoms: C_1  and  C_14
REMARK    2  A    between atoms: C_6  and  O_20
REMARK    3  A    between atoms: C_10  and  C_17
REMARK    4  A    between atoms: C_17  and  O_18
REMARK    5  A    between atoms: O_20  and  C_21
REMARK    6  A    between atoms: C_21  and  C_23
REMARK    7  A    between atoms: C_27  and  C_32
REMARK                            x       y       z     vdW  Elec       q    Type
REMARK                         _______ _______ _______ _____ _____    ______ ____
ROOT
ATOM      1  C   UNL     1      35.128 -18.617 -21.953  0.00  0.00    -0.004 C 
ATOM      2  C   UNL     1      36.036 -19.085 -21.001  0.00  0.00    +0.000 C 
ATOM      3  C   UNL     1      33.802 -19.047 -21.921  0.00  0.00    +0.000 C 
ATOM      4  C   UNL     1      35.616 -19.982 -20.019  0.00  0.00    +0.037 C 
ATOM      5  C   UNL     1      33.383 -19.945 -20.939  0.00  0.00    +0.037 C 
ATOM      6  C   UNL     1      34.290 -20.412 -19.987  0.00  0.00    +0.139 C 
ENDROOT
BRANCH   1  14
ATOM      7  O   UNL     1      33.156 -15.970 -25.001  0.00  0.00    -0.275 OA
ATOM      8  N   UNL     1      34.632 -17.555 -24.112  0.00  0.00    -0.302 N 
ATOM      9  C   UNL     1      34.595 -15.490 -23.167  0.00  0.00    +0.081 C 
ATOM     10  C   UNL     1      33.697 -14.642 -22.335  0.00  0.00    +0.108 C 
ATOM     11  C   UNL     1      34.650 -14.012 -23.317  0.00  0.00    +0.021 C 
ATOM     12  C   UNL     1      35.726 -16.191 -22.509  0.00  0.00    +0.033 C 
ATOM     13  C   UNL     1      34.016 -16.322 -24.209  0.00  0.00    +0.222 C 
ATOM     14  C   UNL     1      35.583 -17.643 -23.016  0.00  0.00    +0.095 C 
ATOM     15  H   UNL     1      34.445 -18.301 -24.726  0.00  0.00    +0.150 HD
BRANCH  10  17
ATOM     16  O   UNL     1      34.685 -15.132 -20.266  0.00  0.00    -0.250 OA
ATOM     17  C   UNL     1      34.016 -14.371 -20.950  0.00  0.00    +0.314 C 
BRANCH  17  18
ATOM     18  O   UNL     1      33.496 -13.198 -20.514  0.00  0.00    -0.480 OA
ATOM     19  H   UNL     1      32.615 -12.967 -20.730  0.00  0.00    +0.295 HD
ENDBRANCH  17  18
ENDBRANCH  10  17
ENDBRANCH   1  14
BRANCH   6  20
ATOM     20  O   UNL     1      33.878 -21.294 -19.023  0.00  0.00    -0.471 OA
BRANCH  20  21
ATOM     21  C   UNL     1      34.880 -22.106 -18.427  0.00  0.00    +0.229 C 
BRANCH  21  23
ATOM     22  N   UNL     1      33.417 -23.440 -14.633  0.00  0.00    -0.406 NA
ATOM     23  C   UNL     1      34.403 -22.571 -17.086  0.00  0.00    +0.012 C 
ATOM     24  C   UNL     1      35.275 -22.750 -16.004  0.00  0.00    +0.096 C 
ATOM     25  C   UNL     1      33.047 -22.825 -16.939  0.00  0.00    +0.028 C 
ATOM     26  C   UNL     1      34.732 -23.191 -14.779  0.00  0.00    +0.117 C 
ATOM     27  C   UNL     1      32.609 -23.255 -15.702  0.00  0.00    +0.130 C 
ATOM     28  C   UNL     1      36.654 -22.500 -16.121  0.00  0.00    -0.015 C 
ATOM     29  C   UNL     1      35.600 -23.369 -13.705  0.00  0.00    +0.028 C 
ATOM     30  C   UNL     1      37.498 -22.686 -15.031  0.00  0.00    -0.004 C 
ATOM     31  C   UNL     1      36.970 -23.121 -13.821  0.00  0.00    +0.002 C 
BRANCH  27  32
ATOM     32  C   UNL     1      31.215 -23.542 -15.465  0.00  0.00    +0.030 C 
ATOM     33  C   UNL     1      30.852 -24.538 -14.558  0.00  0.00    +0.003 C 
ATOM     34  C   UNL     1      30.229 -22.825 -16.144  0.00  0.00    +0.003 C 
ATOM     35  C   UNL     1      29.504 -24.815 -14.328  0.00  0.00    +0.000 C 
ATOM     36  C   UNL     1      28.882 -23.102 -15.914  0.00  0.00    +0.000 C 
ATOM     37  C   UNL     1      28.519 -24.098 -15.007  0.00  0.00    +0.000 C 
ENDBRANCH  27  32
ENDBRANCH  21  23
ENDBRANCH  20  21
ENDBRANCH   6  20
TORSDOF 7
ENDMDL
MODEL 3
REMARK VINA RESULT:     -12.1      4.750      9.294
REMARK  Name = 25049750
REMARK  7 active torsions:
REMARK  status: ('A' for Active; 'I' for Inactive)
REMARK    1  A    between atoms: C_1  and  C_14
REMARK    2  A    between atoms: C_6  and  O_20
REMARK    3  A    between atoms: C_10  and  C_17
REMARK    4  A    between atoms: C_17  and  O_18
REMARK    5  A    between atoms: O_20  and  C_21
REMARK    6  A    between atoms: C_21  and  C_23
REMARK    7  A    between atoms: C_27  and  C_32
REMARK                            x       y       z     vdW  Elec       q    Type
REMARK                         _______ _______ _______ _____ _____    ______ ____
ROOT
ATOM      1  C   UNL     1      32.161 -11.578 -21.222  0.00  0.00    -0.004 C 
ATOM      2  C   UNL     1      32.886 -11.502 -22.412  0.00  0.00    +0.000 C 
ATOM      3  C   UNL     1      32.391 -12.626 -20.331  0.00  0.00    +0.000 C 
ATOM      4  C   UNL     1      33.840 -12.475 -22.710  0.00  0.00    +0.037 C 
ATOM      5  C   UNL     1      33.346 -13.598 -20.629  0.00  0.00    +0.037 C 
ATOM      6  C   UNL     1      34.071 -13.523 -21.818  0.00  0.00    +0.139 C 
ENDROOT
BRANCH   1  14
ATOM      7  O   UNL     1      31.928  -7.950 -18.580  0.00  0.00    -0.275 OA
ATOM      8  N   UNL     1      31.304  -9.983 -19.560  0.00  0.00    -0.302 N 
ATOM      9  C   UNL     1      31.716  -8.223 -20.934  0.00  0.00    +0.081 C 
ATOM     10  C   UNL     1      32.863  -7.398 -21.405  0.00  0.00    +0.108 C 
ATOM     11  C   UNL     1      31.485  -6.800 -21.296  0.00  0.00    +0.021 C 
ATOM     12  C   UNL     1      31.189  -9.288 -21.825  0.00  0.00    +0.033 C 
ATOM     13  C   UNL     1      31.676  -8.653 -19.547  0.00  0.00    +0.222 C 
ATOM     14  C   UNL     1      31.128 -10.522 -20.899  0.00  0.00    +0.095 C 
ATOM     15  H   UNL     1      31.171 -10.515 -18.742  0.00  0.00    +0.150 HD
BRANCH  10  17
ATOM     16  O   UNL     1      33.021  -6.741 -23.651  0.00  0.00    -0.250 OA
ATOM     17  C   UNL     1      33.346  -7.517 -22.764  0.00  0.00    +0.314 C 
BRANCH  17  18
ATOM     18  O   UNL     1      34.185  -8.569 -22.929  0.00  0.00    -0.480 OA
ATOM     19  H   UNL     1      34.686  -8.887 -22.205  0.00  0.00    +0.295 HD
ENDBRANCH  17  18
ENDBRANCH  10  17
ENDBRANCH   1  14
BRANCH   6  20
ATOM     20  O   UNL     1      35.008 -14.479 -22.111  0.00  0.00    -0.471 OA
BRANCH  20  21
ATOM     21  C   UNL     1      35.360 -15.373 -21.065  0.00  0.00    +0.229 C 
BRANCH  21  23
ATOM     22  N   UNL     1      34.442 -19.406 -22.160  0.00  0.00    -0.406 NA
ATOM     23  C   UNL     1      35.031 -16.773 -21.483  0.00  0.00    +0.012 C 
ATOM     24  C   UNL     1      34.630 -17.087 -22.788  0.00  0.00    +0.096 C 
ATOM     25  C   UNL     1      35.137 -17.771 -20.525  0.00  0.00    +0.028 C 
ATOM     26  C   UNL     1      34.341 -18.436 -23.088  0.00  0.00    +0.117 C 
ATOM     27  C   UNL     1      34.833 -19.061 -20.912  0.00  0.00    +0.130 C 
ATOM     28  C   UNL     1      34.514 -16.099 -23.781  0.00  0.00    -0.015 C 
ATOM     29  C   UNL     1      33.943 -18.747 -24.384  0.00  0.00    +0.028 C 
ATOM     30  C   UNL     1      34.113 -16.439 -25.069  0.00  0.00    -0.004 C 
ATOM     31  C   UNL     1      33.827 -17.765 -25.371  0.00  0.00    +0.002 C 
BRANCH  27  32
ATOM     32  C   UNL     1      34.916 -20.157 -19.977  0.00  0.00    +0.030 C 
ATOM     33  C   UNL     1      33.757 -20.820 -19.574  0.00  0.00    +0.003 C 
ATOM     34  C   UNL     1      36.156 -20.554 -19.476  0.00  0.00    +0.003 C 
ATOM     35  C   UNL     1      33.837 -21.880 -18.671  0.00  0.00    +0.000 C 
ATOM     36  C   UNL     1      36.236 -21.614 -18.572  0.00  0.00    +0.000 C 
ATOM     37  C   UNL     1      35.077 -22.276 -18.169  0.00  0.00    +0.000 C 
ENDBRANCH  27  32
ENDBRANCH  21  23
ENDBRANCH  20  21
ENDBRANCH   6  20
TORSDOF 7
ENDMDL
MODEL 4
REMARK VINA RESULT:     -12.0      5.504     10.285
REMARK  Name = 25049750
REMARK  7 active torsions:
REMARK  status: ('A' for Active; 'I' for Inactive)
REMARK    1  A    between atoms: C_1  and  C_14
REMARK    2  A    between atoms: C_6  and  O_20
REMARK    3  A    between atoms: C_10  and  C_17
REMARK    4  A    between atoms: C_17  and  O_18
REMARK    5  A    between atoms: O_20  and  C_21
REMARK    6  A    between atoms: C_21  and  C_23
REMARK    7  A    between atoms: C_27  and  C_32
REMARK                            x       y       z     vdW  Elec       q    Type
REMARK                         _______ _______ _______ _____ _____    ______ ____
ROOT
ATOM      1  C   UNL     1      31.767  -9.934 -20.282  0.00  0.00    -0.004 C 
ATOM      2  C   UNL     1      31.993 -10.505 -21.536  0.00  0.00    +0.000 C 
ATOM      3  C   UNL     1      31.934 -10.699 -19.128  0.00  0.00    +0.000 C 
ATOM      4  C   UNL     1      32.385 -11.840 -21.634  0.00  0.00    +0.037 C 
ATOM      5  C   UNL     1      32.327 -12.034 -19.227  0.00  0.00    +0.037 C 
ATOM      6  C   UNL     1      32.553 -12.605 -20.480  0.00  0.00    +0.139 C 
ENDROOT
BRANCH   1  14
ATOM      7  O   UNL     1      33.692  -6.059 -19.072  0.00  0.00    -0.275 OA
ATOM      8  N   UNL     1      32.101  -7.774 -19.161  0.00  0.00    -0.302 N 
ATOM      9  C   UNL     1      32.695  -6.774 -21.110  0.00  0.00    +0.081 C 
ATOM     10  C   UNL     1      33.865  -6.686 -22.027  0.00  0.00    +0.108 C 
ATOM     11  C   UNL     1      32.906  -5.532 -21.901  0.00  0.00    +0.021 C 
ATOM     12  C   UNL     1      31.572  -7.676 -21.470  0.00  0.00    +0.033 C 
ATOM     13  C   UNL     1      32.921  -6.788 -19.675  0.00  0.00    +0.222 C 
ATOM     14  C   UNL     1      31.343  -8.487 -20.176  0.00  0.00    +0.095 C 
ATOM     15  H   UNL     1      32.035  -7.973 -18.198  0.00  0.00    +0.150 HD
BRANCH  10  17
ATOM     16  O   UNL     1      33.840  -8.551 -23.449  0.00  0.00    -0.250 OA
ATOM     17  C   UNL     1      33.837  -7.335 -23.321  0.00  0.00    +0.314 C 
BRANCH  17  18
ATOM     18  O   UNL     1      33.805  -6.452 -24.348  0.00  0.00    -0.480 OA
ATOM     19  H   UNL     1      33.592  -6.745 -25.211  0.00  0.00    +0.295 HD
ENDBRANCH  17  18
ENDBRANCH  10  17
ENDBRANCH   1  14
BRANCH   6  20
ATOM     20  O   UNL     1      32.938 -13.916 -20.576  0.00  0.00    -0.471 OA
BRANCH  20  21
ATOM     21  C   UNL     1      34.334 -14.171 -20.647  0.00  0.00    +0.229 C 
BRANCH  21  23
ATOM     22  N   UNL     1      35.013 -17.891 -22.648  0.00  0.00    -0.406 NA
ATOM     23  C   UNL     1      34.563 -15.456 -21.380  0.00  0.00    +0.012 C 
ATOM     24  C   UNL     1      34.424 -15.558 -22.771  0.00  0.00    +0.096 C 
ATOM     25  C   UNL     1      34.926 -16.566 -20.631  0.00  0.00    +0.028 C 
ATOM     26  C   UNL     1      34.662 -16.812 -23.372  0.00  0.00    +0.117 C 
ATOM     27  C   UNL     1      35.137 -17.751 -21.309  0.00  0.00    +0.130 C 
ATOM     28  C   UNL     1      34.058 -14.451 -23.557  0.00  0.00    -0.015 C 
ATOM     29  C   UNL     1      34.522 -16.912 -24.753  0.00  0.00    +0.028 C 
ATOM     30  C   UNL     1      33.926 -14.580 -24.936  0.00  0.00    -0.004 C 
ATOM     31  C   UNL     1      34.159 -15.812 -25.535  0.00  0.00    +0.002 C 
BRANCH  27  32
ATOM     32  C   UNL     1      35.516 -18.953 -20.605  0.00  0.00    +0.030 C 
ATOM     33  C   UNL     1      36.854 -19.175 -20.274  0.00  0.00    +0.003 C 
ATOM     34  C   UNL     1      34.547 -19.892 -20.255  0.00  0.00    +0.003 C 
ATOM     35  C   UNL     1      37.220 -20.336 -19.593  0.00  0.00    +0.000 C 
ATOM     36  C   UNL     1      34.913 -21.053 -19.574  0.00  0.00    +0.000 C 
ATOM     37  C   UNL     1      36.250 -21.275 -19.244  0.00  0.00    +0.000 C 
ENDBRANCH  27  32
ENDBRANCH  21  23
ENDBRANCH  20  21
ENDBRANCH   6  20
TORSDOF 7
ENDMDL
MODEL 5
REMARK VINA RESULT:     -11.7      5.075      9.603
REMARK  Name = 25049750
REMARK  7 active torsions:
REMARK  status: ('A' for Active; 'I' for Inactive)
REMARK    1  A    between atoms: C_1  and  C_14
REMARK    2  A    between atoms: C_6  and  O_20
REMARK    3  A    between atoms: C_10  and  C_17
REMARK    4  A    between atoms: C_17  and  O_18
REMARK    5  A    between atoms: O_20  and  C_21
REMARK    6  A    between atoms: C_21  and  C_23
REMARK    7  A    between atoms: C_27  and  C_32
REMARK                            x       y       z     vdW  Elec       q    Type
REMARK                         _______ _______ _______ _____ _____    ______ ____
ROOT
ATOM      1  C   UNL     1      33.239 -10.552 -22.606  0.00  0.00    -0.004 C 
ATOM      2  C   UNL     1      34.188 -11.450 -23.095  0.00  0.00    +0.000 C 
ATOM      3  C   UNL     1      32.408 -10.922 -21.549  0.00  0.00    +0.000 C 
ATOM      4  C   UNL     1      34.306 -12.718 -22.526  0.00  0.00    +0.037 C 
ATOM      5  C   UNL     1      32.526 -12.190 -20.981  0.00  0.00    +0.037 C 
ATOM      6  C   UNL     1      33.475 -13.089 -21.468  0.00  0.00    +0.139 C 
ENDROOT
BRANCH   1  14
ATOM      7  O   UNL     1      30.089  -7.354 -22.816  0.00  0.00    -0.275 OA
ATOM      8  N   UNL     1      31.732  -8.853 -23.546  0.00  0.00    -0.302 N 
ATOM      9  C   UNL     1      32.298  -7.359 -21.932  0.00  0.00    +0.081 C 
ATOM     10  C   UNL     1      32.014  -7.081 -20.497  0.00  0.00    +0.108 C 
ATOM     11  C   UNL     1      32.337  -5.955 -21.444  0.00  0.00    +0.021 C 
ATOM     12  C   UNL     1      33.571  -8.034 -22.291  0.00  0.00    +0.033 C 
ATOM     13  C   UNL     1      31.218  -7.817 -22.790  0.00  0.00    +0.222 C 
ATOM     14  C   UNL     1      33.112  -9.177 -23.222  0.00  0.00    +0.095 C 
ATOM     15  H   UNL     1      31.214  -9.326 -24.237  0.00  0.00    +0.150 HD
BRANCH  10  17
ATOM     16  O   UNL     1      33.789  -6.434 -19.107  0.00  0.00    -0.250 OA
ATOM     17  C   UNL     1      33.027  -7.310 -19.489  0.00  0.00    +0.314 C 
BRANCH  17  18
ATOM     18  O   UNL     1      33.027  -8.585 -19.030  0.00  0.00    -0.480 OA
ATOM     19  H   UNL     1      33.553  -8.817 -18.290  0.00  0.00    +0.295 HD
ENDBRANCH  17  18
ENDBRANCH  10  17
ENDBRANCH   1  14
BRANCH   6  20
ATOM     20  O   UNL     1      33.591 -14.335 -20.909  0.00  0.00    -0.471 OA
BRANCH  20  21
ATOM     21  C   UNL     1      34.884 -14.922 -20.915  0.00  0.00    +0.229 C 
BRANCH  21  23
ATOM     22  N   UNL     1      34.634 -18.945 -22.350  0.00  0.00    -0.406 NA
ATOM     23  C   UNL     1      34.790 -16.316 -21.451  0.00  0.00    +0.012 C 
ATOM     24  C   UNL     1      34.529 -16.581 -22.802  0.00  0.00    +0.096 C 
ATOM     25  C   UNL     1      34.972 -17.362 -20.557  0.00  0.00    +0.028 C 
ATOM     26  C   UNL     1      34.459 -17.928 -23.214  0.00  0.00    +0.117 C 
ATOM     27  C   UNL     1      34.884 -18.647 -21.054  0.00  0.00    +0.130 C 
ATOM     28  C   UNL     1      34.341 -15.543 -23.732  0.00  0.00    -0.015 C 
ATOM     29  C   UNL     1      34.199 -18.189 -24.556  0.00  0.00    +0.028 C 
ATOM     30  C   UNL     1      34.083 -15.834 -25.068  0.00  0.00    -0.004 C 
ATOM     31  C   UNL     1      34.012 -17.159 -25.481  0.00  0.00    +0.002 C 
BRANCH  27  32
ATOM     32  C   UNL     1      35.060 -19.791 -20.191  0.00  0.00    +0.030 C 
ATOM     33  C   UNL     1      33.950 -20.524 -19.770  0.00  0.00    +0.003 C 
ATOM     34  C   UNL     1      36.339 -20.164 -19.779  0.00  0.00    +0.003 C 
ATOM     35  C   UNL     1      34.120 -21.630 -18.937  0.00  0.00    +0.000 C 
ATOM     36  C   UNL     1      36.508 -21.271 -18.946  0.00  0.00    +0.000 C 
ATOM     37  C   UNL     1      35.399 -22.002 -18.524  0.00  0.00    +0.000 C 
ENDBRANCH  27  32
ENDBRANCH  21  23
ENDBRANCH  20  21
ENDBRANCH   6  20
TORSDOF 7
ENDMDL
MODEL 6
REMARK VINA RESULT:     -11.6      5.473     12.536
REMARK  Name = 25049750
REMARK  7 active torsions:
REMARK  status: ('A' for Active; 'I' for Inactive)
REMARK    1  A    between atoms: C_1  and  C_14
REMARK    2  A    between atoms: C_6  and  O_20
REMARK    3  A    between atoms: C_10  and  C_17
REMARK    4  A    between atoms: C_17  and  O_18
REMARK    5  A    between atoms: O_20  and  C_21
REMARK    6  A    between atoms: C_21  and  C_23
REMARK    7  A    between atoms: C_27  and  C_32
REMARK                            x       y       z     vdW  Elec       q    Type
REMARK                         _______ _______ _______ _____ _____    ______ ____
ROOT
ATOM      1  C   UNL     1      35.206 -17.078 -23.180  0.00  0.00    -0.004 C 
ATOM      2  C   UNL     1      35.322 -15.999 -22.302  0.00  0.00    +0.000 C 
ATOM      3  C   UNL     1      34.396 -16.974 -24.310  0.00  0.00    +0.000 C 
ATOM      4  C   UNL     1      34.626 -14.817 -22.556  0.00  0.00    +0.037 C 
ATOM      5  C   UNL     1      33.702 -15.791 -24.564  0.00  0.00    +0.037 C 
ATOM      6  C   UNL     1      33.817 -14.712 -23.688  0.00  0.00    +0.139 C 
ENDROOT
BRANCH   1  14
ATOM      7  O   UNL     1      37.192 -18.989 -19.631  0.00  0.00    -0.275 OA
ATOM      8  N   UNL     1      36.915 -18.203 -21.818  0.00  0.00    -0.302 N 
ATOM      9  C   UNL     1      35.400 -19.698 -21.027  0.00  0.00    +0.081 C 
ATOM     10  C   UNL     1      34.295 -19.771 -20.031  0.00  0.00    +0.108 C 
ATOM     11  C   UNL     1      35.108 -20.995 -20.361  0.00  0.00    +0.021 C 
ATOM     12  C   UNL     1      35.058 -19.530 -22.462  0.00  0.00    +0.033 C 
ATOM     13  C   UNL     1      36.600 -18.947 -20.698  0.00  0.00    +0.222 C 
ATOM     14  C   UNL     1      35.961 -18.359 -22.905  0.00  0.00    +0.095 C 
ATOM     15  H   UNL     1      37.709 -17.623 -21.876  0.00  0.00    +0.150 HD
BRANCH  10  17
ATOM     16  O   UNL     1      32.571 -19.586 -21.609  0.00  0.00    -0.250 OA
ATOM     17  C   UNL     1      32.917 -19.845 -20.466  0.00  0.00    +0.314 C 
BRANCH  17  18
ATOM     18  O   UNL     1      32.077 -20.231 -19.474  0.00  0.00    -0.480 OA
ATOM     19  H   UNL     1      32.407 -20.703 -18.737  0.00  0.00    +0.295 HD
ENDBRANCH  17  18
ENDBRANCH  10  17
ENDBRANCH   1  14
BRANCH   6  20
ATOM     20  O   UNL     1      33.134 -13.550 -23.937  0.00  0.00    -0.471 OA
BRANCH  20  21
ATOM     21  C   UNL     1      33.901 -12.357 -24.000  0.00  0.00    +0.229 C 
BRANCH  21  23
ATOM     22  N   UNL     1      32.081  -9.296 -21.627  0.00  0.00    -0.406 NA
ATOM     23  C   UNL     1      33.257 -11.311 -23.144  0.00  0.00    +0.012 C 
ATOM     24  C   UNL     1      32.711 -11.608 -21.888  0.00  0.00    +0.096 C 
ATOM     25  C   UNL     1      33.215 -10.014 -23.635  0.00  0.00    +0.028 C 
ATOM     26  C   UNL     1      32.125 -10.555 -21.153  0.00  0.00    +0.117 C 
ATOM     27  C   UNL     1      32.620  -9.052 -22.844  0.00  0.00    +0.130 C 
ATOM     28  C   UNL     1      32.739 -12.911 -21.362  0.00  0.00    -0.015 C 
ATOM     29  C   UNL     1      31.582 -10.851 -19.906  0.00  0.00    +0.028 C 
ATOM     30  C   UNL     1      32.188 -13.178 -20.112  0.00  0.00    -0.004 C 
ATOM     31  C   UNL     1      31.610 -12.146 -19.383  0.00  0.00    +0.002 C 
BRANCH  27  32
ATOM     32  C   UNL     1      32.534  -7.679 -23.282  0.00  0.00    +0.030 C 
ATOM     33  C   UNL     1      33.692  -6.909 -23.395  0.00  0.00    +0.003 C 
ATOM     34  C   UNL     1      31.294  -7.122 -23.591  0.00  0.00    +0.003 C 
ATOM     35  C   UNL     1      33.609  -5.582 -23.818  0.00  0.00    +0.000 C 
ATOM     36  C   UNL     1      31.211  -5.795 -24.015  0.00  0.00    +0.000 C 
ATOM     37  C   UNL     1      32.369  -5.025 -24.127  0.00  0.00    +0.000 C 
ENDBRANCH  27  32
ENDBRANCH  21  23
ENDBRANCH  20  21
ENDBRANCH   6  20
TORSDOF 7
ENDMDL
MODEL 7
REMARK VINA RESULT:     -11.6      1.327      4.503
REMARK  Name = 25049750
REMARK  7 active torsions:
REMARK  status: ('A' for Active; 'I' for Inactive)
REMARK    1  A    between atoms: C_1  and  C_14
REMARK    2  A    between atoms: C_6  and  O_20
REMARK    3  A    between atoms: C_10  and  C_17
REMARK    4  A    between atoms: C_17  and  O_18
REMARK    5  A    between atoms: O_20  and  C_21
REMARK    6  A    between atoms: C_21  and  C_23
REMARK    7  A    between atoms: C_27  and  C_32
REMARK                            x       y       z     vdW  Elec       q    Type
REMARK                         _______ _______ _______ _____ _____    ______ ____
ROOT
ATOM      1  C   UNL     1      34.951 -19.566 -21.387  0.00  0.00    -0.004 C 
ATOM      2  C   UNL     1      33.556 -19.518 -21.351  0.00  0.00    +0.000 C 
ATOM      3  C   UNL     1      35.644 -20.367 -20.481  0.00  0.00    +0.000 C 
ATOM      4  C   UNL     1      32.857 -20.272 -20.409  0.00  0.00    +0.037 C 
ATOM      5  C   UNL     1      34.944 -21.121 -19.539  0.00  0.00    +0.037 C 
ATOM      6  C   UNL     1      33.551 -21.075 -19.503  0.00  0.00    +0.139 C 
ENDROOT
BRANCH   1  14
ATOM      7  O   UNL     1      33.901 -16.860 -24.818  0.00  0.00    -0.275 OA
ATOM      8  N   UNL     1      34.953 -18.590 -23.642  0.00  0.00    -0.302 N 
ATOM      9  C   UNL     1      35.117 -16.485 -22.807  0.00  0.00    +0.081 C 
ATOM     10  C   UNL     1      34.259 -15.453 -22.162  0.00  0.00    +0.108 C 
ATOM     11  C   UNL     1      35.434 -15.047 -23.012  0.00  0.00    +0.021 C 
ATOM     12  C   UNL     1      36.011 -17.306 -21.952  0.00  0.00    +0.033 C 
ATOM     13  C   UNL     1      34.568 -17.286 -23.888  0.00  0.00    +0.222 C 
ATOM     14  C   UNL     1      35.708 -18.749 -22.410  0.00  0.00    +0.095 C 
ATOM     15  H   UNL     1      34.738 -19.339 -24.244  0.00  0.00    +0.150 HD
BRANCH  10  17
ATOM     16  O   UNL     1      34.762 -15.971 -19.932  0.00  0.00    -0.250 OA
ATOM     17  C   UNL     1      34.414 -15.140 -20.758  0.00  0.00    +0.314 C 
BRANCH  17  18
ATOM     18  O   UNL     1      34.134 -13.844 -20.477  0.00  0.00    -0.480 OA
ATOM     19  H   UNL     1      33.531 -13.368 -21.013  0.00  0.00    +0.295 HD
ENDBRANCH  17  18
ENDBRANCH  10  17
ENDBRANCH   1  14
BRANCH   6  20
ATOM     20  O   UNL     1      32.864 -21.815 -18.577  0.00  0.00    -0.471 OA
BRANCH  20  21
ATOM     21  C   UNL     1      33.640 -22.564 -17.651  0.00  0.00    +0.229 C 
BRANCH  21  23
ATOM     22  N   UNL     1      31.160 -23.444 -14.277  0.00  0.00    -0.406 NA
ATOM     23  C   UNL     1      32.803 -22.883 -16.452  0.00  0.00    +0.012 C 
ATOM     24  C   UNL     1      33.354 -23.406 -15.274  0.00  0.00    +0.096 C 
ATOM     25  C   UNL     1      31.439 -22.643 -16.538  0.00  0.00    +0.028 C 
ATOM     26  C   UNL     1      32.484 -23.675 -14.197  0.00  0.00    +0.117 C 
ATOM     27  C   UNL     1      30.668 -22.939 -15.431  0.00  0.00    +0.130 C 
ATOM     28  C   UNL     1      34.731 -23.660 -15.156  0.00  0.00    -0.015 C 
ATOM     29  C   UNL     1      33.033 -24.195 -13.028  0.00  0.00    +0.028 C 
ATOM     30  C   UNL     1      35.252 -24.180 -13.975  0.00  0.00    -0.004 C 
ATOM     31  C   UNL     1      34.402 -24.447 -12.910  0.00  0.00    +0.002 C 
BRANCH  27  32
ATOM     32  C   UNL     1      29.242 -22.719 -15.438  0.00  0.00    +0.030 C 
ATOM     33  C   UNL     1      28.502 -22.974 -16.594  0.00  0.00    +0.003 C 
ATOM     34  C   UNL     1      28.602 -22.251 -14.291  0.00  0.00    +0.003 C 
ATOM     35  C   UNL     1      27.123 -22.763 -16.601  0.00  0.00    +0.000 C 
ATOM     36  C   UNL     1      27.223 -22.040 -14.298  0.00  0.00    +0.000 C 
ATOM     37  C   UNL     1      26.484 -22.295 -15.453  0.00  0.00    +0.000 C 
ENDBRANCH  27  32
ENDBRANCH  21  23
ENDBRANCH  20  21
ENDBRANCH   6  20
TORSDOF 7
ENDMDL
MODEL 8
REMARK VINA RESULT:     -11.5      4.757     12.352
REMARK  Name = 25049750
REMARK  7 active torsions:
REMARK  status: ('A' for Active; 'I' for Inactive)
REMARK    1  A    between atoms: C_1  and  C_14
REMARK    2  A    between atoms: C_6  and  O_20
REMARK    3  A    between atoms: C_10  and  C_17
REMARK    4  A    between atoms: C_17  and  O_18
REMARK    5  A    between atoms: O_20  and  C_21
REMARK    6  A    between atoms: C_21  and  C_23
REMARK    7  A    between atoms: C_27  and  C_32
REMARK                            x       y       z     vdW  Elec       q    Type
REMARK                         _______ _______ _______ _____ _____    ______ ____
ROOT
ATOM      1  C   UNL     1      35.568 -17.425 -21.197  0.00  0.00    -0.004 C 
ATOM      2  C   UNL     1      35.278 -16.930 -19.925  0.00  0.00    +0.000 C 
ATOM      3  C   UNL     1      35.320 -16.642 -22.324  0.00  0.00    +0.000 C 
ATOM      4  C   UNL     1      34.739 -15.651 -19.781  0.00  0.00    +0.037 C 
ATOM      5  C   UNL     1      34.781 -15.363 -22.179  0.00  0.00    +0.037 C 
ATOM      6  C   UNL     1      34.491 -14.867 -20.908  0.00  0.00    +0.139 C 
ENDROOT
BRANCH   1  14
ATOM      7  O   UNL     1      37.159 -20.613 -18.459  0.00  0.00    -0.275 OA
ATOM      8  N   UNL     1      37.071 -19.135 -20.272  0.00  0.00    -0.302 N 
ATOM      9  C   UNL     1      35.358 -20.602 -20.014  0.00  0.00    +0.081 C 
ATOM     10  C   UNL     1      34.210 -20.853 -19.098  0.00  0.00    +0.108 C 
ATOM     11  C   UNL     1      34.886 -21.996 -19.808  0.00  0.00    +0.021 C 
ATOM     12  C   UNL     1      35.100 -19.939 -21.317  0.00  0.00    +0.033 C 
ATOM     13  C   UNL     1      36.623 -20.155 -19.456  0.00  0.00    +0.222 C 
ATOM     14  C   UNL     1      36.154 -18.811 -21.352  0.00  0.00    +0.095 C 
ATOM     15  H   UNL     1      37.930 -18.672 -20.136  0.00  0.00    +0.150 HD
BRANCH  10  17
ATOM     16  O   UNL     1      32.590 -20.086 -20.609  0.00  0.00    -0.250 OA
ATOM     17  C   UNL     1      32.853 -20.609 -19.536  0.00  0.00    +0.314 C 
BRANCH  17  18
ATOM     18  O   UNL     1      31.930 -21.023 -18.634  0.00  0.00    -0.480 OA
ATOM     19  H   UNL     1      32.150 -21.686 -18.010  0.00  0.00    +0.295 HD
ENDBRANCH  17  18
ENDBRANCH  10  17
ENDBRANCH   1  14
BRANCH   6  20
ATOM     20  O   UNL     1      33.961 -13.611 -20.767  0.00  0.00    -0.471 OA
BRANCH  20  21
ATOM     21  C   UNL     1      32.746 -13.347 -21.454  0.00  0.00    +0.229 C 
BRANCH  21  23
ATOM     22  N   UNL     1      33.354 -10.085 -24.156  0.00  0.00    -0.406 NA
ATOM     23  C   UNL     1      32.964 -12.230 -22.427  0.00  0.00    +0.012 C 
ATOM     24  C   UNL     1      33.220 -12.463 -23.785  0.00  0.00    +0.096 C 
ATOM     25  C   UNL     1      32.903 -10.933 -21.940  0.00  0.00    +0.028 C 
ATOM     26  C   UNL     1      33.412 -11.346 -24.625  0.00  0.00    +0.117 C 
ATOM     27  C   UNL     1      33.104  -9.904 -22.839  0.00  0.00    +0.130 C 
ATOM     28  C   UNL     1      33.287 -13.765 -24.309  0.00  0.00    -0.015 C 
ATOM     29  C   UNL     1      33.667 -11.578 -25.974  0.00  0.00    +0.028 C 
ATOM     30  C   UNL     1      33.544 -13.968 -25.661  0.00  0.00    -0.004 C 
ATOM     31  C   UNL     1      33.734 -12.872 -26.495  0.00  0.00    +0.002 C 
BRANCH  27  32
ATOM     32  C   UNL     1      33.059  -8.526 -22.413  0.00  0.00    +0.030 C 
ATOM     33  C   UNL     1      33.584  -7.525 -23.232  0.00  0.00    +0.003 C 
ATOM     34  C   UNL     1      32.490  -8.193 -21.184  0.00  0.00    +0.003 C 
ATOM     35  C   UNL     1      33.539  -6.193 -22.822  0.00  0.00    +0.000 C 
ATOM     36  C   UNL     1      32.445  -6.860 -20.774  0.00  0.00    +0.000 C 
ATOM     37  C   UNL     1      32.971  -5.861 -21.592  0.00  0.00    +0.000 C 
ENDBRANCH  27  32
ENDBRANCH  21  23
ENDBRANCH  20  21
ENDBRANCH   6  20
TORSDOF 7
ENDMDL
MODEL 9
REMARK VINA RESULT:     -11.3      3.354     10.957
REMARK  Name = 25049750
REMARK  7 active torsions:
REMARK  status: ('A' for Active; 'I' for Inactive)
REMARK    1  A    between atoms: C_1  and  C_14
REMARK    2  A    between atoms: C_6  and  O_20
REMARK    3  A    between atoms: C_10  and  C_17
REMARK    4  A    between atoms: C_17  and  O_18
REMARK    5  A    between atoms: O_20  and  C_21
REMARK    6  A    between atoms: C_21  and  C_23
REMARK    7  A    between atoms: C_27  and  C_32
REMARK                            x       y       z     vdW  Elec       q    Type
REMARK                         _______ _______ _______ _____ _____    ______ ____
ROOT
ATOM      1  C   UNL     1      35.903 -20.533 -19.779  0.00  0.00    -0.004 C 
ATOM      2  C   UNL     1      34.610 -20.192 -20.180  0.00  0.00    +0.000 C 
ATOM      3  C   UNL     1      36.958 -19.648 -20.003  0.00  0.00    +0.000 C 
ATOM      4  C   UNL     1      34.374 -18.967 -20.804  0.00  0.00    +0.037 C 
ATOM      5  C   UNL     1      36.721 -18.424 -20.626  0.00  0.00    +0.037 C 
ATOM      6  C   UNL     1      35.429 -18.082 -21.026  0.00  0.00    +0.139 C 
ENDROOT
BRANCH   1  14
ATOM      7  O   UNL     1      36.196 -22.028 -15.552  0.00  0.00    -0.275 OA
ATOM      8  N   UNL     1      36.775 -21.692 -17.796  0.00  0.00    -0.302 N 
ATOM      9  C   UNL     1      34.742 -22.599 -17.347  0.00  0.00    +0.081 C 
ATOM     10  C   UNL     1      33.429 -22.203 -16.765  0.00  0.00    +0.108 C 
ATOM     11  C   UNL     1      33.923 -23.621 -16.643  0.00  0.00    +0.021 C 
ATOM     12  C   UNL     1      34.876 -22.673 -18.824  0.00  0.00    +0.033 C 
ATOM     13  C   UNL     1      35.963 -22.086 -16.749  0.00  0.00    +0.222 C 
ATOM     14  C   UNL     1      36.159 -21.860 -19.102  0.00  0.00    +0.095 C 
ATOM     15  H   UNL     1      37.683 -21.333 -17.669  0.00  0.00    +0.150 HD
BRANCH  10  17
ATOM     16  O   UNL     1      32.333 -21.663 -18.766  0.00  0.00    -0.250 OA
ATOM     17  C   UNL     1      32.264 -22.057 -17.611  0.00  0.00    +0.314 C 
BRANCH  17  18
ATOM     18  O   UNL     1      31.115 -22.405 -16.983  0.00  0.00    -0.480 OA
ATOM     19  H   UNL     1      30.629 -23.151 -17.273  0.00  0.00    +0.295 HD
ENDBRANCH  17  18
ENDBRANCH  10  17
ENDBRANCH   1  14
BRANCH   6  20
ATOM     20  O   UNL     1      35.197 -16.878 -21.640  0.00  0.00    -0.471 OA
BRANCH  20  21
ATOM     21  C   UNL     1      34.933 -15.768 -20.793  0.00  0.00    +0.229 C 
BRANCH  21  23
ATOM     22  N   UNL     1      32.854 -12.703 -22.936  0.00  0.00    -0.406 NA
ATOM     23  C   UNL     1      34.212 -14.714 -21.575  0.00  0.00    +0.012 C 
ATOM     24  C   UNL     1      34.056 -14.791 -22.966  0.00  0.00    +0.096 C 
ATOM     25  C   UNL     1      33.690 -13.638 -20.872  0.00  0.00    +0.028 C 
ATOM     26  C   UNL     1      33.361 -13.749 -23.615  0.00  0.00    +0.117 C 
ATOM     27  C   UNL     1      33.026 -12.667 -21.595  0.00  0.00    +0.130 C 
ATOM     28  C   UNL     1      34.573 -15.869 -23.705  0.00  0.00    -0.015 C 
ATOM     29  C   UNL     1      33.208 -13.826 -24.996  0.00  0.00    +0.028 C 
ATOM     30  C   UNL     1      34.405 -15.920 -25.086  0.00  0.00    -0.004 C 
ATOM     31  C   UNL     1      33.721 -14.897 -25.732  0.00  0.00    +0.002 C 
BRANCH  27  32
ATOM     32  C   UNL     1      32.454 -11.514 -20.940  0.00  0.00    +0.030 C 
ATOM     33  C   UNL     1      32.127 -11.572 -19.585  0.00  0.00    +0.003 C 
ATOM     34  C   UNL     1      32.227 -10.343 -21.662  0.00  0.00    +0.003 C 
ATOM     35  C   UNL     1      31.575 -10.458 -18.952  0.00  0.00    +0.000 C 
ATOM     36  C   UNL     1      31.675  -9.229 -21.029  0.00  0.00    +0.000 C 
ATOM     37  C   UNL     1      31.348  -9.287 -19.675  0.00  0.00    +0.000 C 
ENDBRANCH  27  32
ENDBRANCH  21  23
ENDBRANCH  20  21
ENDBRANCH   6  20
TORSDOF 7
ENDMDL
