MODEL 1
REMARK VINA RESULT:     -11.6      0.000      0.000
REMARK  Name = 25052630
REMARK  6 active torsions:
REMARK  status: ('A' for Active; 'I' for Inactive)
REMARK    1  A    between atoms: N_2  and  C_11
REMARK    2  A    between atoms: C_4  and  C_20
REMARK    3  A    between atoms: C_20  and  C_21
REMARK    4  A    between atoms: C_21  and  N_22
REMARK    5  A    between atoms: N_22  and  C_25
REMARK    6  A    between atoms: C_25  and  C_26
REMARK                            x       y       z     vdW  Elec       q    Type
REMARK                         _______ _______ _______ _____ _____    ______ ____
ROOT
ATOM      1  S   UNL     1      37.146 -26.885 -13.484  0.00  0.00    -0.018 S 
ATOM      2  N   UNL     1      36.332 -24.405 -14.497  0.00  0.00    -0.270 N 
ATOM      3  N   UNL     1      38.540 -24.824 -14.600  0.00  0.00    -0.294 N 
ATOM      4  C   UNL     1      36.989 -23.321 -15.075  0.00  0.00    +0.043 C 
ATOM      5  C   UNL     1      37.314 -25.390 -14.182  0.00  0.00    +0.142 C 
ATOM      6  C   UNL     1      38.304 -23.584 -15.130  0.00  0.00    +0.074 C 
ATOM      7  H   UNL     1      39.423 -25.253 -14.522  0.00  0.00    +0.154 HD
ENDROOT
BRANCH   2  11
ATOM      8  F   UNL     1      30.536 -23.821 -12.038  0.00  0.00    -0.201 F 
ATOM      9  F   UNL     1      29.529 -22.614 -16.497  0.00  0.00    -0.204 F 
ATOM     10  O   UNL     1      33.136 -24.105 -12.624  0.00  0.00    -0.472 OA
ATOM     11  C   UNL     1      34.910 -24.468 -14.280  0.00  0.00    +0.127 C 
ATOM     12  C   UNL     1      34.152 -23.680 -15.345  0.00  0.00    +0.054 C 
ATOM     13  C   UNL     1      34.529 -23.926 -12.906  0.00  0.00    +0.226 C 
ATOM     14  C   UNL     1      32.709 -23.522 -14.957  0.00  0.00    +0.018 C 
ATOM     15  C   UNL     1      32.292 -23.729 -13.636  0.00  0.00    +0.162 C 
ATOM     16  C   UNL     1      31.766 -23.135 -15.919  0.00  0.00    +0.029 C 
ATOM     17  C   UNL     1      30.944 -23.590 -13.293  0.00  0.00    +0.176 C 
ATOM     18  C   UNL     1      30.423 -22.984 -15.571  0.00  0.00    +0.142 C 
ATOM     19  C   UNL     1      30.012 -23.216 -14.260  0.00  0.00    +0.062 C 
ENDBRANCH   2  11
BRANCH   4  20
ATOM     20  C   UNL     1      36.281 -22.101 -15.534  0.00  0.00    +0.019 C 
BRANCH  20  21
ATOM     21  C   UNL     1      37.143 -21.277 -16.490  0.00  0.00    -0.075 C 
BRANCH  21  22
ATOM     22  N   UNL     1      36.874 -21.652 -17.874  0.00  0.00    +0.387 N 
ATOM     23  H   UNL     1      37.479 -22.431 -18.132  0.00  0.00    -0.084 HD
ATOM     24  H   UNL     1      37.058 -20.846 -18.471  0.00  0.00    -0.084 HD
BRANCH  22  25
ATOM     25  C   UNL     1      35.484 -22.050 -18.042  0.00  0.00    -0.054 C 
BRANCH  25  26
ATOM     26  C   UNL     1      34.780 -21.207 -19.071  0.00  0.00    -0.044 C 
ATOM     27  C   UNL     1      33.385 -21.171 -19.107  0.00  0.00    -0.006 C 
ATOM     28  C   UNL     1      35.520 -20.459 -19.986  0.00  0.00    -0.006 C 
ATOM     29  C   UNL     1      32.733 -20.389 -20.060  0.00  0.00    -0.000 C 
ATOM     30  C   UNL     1      34.867 -19.677 -20.939  0.00  0.00    -0.000 C 
ATOM     31  C   UNL     1      33.473 -19.642 -20.975  0.00  0.00    -0.000 C 
ENDBRANCH  25  26
ENDBRANCH  22  25
ENDBRANCH  21  22
ENDBRANCH  20  21
ENDBRANCH   4  20
TORSDOF 6
ENDMDL
MODEL 2
REMARK VINA RESULT:     -11.0      8.814     12.475
REMARK  Name = 25052630
REMARK  6 active torsions:
REMARK  status: ('A' for Active; 'I' for Inactive)
REMARK    1  A    between atoms: N_2  and  C_11
REMARK    2  A    between atoms: C_4  and  C_20
REMARK    3  A    between atoms: C_20  and  C_21
REMARK    4  A    between atoms: C_21  and  N_22
REMARK    5  A    between atoms: N_22  and  C_25
REMARK    6  A    between atoms: C_25  and  C_26
REMARK                            x       y       z     vdW  Elec       q    Type
REMARK                         _______ _______ _______ _____ _____    ______ ____
ROOT
ATOM      1  S   UNL     1      32.854 -13.272 -26.236  0.00  0.00    -0.018 S 
ATOM      2  N   UNL     1      33.911 -14.076 -23.771  0.00  0.00    -0.270 N 
ATOM      3  N   UNL     1      33.854 -15.657 -25.372  0.00  0.00    -0.294 N 
ATOM      4  C   UNL     1      34.433 -15.268 -23.272  0.00  0.00    +0.043 C 
ATOM      5  C   UNL     1      33.530 -14.303 -25.126  0.00  0.00    +0.142 C 
ATOM      6  C   UNL     1      34.393 -16.201 -24.236  0.00  0.00    +0.074 C 
ATOM      7  H   UNL     1      33.714 -16.133 -26.222  0.00  0.00    +0.154 HD
ENDROOT
BRANCH   2  11
ATOM      8  F   UNL     1      33.290  -8.022 -22.058  0.00  0.00    -0.201 F 
ATOM      9  F   UNL     1      30.311  -9.944 -18.928  0.00  0.00    -0.204 F 
ATOM     10  O   UNL     1      33.786 -10.412 -23.164  0.00  0.00    -0.472 OA
ATOM     11  C   UNL     1      33.798 -12.860 -23.008  0.00  0.00    +0.127 C 
ATOM     12  C   UNL     1      32.541 -12.866 -22.141  0.00  0.00    +0.054 C 
ATOM     13  C   UNL     1      33.764 -11.633 -23.913  0.00  0.00    +0.226 C 
ATOM     14  C   UNL     1      32.289 -11.500 -21.570  0.00  0.00    +0.018 C 
ATOM     15  C   UNL     1      32.908 -10.366 -22.113  0.00  0.00    +0.162 C 
ATOM     16  C   UNL     1      31.403 -11.345 -20.495  0.00  0.00    +0.029 C 
ATOM     17  C   UNL     1      32.673  -9.103 -21.562  0.00  0.00    +0.176 C 
ATOM     18  C   UNL     1      31.160 -10.081 -19.956  0.00  0.00    +0.142 C 
ATOM     19  C   UNL     1      31.798  -8.962 -20.486  0.00  0.00    +0.062 C 
ENDBRANCH   2  11
BRANCH   4  20
ATOM     20  C   UNL     1      34.935 -15.409 -21.884  0.00  0.00    +0.019 C 
BRANCH  20  21
ATOM     21  C   UNL     1      35.731 -16.702 -21.703  0.00  0.00    -0.075 C 
BRANCH  21  22
ATOM     22  N   UNL     1      35.087 -17.566 -20.720  0.00  0.00    +0.387 N 
ATOM     23  H   UNL     1      34.283 -17.079 -20.324  0.00  0.00    -0.084 HD
ATOM     24  H   UNL     1      35.763 -17.788 -19.989  0.00  0.00    -0.084 HD
BRANCH  22  25
ATOM     25  C   UNL     1      34.640 -18.808 -21.334  0.00  0.00    -0.054 C 
BRANCH  25  26
ATOM     26  C   UNL     1      34.607 -19.942 -20.345  0.00  0.00    -0.044 C 
ATOM     27  C   UNL     1      35.800 -20.480 -19.860  0.00  0.00    -0.006 C 
ATOM     28  C   UNL     1      33.384 -20.453 -19.911  0.00  0.00    -0.006 C 
ATOM     29  C   UNL     1      35.769 -21.531 -18.944  0.00  0.00    -0.000 C 
ATOM     30  C   UNL     1      33.354 -21.505 -18.994  0.00  0.00    -0.000 C 
ATOM     31  C   UNL     1      34.547 -22.043 -18.510  0.00  0.00    -0.000 C 
ENDBRANCH  25  26
ENDBRANCH  22  25
ENDBRANCH  21  22
ENDBRANCH  20  21
ENDBRANCH   4  20
TORSDOF 6
ENDMDL
MODEL 3
REMARK VINA RESULT:     -10.4      1.541      2.002
REMARK  Name = 25052630
REMARK  6 active torsions:
REMARK  status: ('A' for Active; 'I' for Inactive)
REMARK    1  A    between atoms: N_2  and  C_11
REMARK    2  A    between atoms: C_4  and  C_20
REMARK    3  A    between atoms: C_20  and  C_21
REMARK    4  A    between atoms: C_21  and  N_22
REMARK    5  A    between atoms: N_22  and  C_25
REMARK    6  A    between atoms: C_25  and  C_26
REMARK                            x       y       z     vdW  Elec       q    Type
REMARK                         _______ _______ _______ _____ _____    ______ ____
ROOT
ATOM      1  S   UNL     1      35.799 -24.619 -12.007  0.00  0.00    -0.018 S 
ATOM      2  N   UNL     1      35.207 -23.584 -14.540  0.00  0.00    -0.270 N 
ATOM      3  N   UNL     1      37.269 -23.133 -13.758  0.00  0.00    -0.294 N 
ATOM      4  C   UNL     1      35.908 -22.825 -15.475  0.00  0.00    +0.043 C 
ATOM      5  C   UNL     1      36.066 -23.796 -13.422  0.00  0.00    +0.142 C 
ATOM      6  C   UNL     1      37.135 -22.563 -14.997  0.00  0.00    +0.074 C 
ATOM      7  H   UNL     1      38.074 -23.087 -13.193  0.00  0.00    +0.154 HD
ENDROOT
BRANCH   2  11
ATOM      8  F   UNL     1      29.332 -25.701 -13.552  0.00  0.00    -0.201 F 
ATOM      9  F   UNL     1      28.348 -22.385 -16.777  0.00  0.00    -0.204 F 
ATOM     10  O   UNL     1      31.936 -25.066 -13.585  0.00  0.00    -0.472 OA
ATOM     11  C   UNL     1      33.855 -24.045 -14.722  0.00  0.00    +0.127 C 
ATOM     12  C   UNL     1      32.980 -22.961 -15.345  0.00  0.00    +0.054 C 
ATOM     13  C   UNL     1      33.230 -24.481 -13.401  0.00  0.00    +0.226 C 
ATOM     14  C   UNL     1      31.530 -23.349 -15.275  0.00  0.00    +0.018 C 
ATOM     15  C   UNL     1      31.096 -24.357 -14.404  0.00  0.00    +0.162 C 
ATOM     16  C   UNL     1      30.590 -22.680 -16.070  0.00  0.00    +0.029 C 
ATOM     17  C   UNL     1      29.746 -24.715 -14.359  0.00  0.00    +0.176 C 
ATOM     18  C   UNL     1      29.240 -23.031 -16.013  0.00  0.00    +0.142 C 
ATOM     19  C   UNL     1      28.820 -24.050 -15.162  0.00  0.00    +0.062 C 
ENDBRANCH   2  11
BRANCH   4  20
ATOM     20  C   UNL     1      35.326 -22.409 -16.775  0.00  0.00    +0.019 C 
BRANCH  20  21
ATOM     21  C   UNL     1      36.354 -21.685 -17.644  0.00  0.00    -0.075 C 
BRANCH  21  22
ATOM     22  N   UNL     1      35.997 -21.791 -19.054  0.00  0.00    +0.387 N 
ATOM     23  H   UNL     1      35.711 -22.749 -19.255  0.00  0.00    -0.084 HD
ATOM     24  H   UNL     1      36.809 -21.537 -19.616  0.00  0.00    -0.084 HD
BRANCH  22  25
ATOM     25  C   UNL     1      34.903 -20.888 -19.382  0.00  0.00    -0.054 C 
BRANCH  25  26
ATOM     26  C   UNL     1      35.287 -19.911 -20.461  0.00  0.00    -0.044 C 
ATOM     27  C   UNL     1      34.397 -19.636 -21.501  0.00  0.00    -0.006 C 
ATOM     28  C   UNL     1      36.528 -19.278 -20.420  0.00  0.00    -0.006 C 
ATOM     29  C   UNL     1      34.752 -18.730 -22.500  0.00  0.00    -0.000 C 
ATOM     30  C   UNL     1      36.883 -18.371 -21.420  0.00  0.00    -0.000 C 
ATOM     31  C   UNL     1      35.995 -18.098 -22.460  0.00  0.00    -0.000 C 
ENDBRANCH  25  26
ENDBRANCH  22  25
ENDBRANCH  21  22
ENDBRANCH  20  21
ENDBRANCH   4  20
TORSDOF 6
ENDMDL
MODEL 4
REMARK VINA RESULT:     -10.3      3.323      5.215
REMARK  Name = 25052630
REMARK  6 active torsions:
REMARK  status: ('A' for Active; 'I' for Inactive)
REMARK    1  A    between atoms: N_2  and  C_11
REMARK    2  A    between atoms: C_4  and  C_20
REMARK    3  A    between atoms: C_20  and  C_21
REMARK    4  A    between atoms: C_21  and  N_22
REMARK    5  A    between atoms: N_22  and  C_25
REMARK    6  A    between atoms: C_25  and  C_26
REMARK                            x       y       z     vdW  Elec       q    Type
REMARK                         _______ _______ _______ _____ _____    ______ ____
ROOT
ATOM      1  S   UNL     1      31.210 -24.378 -12.875  0.00  0.00    -0.018 S 
ATOM      2  N   UNL     1      32.926 -23.494 -14.903  0.00  0.00    -0.270 N 
ATOM      3  N   UNL     1      30.744 -23.586 -15.443  0.00  0.00    -0.294 N 
ATOM      4  C   UNL     1      32.751 -23.079 -16.222  0.00  0.00    +0.043 C 
ATOM      5  C   UNL     1      31.643 -23.826 -14.379  0.00  0.00    +0.142 C 
ATOM      6  C   UNL     1      31.446 -23.138 -16.530  0.00  0.00    +0.074 C 
ATOM      7  H   UNL     1      29.769 -23.719 -15.408  0.00  0.00    +0.154 HD
ENDROOT
BRANCH   2  11
ATOM      8  F   UNL     1      37.489 -24.180 -10.580  0.00  0.00    -0.201 F 
ATOM      9  F   UNL     1      39.525 -26.550 -14.129  0.00  0.00    -0.204 F 
ATOM     10  O   UNL     1      35.292 -23.726 -12.046  0.00  0.00    -0.472 OA
ATOM     11  C   UNL     1      34.202 -23.558 -14.237  0.00  0.00    +0.127 C 
ATOM     12  C   UNL     1      35.073 -24.669 -14.818  0.00  0.00    +0.054 C 
ATOM     13  C   UNL     1      34.040 -23.793 -12.739  0.00  0.00    +0.226 C 
ATOM     14  C   UNL     1      36.273 -24.907 -13.946  0.00  0.00    +0.018 C 
ATOM     15  C   UNL     1      36.309 -24.438 -12.626  0.00  0.00    +0.162 C 
ATOM     16  C   UNL     1      37.366 -25.630 -14.444  0.00  0.00    +0.029 C 
ATOM     17  C   UNL     1      37.438 -24.657 -11.831  0.00  0.00    +0.176 C 
ATOM     18  C   UNL     1      38.486 -25.857 -13.644  0.00  0.00    +0.142 C 
ATOM     19  C   UNL     1      38.524 -25.368 -12.340  0.00  0.00    +0.062 C 
ENDBRANCH   2  11
BRANCH   4  20
ATOM     20  C   UNL     1      33.877 -22.652 -17.089  0.00  0.00    +0.019 C 
BRANCH  20  21
ATOM     21  C   UNL     1      33.496 -22.701 -18.568  0.00  0.00    -0.075 C 
BRANCH  21  22
ATOM     22  N   UNL     1      33.711 -21.402 -19.196  0.00  0.00    +0.387 N 
ATOM     23  H   UNL     1      33.200 -20.691 -18.673  0.00  0.00    -0.084 HD
ATOM     24  H   UNL     1      33.377 -21.446 -20.158  0.00  0.00    -0.084 HD
BRANCH  22  25
ATOM     25  C   UNL     1      35.126 -21.061 -19.209  0.00  0.00    -0.054 C 
BRANCH  25  26
ATOM     26  C   UNL     1      35.449 -20.051 -20.278  0.00  0.00    -0.044 C 
ATOM     27  C   UNL     1      34.485 -19.707 -21.226  0.00  0.00    -0.006 C 
ATOM     28  C   UNL     1      36.711 -19.459 -20.319  0.00  0.00    -0.006 C 
ATOM     29  C   UNL     1      34.785 -18.771 -22.216  0.00  0.00    -0.000 C 
ATOM     30  C   UNL     1      37.010 -18.523 -21.310  0.00  0.00    -0.000 C 
ATOM     31  C   UNL     1      36.047 -18.179 -22.258  0.00  0.00    -0.000 C 
ENDBRANCH  25  26
ENDBRANCH  22  25
ENDBRANCH  21  22
ENDBRANCH  20  21
ENDBRANCH   4  20
TORSDOF 6
ENDMDL
MODEL 5
REMARK VINA RESULT:     -10.2      1.473      2.328
REMARK  Name = 25052630
REMARK  6 active torsions:
REMARK  status: ('A' for Active; 'I' for Inactive)
REMARK    1  A    between atoms: N_2  and  C_11
REMARK    2  A    between atoms: C_4  and  C_20
REMARK    3  A    between atoms: C_20  and  C_21
REMARK    4  A    between atoms: C_21  and  N_22
REMARK    5  A    between atoms: N_22  and  C_25
REMARK    6  A    between atoms: C_25  and  C_26
REMARK                            x       y       z     vdW  Elec       q    Type
REMARK                         _______ _______ _______ _____ _____    ______ ____
ROOT
ATOM      1  S   UNL     1      35.382 -24.618 -11.188  0.00  0.00    -0.018 S 
ATOM      2  N   UNL     1      35.576 -23.585 -13.783  0.00  0.00    -0.270 N 
ATOM      3  N   UNL     1      37.520 -24.196 -12.827  0.00  0.00    -0.294 N 
ATOM      4  C   UNL     1      36.628 -23.347 -14.666  0.00  0.00    +0.043 C 
ATOM      5  C   UNL     1      36.128 -24.134 -12.589  0.00  0.00    +0.142 C 
ATOM      6  C   UNL     1      37.780 -23.715 -14.083  0.00  0.00    +0.074 C 
ATOM      7  H   UNL     1      38.194 -24.530 -12.193  0.00  0.00    +0.154 HD
ENDROOT
BRANCH   2  11
ATOM      8  F   UNL     1      30.111 -22.452 -16.754  0.00  0.00    -0.201 F 
ATOM      9  F   UNL     1      28.527 -25.514 -13.518  0.00  0.00    -0.204 F 
ATOM     10  O   UNL     1      32.627 -22.699 -15.864  0.00  0.00    -0.472 OA
ATOM     11  C   UNL     1      34.194 -23.306 -14.077  0.00  0.00    +0.127 C 
ATOM     12  C   UNL     1      33.287 -24.433 -13.589  0.00  0.00    +0.054 C 
ATOM     13  C   UNL     1      33.968 -23.107 -15.572  0.00  0.00    +0.226 C 
ATOM     14  C   UNL     1      31.899 -24.267 -14.138  0.00  0.00    +0.018 C 
ATOM     15  C   UNL     1      31.653 -23.431 -15.235  0.00  0.00    +0.162 C 
ATOM     16  C   UNL     1      30.833 -24.977 -13.568  0.00  0.00    +0.029 C 
ATOM     17  C   UNL     1      30.354 -23.278 -15.727  0.00  0.00    +0.176 C 
ATOM     18  C   UNL     1      29.539 -24.832 -14.070  0.00  0.00    +0.142 C 
ATOM     19  C   UNL     1      29.299 -23.980 -15.145  0.00  0.00    +0.062 C 
ENDBRANCH   2  11
BRANCH   4  20
ATOM     20  C   UNL     1      36.430 -22.774 -16.020  0.00  0.00    +0.019 C 
BRANCH  20  21
ATOM     21  C   UNL     1      37.160 -21.440 -16.177  0.00  0.00    -0.075 C 
BRANCH  21  22
ATOM     22  N   UNL     1      36.914 -20.876 -17.500  0.00  0.00    +0.387 N 
ATOM     23  H   UNL     1      37.808 -20.697 -17.957  0.00  0.00    -0.084 HD
ATOM     24  H   UNL     1      36.389 -20.009 -17.392  0.00  0.00    -0.084 HD
BRANCH  22  25
ATOM     25  C   UNL     1      36.135 -21.794 -18.319  0.00  0.00    -0.054 C 
BRANCH  25  26
ATOM     26  C   UNL     1      35.161 -21.065 -19.206  0.00  0.00    -0.044 C 
ATOM     27  C   UNL     1      35.630 -20.179 -20.177  0.00  0.00    -0.006 C 
ATOM     28  C   UNL     1      33.791 -21.277 -19.058  0.00  0.00    -0.006 C 
ATOM     29  C   UNL     1      34.728 -19.505 -20.999  0.00  0.00    -0.000 C 
ATOM     30  C   UNL     1      32.889 -20.601 -19.882  0.00  0.00    -0.000 C 
ATOM     31  C   UNL     1      33.358 -19.716 -20.852  0.00  0.00    -0.000 C 
ENDBRANCH  25  26
ENDBRANCH  22  25
ENDBRANCH  21  22
ENDBRANCH  20  21
ENDBRANCH   4  20
TORSDOF 6
ENDMDL
MODEL 6
REMARK VINA RESULT:     -10.2      1.861      2.704
REMARK  Name = 25052630
REMARK  6 active torsions:
REMARK  status: ('A' for Active; 'I' for Inactive)
REMARK    1  A    between atoms: N_2  and  C_11
REMARK    2  A    between atoms: C_4  and  C_20
REMARK    3  A    between atoms: C_20  and  C_21
REMARK    4  A    between atoms: C_21  and  N_22
REMARK    5  A    between atoms: N_22  and  C_25
REMARK    6  A    between atoms: C_25  and  C_26
REMARK                            x       y       z     vdW  Elec       q    Type
REMARK                         _______ _______ _______ _____ _____    ______ ____
ROOT
ATOM      1  S   UNL     1      36.958 -23.178 -13.498  0.00  0.00    -0.018 S 
ATOM      2  N   UNL     1      35.430 -22.854 -15.822  0.00  0.00    -0.270 N 
ATOM      3  N   UNL     1      37.481 -21.928 -15.865  0.00  0.00    -0.294 N 
ATOM      4  C   UNL     1      35.639 -22.233 -17.052  0.00  0.00    +0.043 C 
ATOM      5  C   UNL     1      36.607 -22.671 -15.038  0.00  0.00    +0.142 C 
ATOM      6  C   UNL     1      36.864 -21.686 -17.064  0.00  0.00    +0.074 C 
ATOM      7  H   UNL     1      38.387 -21.633 -15.619  0.00  0.00    +0.154 HD
ENDROOT
BRANCH   2  11
ATOM      8  F   UNL     1      30.646 -25.423 -12.583  0.00  0.00    -0.201 F 
ATOM      9  F   UNL     1      28.142 -23.418 -16.057  0.00  0.00    -0.204 F 
ATOM     10  O   UNL     1      32.939 -24.448 -13.572  0.00  0.00    -0.472 OA
ATOM     11  C   UNL     1      34.219 -23.544 -15.459  0.00  0.00    +0.127 C 
ATOM     12  C   UNL     1      32.990 -22.841 -16.028  0.00  0.00    +0.054 C 
ATOM     13  C   UNL     1      34.067 -23.650 -13.945  0.00  0.00    +0.226 C 
ATOM     14  C   UNL     1      31.735 -23.401 -15.421  0.00  0.00    +0.018 C 
ATOM     15  C   UNL     1      31.779 -24.152 -14.239  0.00  0.00    +0.162 C 
ATOM     16  C   UNL     1      30.496 -23.150 -16.026  0.00  0.00    +0.029 C 
ATOM     17  C   UNL     1      30.604 -24.676 -13.694  0.00  0.00    +0.176 C 
ATOM     18  C   UNL     1      29.322 -23.664 -15.472  0.00  0.00    +0.142 C 
ATOM     19  C   UNL     1      29.377 -24.430 -14.310  0.00  0.00    +0.062 C 
ENDBRANCH   2  11
BRANCH   4  20
ATOM     20  C   UNL     1      34.621 -22.219 -18.131  0.00  0.00    +0.019 C 
BRANCH  20  21
ATOM     21  C   UNL     1      35.214 -21.741 -19.456  0.00  0.00    -0.075 C 
BRANCH  21  22
ATOM     22  N   UNL     1      34.899 -20.334 -19.679  0.00  0.00    +0.387 N 
ATOM     23  H   UNL     1      34.733 -19.883 -18.780  0.00  0.00    -0.084 HD
ATOM     24  H   UNL     1      34.066 -20.276 -20.265  0.00  0.00    -0.084 HD
BRANCH  22  25
ATOM     25  C   UNL     1      35.995 -19.659 -20.359  0.00  0.00    -0.054 C 
BRANCH  25  26
ATOM     26  C   UNL     1      35.507 -18.806 -21.499  0.00  0.00    -0.044 C 
ATOM     27  C   UNL     1      34.831 -19.393 -22.570  0.00  0.00    -0.006 C 
ATOM     28  C   UNL     1      35.729 -17.429 -21.485  0.00  0.00    -0.006 C 
ATOM     29  C   UNL     1      34.378 -18.602 -23.626  0.00  0.00    -0.000 C 
ATOM     30  C   UNL     1      35.276 -16.639 -22.543  0.00  0.00    -0.000 C 
ATOM     31  C   UNL     1      34.600 -17.226 -23.612  0.00  0.00    -0.000 C 
ENDBRANCH  25  26
ENDBRANCH  22  25
ENDBRANCH  21  22
ENDBRANCH  20  21
ENDBRANCH   4  20
TORSDOF 6
ENDMDL
MODEL 7
REMARK VINA RESULT:     -10.1      1.450      2.520
REMARK  Name = 25052630
REMARK  6 active torsions:
REMARK  status: ('A' for Active; 'I' for Inactive)
REMARK    1  A    between atoms: N_2  and  C_11
REMARK    2  A    between atoms: C_4  and  C_20
REMARK    3  A    between atoms: C_20  and  C_21
REMARK    4  A    between atoms: C_21  and  N_22
REMARK    5  A    between atoms: N_22  and  C_25
REMARK    6  A    between atoms: C_25  and  C_26
REMARK                            x       y       z     vdW  Elec       q    Type
REMARK                         _______ _______ _______ _____ _____    ______ ____
ROOT
ATOM      1  S   UNL     1      36.577 -25.545 -13.507  0.00  0.00    -0.018 S 
ATOM      2  N   UNL     1      36.406 -23.260 -15.115  0.00  0.00    -0.270 N 
ATOM      3  N   UNL     1      38.467 -24.129 -14.871  0.00  0.00    -0.294 N 
ATOM      4  C   UNL     1      37.325 -22.496 -15.832  0.00  0.00    +0.043 C 
ATOM      5  C   UNL     1      37.120 -24.321 -14.486  0.00  0.00    +0.142 C 
ATOM      6  C   UNL     1      38.548 -23.026 -15.678  0.00  0.00    +0.074 C 
ATOM      7  H   UNL     1      39.224 -24.698 -14.602  0.00  0.00    +0.154 HD
ENDROOT
BRANCH   2  11
ATOM      8  F   UNL     1      30.220 -22.940 -16.386  0.00  0.00    -0.201 F 
ATOM      9  F   UNL     1      29.936 -24.012 -11.789  0.00  0.00    -0.204 F 
ATOM     10  O   UNL     1      32.897 -23.058 -16.323  0.00  0.00    -0.472 OA
ATOM     11  C   UNL     1      34.994 -22.980 -15.053  0.00  0.00    +0.127 C 
ATOM     12  C   UNL     1      34.350 -23.651 -13.843  0.00  0.00    +0.054 C 
ATOM     13  C   UNL     1      34.275 -23.448 -16.314  0.00  0.00    +0.226 C 
ATOM     14  C   UNL     1      32.852 -23.586 -13.939  0.00  0.00    +0.018 C 
ATOM     15  C   UNL     1      32.220 -23.308 -15.158  0.00  0.00    +0.162 C 
ATOM     16  C   UNL     1      32.069 -23.832 -12.803  0.00  0.00    +0.029 C 
ATOM     17  C   UNL     1      30.826 -23.239 -15.229  0.00  0.00    +0.176 C 
ATOM     18  C   UNL     1      30.676 -23.775 -12.880  0.00  0.00    +0.142 C 
ATOM     19  C   UNL     1      30.056 -23.474 -14.091  0.00  0.00    +0.062 C 
ENDBRANCH   2  11
BRANCH   4  20
ATOM     20  C   UNL     1      36.939 -21.300 -16.620  0.00  0.00    +0.019 C 
BRANCH  20  21
ATOM     21  C   UNL     1      36.605 -21.664 -18.066  0.00  0.00    -0.075 C 
BRANCH  21  22
ATOM     22  N   UNL     1      36.407 -20.459 -18.864  0.00  0.00    +0.387 N 
ATOM     23  H   UNL     1      37.277 -20.231 -19.346  0.00  0.00    -0.084 HD
ATOM     24  H   UNL     1      36.133 -19.699 -18.243  0.00  0.00    -0.084 HD
BRANCH  22  25
ATOM     25  C   UNL     1      35.354 -20.658 -19.850  0.00  0.00    -0.054 C 
BRANCH  25  26
ATOM     26  C   UNL     1      35.368 -19.588 -20.909  0.00  0.00    -0.044 C 
ATOM     27  C   UNL     1      34.386 -19.575 -21.901  0.00  0.00    -0.006 C 
ATOM     28  C   UNL     1      36.360 -18.609 -20.898  0.00  0.00    -0.006 C 
ATOM     29  C   UNL     1      34.398 -18.584 -22.881  0.00  0.00    -0.000 C 
ATOM     30  C   UNL     1      36.372 -17.617 -21.879  0.00  0.00    -0.000 C 
ATOM     31  C   UNL     1      35.391 -17.605 -22.871  0.00  0.00    -0.000 C 
ENDBRANCH  25  26
ENDBRANCH  22  25
ENDBRANCH  21  22
ENDBRANCH  20  21
ENDBRANCH   4  20
TORSDOF 6
ENDMDL
MODEL 8
REMARK VINA RESULT:      -9.7      3.278      5.194
REMARK  Name = 25052630
REMARK  6 active torsions:
REMARK  status: ('A' for Active; 'I' for Inactive)
REMARK    1  A    between atoms: N_2  and  C_11
REMARK    2  A    between atoms: C_4  and  C_20
REMARK    3  A    between atoms: C_20  and  C_21
REMARK    4  A    between atoms: C_21  and  N_22
REMARK    5  A    between atoms: N_22  and  C_25
REMARK    6  A    between atoms: C_25  and  C_26
REMARK                            x       y       z     vdW  Elec       q    Type
REMARK                         _______ _______ _______ _____ _____    ______ ____
ROOT
ATOM      1  S   UNL     1      31.372 -23.768 -15.373  0.00  0.00    -0.018 S 
ATOM      2  N   UNL     1      33.833 -22.991 -16.459  0.00  0.00    -0.270 N 
ATOM      3  N   UNL     1      32.011 -22.345 -17.610  0.00  0.00    -0.294 N 
ATOM      4  C   UNL     1      34.222 -22.271 -17.586  0.00  0.00    +0.043 C 
ATOM      5  C   UNL     1      32.409 -23.052 -16.452  0.00  0.00    +0.142 C 
ATOM      6  C   UNL     1      33.127 -21.892 -18.263  0.00  0.00    +0.074 C 
ATOM      7  H   UNL     1      31.081 -22.201 -17.901  0.00  0.00    +0.154 HD
ENDROOT
BRANCH   2  11
ATOM      8  F   UNL     1      38.949 -24.228 -12.955  0.00  0.00    -0.201 F 
ATOM      9  F   UNL     1      35.699 -24.371  -9.523  0.00  0.00    -0.204 F 
ATOM     10  O   UNL     1      37.096 -23.595 -14.785  0.00  0.00    -0.472 OA
ATOM     11  C   UNL     1      34.750 -23.554 -15.501  0.00  0.00    +0.127 C 
ATOM     12  C   UNL     1      34.260 -23.336 -14.072  0.00  0.00    +0.054 C 
ATOM     13  C   UNL     1      36.144 -22.951 -15.639  0.00  0.00    +0.226 C 
ATOM     14  C   UNL     1      35.342 -23.675 -13.087  0.00  0.00    +0.018 C 
ATOM     15  C   UNL     1      36.680 -23.772 -13.491  0.00  0.00    +0.162 C 
ATOM     16  C   UNL     1      35.020 -23.871 -11.737  0.00  0.00    +0.029 C 
ATOM     17  C   UNL     1      37.674 -24.100 -12.565  0.00  0.00    +0.176 C 
ATOM     18  C   UNL     1      36.017 -24.186 -10.812  0.00  0.00    +0.142 C 
ATOM     19  C   UNL     1      37.341 -24.304 -11.226  0.00  0.00    +0.062 C 
ENDBRANCH   2  11
BRANCH   4  20
ATOM     20  C   UNL     1      35.642 -22.003 -17.922  0.00  0.00    +0.019 C 
BRANCH  20  21
ATOM     21  C   UNL     1      35.824 -21.728 -19.414  0.00  0.00    -0.075 C 
BRANCH  21  22
ATOM     22  N   UNL     1      35.666 -20.306 -19.695  0.00  0.00    +0.387 N 
ATOM     23  H   UNL     1      36.553 -19.932 -20.032  0.00  0.00    -0.084 HD
ATOM     24  H   UNL     1      35.384 -19.833 -18.837  0.00  0.00    -0.084 HD
BRANCH  22  25
ATOM     25  C   UNL     1      34.641 -20.087 -20.705  0.00  0.00    -0.054 C 
BRANCH  25  26
ATOM     26  C   UNL     1      34.839 -18.784 -21.433  0.00  0.00    -0.044 C 
ATOM     27  C   UNL     1      34.623 -18.715 -22.811  0.00  0.00    -0.006 C 
ATOM     28  C   UNL     1      35.236 -17.647 -20.732  0.00  0.00    -0.006 C 
ATOM     29  C   UNL     1      34.806 -17.508 -23.485  0.00  0.00    -0.000 C 
ATOM     30  C   UNL     1      35.419 -16.439 -21.407  0.00  0.00    -0.000 C 
ATOM     31  C   UNL     1      35.204 -16.371 -22.783  0.00  0.00    -0.000 C 
ENDBRANCH  25  26
ENDBRANCH  22  25
ENDBRANCH  21  22
ENDBRANCH  20  21
ENDBRANCH   4  20
TORSDOF 6
ENDMDL
MODEL 9
REMARK VINA RESULT:      -9.6      3.472      6.825
REMARK  Name = 25052630
REMARK  6 active torsions:
REMARK  status: ('A' for Active; 'I' for Inactive)
REMARK    1  A    between atoms: N_2  and  C_11
REMARK    2  A    between atoms: C_4  and  C_20
REMARK    3  A    between atoms: C_20  and  C_21
REMARK    4  A    between atoms: C_21  and  N_22
REMARK    5  A    between atoms: N_22  and  C_25
REMARK    6  A    between atoms: C_25  and  C_26
REMARK                            x       y       z     vdW  Elec       q    Type
REMARK                         _______ _______ _______ _____ _____    ______ ____
ROOT
ATOM      1  S   UNL     1      29.590 -22.919 -16.077  0.00  0.00    -0.018 S 
ATOM      2  N   UNL     1      32.066 -23.656 -14.999  0.00  0.00    -0.270 N 
ATOM      3  N   UNL     1      30.266 -24.626 -14.060  0.00  0.00    -0.294 N 
ATOM      4  C   UNL     1      32.474 -24.514 -13.979  0.00  0.00    +0.043 C 
ATOM      5  C   UNL     1      30.644 -23.712 -15.070  0.00  0.00    +0.142 C 
ATOM      6  C   UNL     1      31.392 -25.085 -13.429  0.00  0.00    +0.074 C 
ATOM      7  H   UNL     1      29.342 -24.890 -13.845  0.00  0.00    +0.154 HD
ENDROOT
BRANCH   2  11
ATOM      8  F   UNL     1      36.952 -21.744 -18.528  0.00  0.00    -0.201 F 
ATOM      9  F   UNL     1      33.452 -19.910 -21.125  0.00  0.00    -0.204 F 
ATOM     10  O   UNL     1      35.206 -22.824 -16.804  0.00  0.00    -0.472 OA
ATOM     11  C   UNL     1      32.966 -22.873 -15.806  0.00  0.00    +0.127 C 
ATOM     12  C   UNL     1      32.311 -22.461 -17.122  0.00  0.00    +0.054 C 
ATOM     13  C   UNL     1      34.250 -23.637 -16.116  0.00  0.00    +0.226 C 
ATOM     14  C   UNL     1      33.333 -21.891 -18.064  0.00  0.00    +0.018 C 
ATOM     15  C   UNL     1      34.702 -22.111 -17.860  0.00  0.00    +0.162 C 
ATOM     16  C   UNL     1      32.918 -21.150 -19.179  0.00  0.00    +0.029 C 
ATOM     17  C   UNL     1      35.641 -21.564 -18.739  0.00  0.00    +0.176 C 
ATOM     18  C   UNL     1      33.859 -20.616 -20.061  0.00  0.00    +0.142 C 
ATOM     19  C   UNL     1      35.218 -20.819 -19.839  0.00  0.00    +0.062 C 
ENDBRANCH   2  11
BRANCH   4  20
ATOM     20  C   UNL     1      33.898 -24.714 -13.615  0.00  0.00    +0.019 C 
BRANCH  20  21
ATOM     21  C   UNL     1      34.176 -24.281 -12.176  0.00  0.00    -0.075 C 
BRANCH  21  22
ATOM     22  N   UNL     1      35.054 -23.117 -12.153  0.00  0.00    +0.387 N 
ATOM     23  H   UNL     1      34.607 -22.372 -11.618  0.00  0.00    -0.084 HD
ATOM     24  H   UNL     1      35.221 -22.815 -13.112  0.00  0.00    -0.084 HD
BRANCH  22  25
ATOM     25  C   UNL     1      36.333 -23.444 -11.539  0.00  0.00    -0.054 C 
BRANCH  25  26
ATOM     26  C   UNL     1      37.303 -24.020 -12.536  0.00  0.00    -0.044 C 
ATOM     27  C   UNL     1      38.134 -25.080 -12.168  0.00  0.00    -0.006 C 
ATOM     28  C   UNL     1      37.370 -23.496 -13.826  0.00  0.00    -0.006 C 
ATOM     29  C   UNL     1      39.031 -25.614 -13.092  0.00  0.00    -0.000 C 
ATOM     30  C   UNL     1      38.269 -24.032 -14.750  0.00  0.00    -0.000 C 
ATOM     31  C   UNL     1      39.099 -25.090 -14.382  0.00  0.00    -0.000 C 
ENDBRANCH  25  26
ENDBRANCH  22  25
ENDBRANCH  21  22
ENDBRANCH  20  21
ENDBRANCH   4  20
TORSDOF 6
ENDMDL
