MODEL 1
REMARK VINA RESULT:     -12.8      0.000      0.000
REMARK  Name = 25025505
REMARK  6 active torsions:
REMARK  status: ('A' for Active; 'I' for Inactive)
REMARK    1  A    between atoms: C_3  and  C_9
REMARK    2  A    between atoms: C_4  and  C_20
REMARK    3  A    between atoms: C_17  and  C_18
REMARK    4  A    between atoms: C_20  and  O_21
REMARK    5  A    between atoms: O_21  and  C_22
REMARK    6  A    between atoms: C_25  and  N_28
REMARK                            x       y       z     vdW  Elec       q    Type
REMARK                         _______ _______ _______ _____ _____    ______ ____
ROOT
ATOM      1  S   UNL     1      36.416 -23.912 -14.711  0.00  0.00    -0.079 S 
ATOM      2  N   UNL     1      33.883 -23.475 -14.981  0.00  0.00    -0.404 NA
ATOM      3  C   UNL     1      35.040 -23.395 -15.598  0.00  0.00    +0.134 C 
ATOM      4  C   UNL     1      34.087 -23.982 -13.712  0.00  0.00    +0.142 C 
ATOM      5  C   UNL     1      35.394 -24.278 -13.384  0.00  0.00    +0.122 C 
ENDROOT
BRANCH   3   9
ATOM      6  N   UNL     1      35.178 -20.899 -19.120  0.00  0.00    -0.253 N 
ATOM      7  N   UNL     1      36.213 -19.087 -20.171  0.00  0.00    -0.203 NA
ATOM      8  N   UNL     1      34.216 -20.079 -21.085  0.00  0.00    -0.181 NA
ATOM      9  C   UNL     1      35.225 -22.884 -17.014  0.00  0.00    +0.062 C 
ATOM     10  C   UNL     1      33.906 -22.389 -17.626  0.00  0.00    +0.030 C 
ATOM     11  C   UNL     1      36.278 -21.770 -17.095  0.00  0.00    +0.030 C 
ATOM     12  C   UNL     1      34.105 -21.899 -19.061  0.00  0.00    +0.102 C 
ATOM     13  C   UNL     1      36.468 -21.289 -18.534  0.00  0.00    +0.102 C 
ATOM     14  C   UNL     1      35.204 -19.979 -20.175  0.00  0.00    +0.090 C 
ATOM     15  C   UNL     1      36.206 -18.215 -21.200  0.00  0.00    +0.161 C 
ATOM     16  C   UNL     1      34.271 -19.177 -22.086  0.00  0.00    +0.104 C 
ATOM     17  C   UNL     1      35.251 -18.212 -22.196  0.00  0.00    +0.001 C 
BRANCH  17  18
ATOM     18  C   UNL     1      35.278 -17.236 -23.312  0.00  0.00    +0.026 C 
ATOM     19  C   UNL     1      34.197 -17.508 -24.359  0.00  0.00    +0.005 C 
ENDBRANCH  17  18
ENDBRANCH   3   9
BRANCH   4  20
ATOM     20  C   UNL     1      32.916 -24.159 -12.831  0.00  0.00    +0.260 C 
BRANCH  20  21
ATOM     21  O   UNL     1      31.975 -25.042 -13.442  0.00  0.00    -0.468 OA
BRANCH  21  22
ATOM     22  C   UNL     1      30.909 -24.460 -14.069  0.00  0.00    +0.139 C 
ATOM     23  C   UNL     1      30.669 -23.094 -13.917  0.00  0.00    +0.038 C 
ATOM     24  C   UNL     1      30.060 -25.232 -14.862  0.00  0.00    +0.038 C 
ATOM     25  C   UNL     1      28.732 -23.274 -15.349  0.00  0.00    +0.078 C 
ATOM     26  C   UNL     1      29.580 -22.501 -14.557  0.00  0.00    +0.020 C 
ATOM     27  C   UNL     1      28.971 -24.640 -15.502  0.00  0.00    +0.020 C 
BRANCH  25  28
ATOM     28  N   UNL     1      27.653 -22.686 -15.984  0.00  0.00    -0.149 N 
ATOM     29  N   UNL     1      27.512 -22.695 -17.316  0.00  0.00    -0.048 NA
ATOM     30  N   UNL     1      25.800 -21.627 -16.368  0.00  0.00    -0.107 NA
ATOM     31  N   UNL     1      26.377 -22.047 -17.546  0.00  0.00    -0.024 NA
ATOM     32  C   UNL     1      26.605 -22.033 -15.414  0.00  0.00    +0.215 C 
ENDBRANCH  25  28
ENDBRANCH  21  22
ENDBRANCH  20  21
ENDBRANCH   4  20
TORSDOF 6
ENDMDL
MODEL 2
REMARK VINA RESULT:     -12.7      7.264     10.880
REMARK  Name = 25025505
REMARK  6 active torsions:
REMARK  status: ('A' for Active; 'I' for Inactive)
REMARK    1  A    between atoms: C_3  and  C_9
REMARK    2  A    between atoms: C_4  and  C_20
REMARK    3  A    between atoms: C_17  and  C_18
REMARK    4  A    between atoms: C_20  and  O_21
REMARK    5  A    between atoms: O_21  and  C_22
REMARK    6  A    between atoms: C_25  and  N_28
REMARK                            x       y       z     vdW  Elec       q    Type
REMARK                         _______ _______ _______ _____ _____    ______ ____
ROOT
ATOM      1  S   UNL     1      33.800 -15.378 -24.746  0.00  0.00    -0.079 S 
ATOM      2  N   UNL     1      34.512 -15.011 -22.289  0.00  0.00    -0.404 NA
ATOM      3  C   UNL     1      33.876 -14.460 -23.298  0.00  0.00    +0.134 C 
ATOM      4  C   UNL     1      34.978 -16.252 -22.678  0.00  0.00    +0.142 C 
ATOM      5  C   UNL     1      34.690 -16.624 -23.974  0.00  0.00    +0.122 C 
ENDROOT
BRANCH   3   9
ATOM      6  N   UNL     1      32.969 -10.321 -22.458  0.00  0.00    -0.253 N 
ATOM      7  N   UNL     1      33.619  -8.097 -22.755  0.00  0.00    -0.203 NA
ATOM      8  N   UNL     1      31.854  -8.682 -21.223  0.00  0.00    -0.181 NA
ATOM      9  C   UNL     1      33.221 -13.092 -23.256  0.00  0.00    +0.062 C 
ATOM     10  C   UNL     1      32.796 -12.698 -21.834  0.00  0.00    +0.030 C 
ATOM     11  C   UNL     1      34.127 -11.999 -23.842  0.00  0.00    +0.030 C 
ATOM     12  C   UNL     1      32.118 -11.327 -21.813  0.00  0.00    +0.102 C 
ATOM     13  C   UNL     1      33.438 -10.635 -23.815  0.00  0.00    +0.102 C 
ATOM     14  C   UNL     1      32.806  -8.970 -22.131  0.00  0.00    +0.090 C 
ATOM     15  C   UNL     1      33.436  -6.804 -22.415  0.00  0.00    +0.161 C 
ATOM     16  C   UNL     1      31.725  -7.371 -20.930  0.00  0.00    +0.104 C 
ATOM     17  C   UNL     1      32.496  -6.378 -21.499  0.00  0.00    +0.001 C 
BRANCH  17  18
ATOM     18  C   UNL     1      32.325  -4.947 -21.152  0.00  0.00    +0.026 C 
ATOM     19  C   UNL     1      31.016  -4.364 -21.685  0.00  0.00    +0.005 C 
ENDBRANCH  17  18
ENDBRANCH   3   9
BRANCH   4  20
ATOM     20  C   UNL     1      35.730 -17.059 -21.697  0.00  0.00    +0.260 C 
BRANCH  20  21
ATOM     21  O   UNL     1      35.698 -18.435 -22.071  0.00  0.00    -0.468 OA
BRANCH  21  22
ATOM     22  C   UNL     1      35.460 -19.336 -21.070  0.00  0.00    +0.139 C 
ATOM     23  C   UNL     1      36.517 -19.812 -20.293  0.00  0.00    +0.038 C 
ATOM     24  C   UNL     1      34.161 -19.780 -20.825  0.00  0.00    +0.038 C 
ATOM     25  C   UNL     1      34.975 -21.175 -19.029  0.00  0.00    +0.078 C 
ATOM     26  C   UNL     1      36.274 -20.732 -19.273  0.00  0.00    +0.020 C 
ATOM     27  C   UNL     1      33.917 -20.700 -19.805  0.00  0.00    +0.020 C 
BRANCH  25  28
ATOM     28  N   UNL     1      34.734 -22.087 -18.017  0.00  0.00    -0.149 N 
ATOM     29  N   UNL     1      35.660 -22.403 -17.101  0.00  0.00    -0.048 NA
ATOM     30  N   UNL     1      33.781 -23.542 -16.722  0.00  0.00    -0.107 NA
ATOM     31  N   UNL     1      35.072 -23.293 -16.311  0.00  0.00    -0.024 NA
ATOM     32  C   UNL     1      33.593 -22.785 -17.778  0.00  0.00    +0.215 C 
ENDBRANCH  25  28
ENDBRANCH  21  22
ENDBRANCH  20  21
ENDBRANCH   4  20
TORSDOF 6
ENDMDL
MODEL 3
REMARK VINA RESULT:     -12.2      4.595      7.116
REMARK  Name = 25025505
REMARK  6 active torsions:
REMARK  status: ('A' for Active; 'I' for Inactive)
REMARK    1  A    between atoms: C_3  and  C_9
REMARK    2  A    between atoms: C_4  and  C_20
REMARK    3  A    between atoms: C_17  and  C_18
REMARK    4  A    between atoms: C_20  and  O_21
REMARK    5  A    between atoms: O_21  and  C_22
REMARK    6  A    between atoms: C_25  and  N_28
REMARK                            x       y       z     vdW  Elec       q    Type
REMARK                         _______ _______ _______ _____ _____    ______ ____
ROOT
ATOM      1  S   UNL     1      33.349 -20.609 -20.149  0.00  0.00    -0.079 S 
ATOM      2  N   UNL     1      35.783 -20.365 -19.315  0.00  0.00    -0.404 NA
ATOM      3  C   UNL     1      34.909 -19.895 -20.176  0.00  0.00    +0.134 C 
ATOM      4  C   UNL     1      35.185 -21.364 -18.573  0.00  0.00    +0.142 C 
ATOM      5  C   UNL     1      33.869 -21.638 -18.881  0.00  0.00    +0.122 C 
ENDROOT
BRANCH   3   9
ATOM      6  N   UNL     1      34.578 -16.415 -22.714  0.00  0.00    -0.253 N 
ATOM      7  N   UNL     1      34.370 -14.090 -22.795  0.00  0.00    -0.203 NA
ATOM      8  N   UNL     1      34.134 -15.429 -24.785  0.00  0.00    -0.181 NA
ATOM      9  C   UNL     1      35.195 -18.784 -21.169  0.00  0.00    +0.062 C 
ATOM     10  C   UNL     1      34.253 -18.835 -22.381  0.00  0.00    +0.030 C 
ATOM     11  C   UNL     1      35.121 -17.394 -20.519  0.00  0.00    +0.030 C 
ATOM     12  C   UNL     1      34.569 -17.722 -23.381  0.00  0.00    +0.102 C 
ATOM     13  C   UNL     1      35.439 -16.292 -21.530  0.00  0.00    +0.102 C 
ATOM     14  C   UNL     1      34.351 -15.257 -23.467  0.00  0.00    +0.090 C 
ATOM     15  C   UNL     1      34.145 -12.994 -23.551  0.00  0.00    +0.161 C 
ATOM     16  C   UNL     1      33.917 -14.292 -25.479  0.00  0.00    +0.104 C 
ATOM     17  C   UNL     1      33.910 -13.035 -24.910  0.00  0.00    +0.001 C 
BRANCH  17  18
ATOM     18  C   UNL     1      33.668 -11.808 -25.705  0.00  0.00    +0.026 C 
ATOM     19  C   UNL     1      34.604 -10.661 -25.320  0.00  0.00    +0.005 C 
ENDBRANCH  17  18
ENDBRANCH   3   9
BRANCH   4  20
ATOM     20  C   UNL     1      35.986 -22.043 -17.534  0.00  0.00    +0.260 C 
BRANCH  20  21
ATOM     21  O   UNL     1      35.245 -23.128 -16.978  0.00  0.00    -0.468 OA
BRANCH  21  22
ATOM     22  C   UNL     1      35.377 -23.333 -15.632  0.00  0.00    +0.139 C 
ATOM     23  C   UNL     1      34.299 -23.819 -14.891  0.00  0.00    +0.038 C 
ATOM     24  C   UNL     1      36.588 -23.056 -15.000  0.00  0.00    +0.038 C 
ATOM     25  C   UNL     1      35.645 -23.750 -12.887  0.00  0.00    +0.078 C 
ATOM     26  C   UNL     1      34.434 -24.027 -13.518  0.00  0.00    +0.020 C 
ATOM     27  C   UNL     1      36.724 -23.264 -13.627  0.00  0.00    +0.020 C 
BRANCH  25  28
ATOM     28  N   UNL     1      35.779 -23.957 -11.526  0.00  0.00    -0.149 N 
ATOM     29  N   UNL     1      34.961 -24.767 -10.840  0.00  0.00    -0.048 NA
ATOM     30  N   UNL     1      36.479 -23.869  -9.475  0.00  0.00    -0.107 NA
ATOM     31  N   UNL     1      35.394 -24.710  -9.586  0.00  0.00    -0.024 NA
ATOM     32  C   UNL     1      36.700 -23.415 -10.687  0.00  0.00    +0.215 C 
ENDBRANCH  25  28
ENDBRANCH  21  22
ENDBRANCH  20  21
ENDBRANCH   4  20
TORSDOF 6
ENDMDL
MODEL 4
REMARK VINA RESULT:     -12.0      6.946     10.701
REMARK  Name = 25025505
REMARK  6 active torsions:
REMARK  status: ('A' for Active; 'I' for Inactive)
REMARK    1  A    between atoms: C_3  and  C_9
REMARK    2  A    between atoms: C_4  and  C_20
REMARK    3  A    between atoms: C_17  and  C_18
REMARK    4  A    between atoms: C_20  and  O_21
REMARK    5  A    between atoms: O_21  and  C_22
REMARK    6  A    between atoms: C_25  and  N_28
REMARK                            x       y       z     vdW  Elec       q    Type
REMARK                         _______ _______ _______ _____ _____    ______ ____
ROOT
ATOM      1  S   UNL     1      33.492 -15.324 -25.125  0.00  0.00    -0.079 S 
ATOM      2  N   UNL     1      34.704 -16.026 -22.952  0.00  0.00    -0.404 NA
ATOM      3  C   UNL     1      34.185 -15.000 -23.588  0.00  0.00    +0.134 C 
ATOM      4  C   UNL     1      34.547 -17.158 -23.728  0.00  0.00    +0.142 C 
ATOM      5  C   UNL     1      33.913 -16.975 -24.940  0.00  0.00    +0.122 C 
ENDROOT
BRANCH   3   9
ATOM      6  N   UNL     1      33.071 -10.925 -22.684  0.00  0.00    -0.253 N 
ATOM      7  N   UNL     1      31.562  -9.531 -21.573  0.00  0.00    -0.203 NA
ATOM      8  N   UNL     1      33.181  -8.632 -23.114  0.00  0.00    -0.181 NA
ATOM      9  C   UNL     1      34.164 -13.580 -23.054  0.00  0.00    +0.062 C 
ATOM     10  C   UNL     1      34.180 -12.538 -24.182  0.00  0.00    +0.030 C 
ATOM     11  C   UNL     1      32.960 -13.325 -22.136  0.00  0.00    +0.030 C 
ATOM     12  C   UNL     1      34.181 -11.113 -23.626  0.00  0.00    +0.102 C 
ATOM     13  C   UNL     1      32.973 -11.898 -21.587  0.00  0.00    +0.102 C 
ATOM     14  C   UNL     1      32.582  -9.635 -22.445  0.00  0.00    +0.090 C 
ATOM     15  C   UNL     1      31.115  -8.275 -21.367  0.00  0.00    +0.161 C 
ATOM     16  C   UNL     1      32.684  -7.403 -22.861  0.00  0.00    +0.104 C 
ATOM     17  C   UNL     1      31.642  -7.162 -21.990  0.00  0.00    +0.001 C 
BRANCH  17  18
ATOM     18  C   UNL     1      31.122  -5.796 -21.737  0.00  0.00    +0.026 C 
ATOM     19  C   UNL     1      32.114  -4.704 -22.143  0.00  0.00    +0.005 C 
ENDBRANCH  17  18
ENDBRANCH   3   9
BRANCH   4  20
ATOM     20  C   UNL     1      35.060 -18.441 -23.209  0.00  0.00    +0.260 C 
BRANCH  20  21
ATOM     21  O   UNL     1      35.677 -18.241 -21.938  0.00  0.00    -0.468 OA
BRANCH  21  22
ATOM     22  C   UNL     1      35.430 -19.187 -20.982  0.00  0.00    +0.139 C 
ATOM     23  C   UNL     1      34.128 -19.645 -20.772  0.00  0.00    +0.038 C 
ATOM     24  C   UNL     1      36.478 -19.695 -20.215  0.00  0.00    +0.038 C 
ATOM     25  C   UNL     1      34.925 -21.116 -19.030  0.00  0.00    +0.078 C 
ATOM     26  C   UNL     1      33.876 -20.609 -19.796  0.00  0.00    +0.020 C 
ATOM     27  C   UNL     1      36.227 -20.659 -19.239  0.00  0.00    +0.020 C 
BRANCH  25  28
ATOM     28  N   UNL     1      34.675 -22.072 -18.063  0.00  0.00    -0.149 N 
ATOM     29  N   UNL     1      35.570 -22.386 -17.116  0.00  0.00    -0.048 NA
ATOM     30  N   UNL     1      33.723 -23.608 -16.864  0.00  0.00    -0.107 NA
ATOM     31  N   UNL     1      34.983 -23.326 -16.386  0.00  0.00    -0.024 NA
ATOM     32  C   UNL     1      33.553 -22.821 -17.901  0.00  0.00    +0.215 C 
ENDBRANCH  25  28
ENDBRANCH  21  22
ENDBRANCH  20  21
ENDBRANCH   4  20
TORSDOF 6
ENDMDL
MODEL 5
REMARK VINA RESULT:     -11.8      4.941     10.514
REMARK  Name = 25025505
REMARK  6 active torsions:
REMARK  status: ('A' for Active; 'I' for Inactive)
REMARK    1  A    between atoms: C_3  and  C_9
REMARK    2  A    between atoms: C_4  and  C_20
REMARK    3  A    between atoms: C_17  and  C_18
REMARK    4  A    between atoms: C_20  and  O_21
REMARK    5  A    between atoms: O_21  and  C_22
REMARK    6  A    between atoms: C_25  and  N_28
REMARK                            x       y       z     vdW  Elec       q    Type
REMARK                         _______ _______ _______ _____ _____    ______ ____
ROOT
ATOM      1  S   UNL     1      36.819 -19.027 -20.616  0.00  0.00    -0.079 S 
ATOM      2  N   UNL     1      34.565 -19.320 -21.847  0.00  0.00    -0.404 NA
ATOM      3  C   UNL     1      35.313 -19.805 -20.881  0.00  0.00    +0.134 C 
ATOM      4  C   UNL     1      35.223 -18.253 -22.427  0.00  0.00    +0.142 C 
ATOM      5  C   UNL     1      36.457 -17.944 -21.895  0.00  0.00    +0.122 C 
ENDROOT
BRANCH   3   9
ATOM      6  N   UNL     1      34.008 -22.276 -17.587  0.00  0.00    -0.253 N 
ATOM      7  N   UNL     1      32.221 -22.884 -16.211  0.00  0.00    -0.203 NA
ATOM      8  N   UNL     1      34.466 -23.613 -15.726  0.00  0.00    -0.181 NA
ATOM      9  C   UNL     1      34.928 -20.986 -20.009  0.00  0.00    +0.062 C 
ATOM     10  C   UNL     1      35.825 -21.104 -18.768  0.00  0.00    +0.030 C 
ATOM     11  C   UNL     1      33.456 -20.929 -19.575  0.00  0.00    +0.030 C 
ATOM     12  C   UNL     1      35.439 -22.311 -17.912  0.00  0.00    +0.102 C 
ATOM     13  C   UNL     1      33.083 -22.141 -18.721  0.00  0.00    +0.102 C 
ATOM     14  C   UNL     1      33.543 -22.957 -16.455  0.00  0.00    +0.090 C 
ATOM     15  C   UNL     1      31.807 -23.550 -15.113  0.00  0.00    +0.161 C 
ATOM     16  C   UNL     1      33.983 -24.256 -14.643  0.00  0.00    +0.104 C 
ATOM     17  C   UNL     1      32.651 -24.259 -14.283  0.00  0.00    +0.001 C 
BRANCH  17  18
ATOM     18  C   UNL     1      32.158 -24.979 -13.084  0.00  0.00    +0.026 C 
ATOM     19  C   UNL     1      30.688 -24.683 -12.783  0.00  0.00    +0.005 C 
ENDBRANCH  17  18
ENDBRANCH   3   9
BRANCH   4  20
ATOM     20  C   UNL     1      34.565 -17.547 -23.544  0.00  0.00    +0.260 C 
BRANCH  20  21
ATOM     21  O   UNL     1      35.183 -16.278 -23.750  0.00  0.00    -0.468 OA
BRANCH  21  22
ATOM     22  C   UNL     1      34.507 -15.184 -23.283  0.00  0.00    +0.139 C 
ATOM     23  C   UNL     1      33.680 -14.456 -24.139  0.00  0.00    +0.038 C 
ATOM     24  C   UNL     1      34.645 -14.796 -21.951  0.00  0.00    +0.038 C 
ATOM     25  C   UNL     1      33.130 -12.953 -22.330  0.00  0.00    +0.078 C 
ATOM     26  C   UNL     1      32.991 -13.341 -23.662  0.00  0.00    +0.020 C 
ATOM     27  C   UNL     1      33.957 -13.681 -21.473  0.00  0.00    +0.020 C 
BRANCH  25  28
ATOM     28  N   UNL     1      32.447 -11.847 -21.857  0.00  0.00    -0.149 N 
ATOM     29  N   UNL     1      32.614 -10.624 -22.378  0.00  0.00    -0.048 NA
ATOM     30  N   UNL     1      31.130 -10.557 -20.716  0.00  0.00    -0.107 NA
ATOM     31  N   UNL     1      31.806  -9.838 -21.677  0.00  0.00    -0.024 NA
ATOM     32  C   UNL     1      31.541 -11.797 -20.846  0.00  0.00    +0.215 C 
ENDBRANCH  25  28
ENDBRANCH  21  22
ENDBRANCH  20  21
ENDBRANCH   4  20
TORSDOF 6
ENDMDL
MODEL 6
REMARK VINA RESULT:     -11.4      5.925     11.157
REMARK  Name = 25025505
REMARK  6 active torsions:
REMARK  status: ('A' for Active; 'I' for Inactive)
REMARK    1  A    between atoms: C_3  and  C_9
REMARK    2  A    between atoms: C_4  and  C_20
REMARK    3  A    between atoms: C_17  and  C_18
REMARK    4  A    between atoms: C_20  and  O_21
REMARK    5  A    between atoms: O_21  and  C_22
REMARK    6  A    between atoms: C_25  and  N_28
REMARK                            x       y       z     vdW  Elec       q    Type
REMARK                         _______ _______ _______ _____ _____    ______ ____
ROOT
ATOM      1  S   UNL     1      34.812 -19.331 -23.117  0.00  0.00    -0.079 S 
ATOM      2  N   UNL     1      35.180 -17.815 -21.056  0.00  0.00    -0.404 NA
ATOM      3  C   UNL     1      35.128 -19.067 -21.451  0.00  0.00    +0.134 C 
ATOM      4  C   UNL     1      34.953 -16.994 -22.144  0.00  0.00    +0.142 C 
ATOM      5  C   UNL     1      34.733 -17.633 -23.346  0.00  0.00    +0.122 C 
ENDROOT
BRANCH   3   9
ATOM      6  N   UNL     1      35.377 -21.657 -18.003  0.00  0.00    -0.253 N 
ATOM      7  N   UNL     1      34.194 -22.736 -16.302  0.00  0.00    -0.203 NA
ATOM      8  N   UNL     1      36.603 -22.682 -16.299  0.00  0.00    -0.181 NA
ATOM      9  C   UNL     1      35.329 -20.263 -20.539  0.00  0.00    +0.062 C 
ATOM     10  C   UNL     1      36.443 -20.025 -19.510  0.00  0.00    +0.030 C 
ATOM     11  C   UNL     1      34.035 -20.659 -19.813  0.00  0.00    +0.030 C 
ATOM     12  C   UNL     1      36.647 -21.248 -18.614  0.00  0.00    +0.102 C 
ATOM     13  C   UNL     1      34.252 -21.883 -18.922  0.00  0.00    +0.102 C 
ATOM     14  C   UNL     1      35.392 -22.394 -16.813  0.00  0.00    +0.090 C 
ATOM     15  C   UNL     1      34.246 -23.443 -15.154  0.00  0.00    +0.161 C 
ATOM     16  C   UNL     1      36.581 -23.391 -15.152  0.00  0.00    +0.104 C 
ATOM     17  C   UNL     1      35.421 -23.802 -14.527  0.00  0.00    +0.001 C 
BRANCH  17  18
ATOM     18  C   UNL     1      35.436 -24.581 -13.265  0.00  0.00    +0.026 C 
ATOM     19  C   UNL     1      35.723 -23.712 -12.040  0.00  0.00    +0.005 C 
ENDBRANCH  17  18
ENDBRANCH   3   9
BRANCH   4  20
ATOM     20  C   UNL     1      34.964 -15.533 -21.934  0.00  0.00    +0.260 C 
BRANCH  20  21
ATOM     21  O   UNL     1      34.277 -14.882 -23.003  0.00  0.00    -0.468 OA
BRANCH  21  22
ATOM     22  C   UNL     1      33.784 -13.633 -22.743  0.00  0.00    +0.139 C 
ATOM     23  C   UNL     1      34.104 -12.567 -23.583  0.00  0.00    +0.038 C 
ATOM     24  C   UNL     1      32.960 -13.425 -21.637  0.00  0.00    +0.038 C 
ATOM     25  C   UNL     1      32.778 -11.086 -22.212  0.00  0.00    +0.078 C 
ATOM     26  C   UNL     1      33.602 -11.293 -23.318  0.00  0.00    +0.020 C 
ATOM     27  C   UNL     1      32.457 -12.152 -21.371  0.00  0.00    +0.020 C 
BRANCH  25  28
ATOM     28  N   UNL     1      32.279  -9.823 -21.948  0.00  0.00    -0.149 N 
ATOM     29  N   UNL     1      32.045  -8.927 -22.917  0.00  0.00    -0.048 NA
ATOM     30  N   UNL     1      31.518  -8.066 -20.930  0.00  0.00    -0.107 NA
ATOM     31  N   UNL     1      31.580  -7.855 -22.289  0.00  0.00    -0.024 NA
ATOM     32  C   UNL     1      31.955  -9.290 -20.741  0.00  0.00    +0.215 C 
ENDBRANCH  25  28
ENDBRANCH  21  22
ENDBRANCH  20  21
ENDBRANCH   4  20
TORSDOF 6
ENDMDL
MODEL 7
REMARK VINA RESULT:     -11.3      4.944     10.170
REMARK  Name = 25025505
REMARK  6 active torsions:
REMARK  status: ('A' for Active; 'I' for Inactive)
REMARK    1  A    between atoms: C_3  and  C_9
REMARK    2  A    between atoms: C_4  and  C_20
REMARK    3  A    between atoms: C_17  and  C_18
REMARK    4  A    between atoms: C_20  and  O_21
REMARK    5  A    between atoms: O_21  and  C_22
REMARK    6  A    between atoms: C_25  and  N_28
REMARK                            x       y       z     vdW  Elec       q    Type
REMARK                         _______ _______ _______ _____ _____    ______ ____
ROOT
ATOM      1  S   UNL     1      33.131 -20.541 -19.909  0.00  0.00    -0.079 S 
ATOM      2  N   UNL     1      35.606 -20.179 -20.563  0.00  0.00    -0.404 NA
ATOM      3  C   UNL     1      34.816 -20.817 -19.729  0.00  0.00    +0.134 C 
ATOM      4  C   UNL     1      34.832 -19.412 -21.412  0.00  0.00    +0.142 C 
ATOM      5  C   UNL     1      33.469 -19.478 -21.211  0.00  0.00    +0.122 C 
ENDROOT
BRANCH   3   9
ATOM      6  N   UNL     1      35.840 -22.575 -15.919  0.00  0.00    -0.253 N 
ATOM      7  N   UNL     1      35.033 -23.417 -13.894  0.00  0.00    -0.203 NA
ATOM      8  N   UNL     1      37.390 -23.056 -14.239  0.00  0.00    -0.181 NA
ATOM      9  C   UNL     1      35.297 -21.760 -18.642  0.00  0.00    +0.062 C 
ATOM     10  C   UNL     1      36.469 -21.172 -17.843  0.00  0.00    +0.030 C 
ATOM     11  C   UNL     1      34.168 -22.158 -17.680  0.00  0.00    +0.030 C 
ATOM     12  C   UNL     1      36.956 -22.144 -16.768  0.00  0.00    +0.102 C 
ATOM     13  C   UNL     1      34.668 -23.130 -16.611  0.00  0.00    +0.102 C 
ATOM     14  C   UNL     1      36.100 -23.039 -14.623  0.00  0.00    +0.090 C 
ATOM     15  C   UNL     1      35.319 -23.856 -12.651  0.00  0.00    +0.161 C 
ATOM     16  C   UNL     1      37.604 -23.506 -12.985  0.00  0.00    +0.104 C 
ATOM     17  C   UNL     1      36.598 -23.923 -12.137  0.00  0.00    +0.001 C 
BRANCH  17  18
ATOM     18  C   UNL     1      36.872 -24.412 -10.765  0.00  0.00    +0.026 C 
ATOM     19  C   UNL     1      35.696 -24.187  -9.813  0.00  0.00    +0.005 C 
ENDBRANCH  17  18
ENDBRANCH   3   9
BRANCH   4  20
ATOM     20  C   UNL     1      35.513 -18.601 -22.441  0.00  0.00    +0.260 C 
BRANCH  20  21
ATOM     21  O   UNL     1      36.125 -17.462 -21.839  0.00  0.00    -0.468 OA
BRANCH  21  22
ATOM     22  C   UNL     1      35.360 -16.333 -21.745  0.00  0.00    +0.139 C 
ATOM     23  C   UNL     1      34.923 -15.686 -22.902  0.00  0.00    +0.038 C 
ATOM     24  C   UNL     1      35.013 -15.827 -20.492  0.00  0.00    +0.038 C 
ATOM     25  C   UNL     1      33.798 -14.029 -21.553  0.00  0.00    +0.078 C 
ATOM     26  C   UNL     1      34.143 -14.534 -22.805  0.00  0.00    +0.020 C 
ATOM     27  C   UNL     1      34.233 -14.675 -20.395  0.00  0.00    +0.020 C 
BRANCH  25  28
ATOM     28  N   UNL     1      33.024 -12.887 -21.457  0.00  0.00    -0.149 N 
ATOM     29  N   UNL     1      33.124 -11.877 -22.332  0.00  0.00    -0.048 NA
ATOM     30  N   UNL     1      31.580 -11.411 -20.793  0.00  0.00    -0.107 NA
ATOM     31  N   UNL     1      32.240 -10.977 -21.921  0.00  0.00    -0.024 NA
ATOM     32  C   UNL     1      32.081 -12.595 -20.523  0.00  0.00    +0.215 C 
ENDBRANCH  25  28
ENDBRANCH  21  22
ENDBRANCH  20  21
ENDBRANCH   4  20
TORSDOF 6
ENDMDL
MODEL 8
REMARK VINA RESULT:     -11.0      5.157      8.152
REMARK  Name = 25025505
REMARK  6 active torsions:
REMARK  status: ('A' for Active; 'I' for Inactive)
REMARK    1  A    between atoms: C_3  and  C_9
REMARK    2  A    between atoms: C_4  and  C_20
REMARK    3  A    between atoms: C_17  and  C_18
REMARK    4  A    between atoms: C_20  and  O_21
REMARK    5  A    between atoms: O_21  and  C_22
REMARK    6  A    between atoms: C_25  and  N_28
REMARK                            x       y       z     vdW  Elec       q    Type
REMARK                         _______ _______ _______ _____ _____    ______ ____
ROOT
ATOM      1  S   UNL     1      34.433 -19.687 -21.523  0.00  0.00    -0.079 S 
ATOM      2  N   UNL     1      36.223 -19.184 -19.727  0.00  0.00    -0.404 NA
ATOM      3  C   UNL     1      35.512 -18.643 -20.692  0.00  0.00    +0.134 C 
ATOM      4  C   UNL     1      35.898 -20.522 -19.630  0.00  0.00    +0.142 C 
ATOM      5  C   UNL     1      34.948 -20.979 -20.519  0.00  0.00    +0.122 C 
ENDROOT
BRANCH   3   9
ATOM      6  N   UNL     1      34.524 -14.636 -21.966  0.00  0.00    -0.253 N 
ATOM      7  N   UNL     1      33.447 -12.638 -21.413  0.00  0.00    -0.203 NA
ATOM      8  N   UNL     1      34.294 -13.020 -23.636  0.00  0.00    -0.181 NA
ATOM      9  C   UNL     1      35.590 -17.184 -21.101  0.00  0.00    +0.062 C 
ATOM     10  C   UNL     1      35.102 -16.961 -22.540  0.00  0.00    +0.030 C 
ATOM     11  C   UNL     1      34.806 -16.273 -20.146  0.00  0.00    +0.030 C 
ATOM     12  C   UNL     1      35.208 -15.490 -22.944  0.00  0.00    +0.102 C 
ATOM     13  C   UNL     1      34.920 -14.806 -20.561  0.00  0.00    +0.102 C 
ATOM     14  C   UNL     1      34.068 -13.372 -22.357  0.00  0.00    +0.090 C 
ATOM     15  C   UNL     1      33.019 -11.427 -21.824  0.00  0.00    +0.161 C 
ATOM     16  C   UNL     1      33.840 -11.796 -23.979  0.00  0.00    +0.104 C 
ATOM     17  C   UNL     1      33.188 -10.948 -23.107  0.00  0.00    +0.001 C 
BRANCH  17  18
ATOM     18  C   UNL     1      32.703  -9.610 -23.521  0.00  0.00    +0.026 C 
ATOM     19  C   UNL     1      31.922  -8.898 -22.414  0.00  0.00    +0.005 C 
ENDBRANCH  17  18
ENDBRANCH   3   9
BRANCH   4  20
ATOM     20  C   UNL     1      36.580 -21.337 -18.604  0.00  0.00    +0.260 C 
BRANCH  20  21
ATOM     21  O   UNL     1      35.624 -22.105 -17.876  0.00  0.00    -0.468 OA
BRANCH  21  22
ATOM     22  C   UNL     1      35.941 -22.410 -16.581  0.00  0.00    +0.139 C 
ATOM     23  C   UNL     1      37.258 -22.289 -16.137  0.00  0.00    +0.038 C 
ATOM     24  C   UNL     1      34.948 -22.842 -15.702  0.00  0.00    +0.038 C 
ATOM     25  C   UNL     1      36.588 -23.032 -13.940  0.00  0.00    +0.078 C 
ATOM     26  C   UNL     1      37.582 -22.600 -14.817  0.00  0.00    +0.020 C 
ATOM     27  C   UNL     1      35.270 -23.153 -14.382  0.00  0.00    +0.020 C 
BRANCH  25  28
ATOM     28  N   UNL     1      36.909 -23.340 -12.630  0.00  0.00    -0.149 N 
ATOM     29  N   UNL     1      37.226 -22.401 -11.729  0.00  0.00    -0.048 NA
ATOM     30  N   UNL     1      37.304 -24.423 -10.793  0.00  0.00    -0.107 NA
ATOM     31  N   UNL     1      37.467 -23.068 -10.607  0.00  0.00    -0.024 NA
ATOM     32  C   UNL     1      36.958 -24.569 -12.051  0.00  0.00    +0.215 C 
ENDBRANCH  25  28
ENDBRANCH  21  22
ENDBRANCH  20  21
ENDBRANCH   4  20
TORSDOF 6
ENDMDL
MODEL 9
REMARK VINA RESULT:     -10.7      4.701      7.429
REMARK  Name = 25025505
REMARK  6 active torsions:
REMARK  status: ('A' for Active; 'I' for Inactive)
REMARK    1  A    between atoms: C_3  and  C_9
REMARK    2  A    between atoms: C_4  and  C_20
REMARK    3  A    between atoms: C_17  and  C_18
REMARK    4  A    between atoms: C_20  and  O_21
REMARK    5  A    between atoms: O_21  and  C_22
REMARK    6  A    between atoms: C_25  and  N_28
REMARK                            x       y       z     vdW  Elec       q    Type
REMARK                         _______ _______ _______ _____ _____    ______ ____
ROOT
ATOM      1  S   UNL     1      34.255 -19.050 -21.971  0.00  0.00    -0.079 S 
ATOM      2  N   UNL     1      35.959 -18.662 -20.066  0.00  0.00    -0.404 NA
ATOM      3  C   UNL     1      35.277 -18.058 -21.013  0.00  0.00    +0.134 C 
ATOM      4  C   UNL     1      35.660 -20.010 -20.091  0.00  0.00    +0.142 C 
ATOM      5  C   UNL     1      34.756 -20.409 -21.054  0.00  0.00    +0.122 C 
ENDROOT
BRANCH   3   9
ATOM      6  N   UNL     1      34.261 -13.985 -22.031  0.00  0.00    -0.253 N 
ATOM      7  N   UNL     1      33.093 -12.064 -21.397  0.00  0.00    -0.203 NA
ATOM      8  N   UNL     1      34.096 -12.244 -23.581  0.00  0.00    -0.181 NA
ATOM      9  C   UNL     1      35.340 -16.569 -21.300  0.00  0.00    +0.062 C 
ATOM     10  C   UNL     1      34.942 -16.242 -22.747  0.00  0.00    +0.030 C 
ATOM     11  C   UNL     1      34.468 -15.756 -20.331  0.00  0.00    +0.030 C 
ATOM     12  C   UNL     1      35.032 -14.741 -23.025  0.00  0.00    +0.102 C 
ATOM     13  C   UNL     1      34.567 -14.258 -20.620  0.00  0.00    +0.102 C 
ATOM     14  C   UNL     1      33.795 -12.704 -22.351  0.00  0.00    +0.090 C 
ATOM     15  C   UNL     1      32.658 -10.833 -21.740  0.00  0.00    +0.161 C 
ATOM     16  C   UNL     1      33.630 -11.008 -23.856  0.00  0.00    +0.104 C 
ATOM     17  C   UNL     1      32.898 -10.248 -22.966  0.00  0.00    +0.001 C 
BRANCH  17  18
ATOM     18  C   UNL     1      32.403  -8.893 -23.305  0.00  0.00    +0.026 C 
ATOM     19  C   UNL     1      32.981  -7.809 -22.392  0.00  0.00    +0.005 C 
ENDBRANCH  17  18
ENDBRANCH   3   9
BRANCH   4  20
ATOM     20  C   UNL     1      36.317 -20.892 -19.107  0.00  0.00    +0.260 C 
BRANCH  20  21
ATOM     21  O   UNL     1      35.660 -22.159 -19.073  0.00  0.00    -0.468 OA
BRANCH  21  22
ATOM     22  C   UNL     1      34.989 -22.471 -17.923  0.00  0.00    +0.139 C 
ATOM     23  C   UNL     1      35.659 -22.461 -16.699  0.00  0.00    +0.038 C 
ATOM     24  C   UNL     1      33.635 -22.798 -17.972  0.00  0.00    +0.038 C 
ATOM     25  C   UNL     1      33.621 -23.107 -15.576  0.00  0.00    +0.078 C 
ATOM     26  C   UNL     1      34.975 -22.779 -15.526  0.00  0.00    +0.020 C 
ATOM     27  C   UNL     1      32.950 -23.117 -16.799  0.00  0.00    +0.020 C 
BRANCH  25  28
ATOM     28  N   UNL     1      32.942 -23.423 -14.413  0.00  0.00    -0.149 N 
ATOM     29  N   UNL     1      33.183 -24.547 -13.725  0.00  0.00    -0.048 NA
ATOM     30  N   UNL     1      31.591 -23.354 -12.719  0.00  0.00    -0.107 NA
ATOM     31  N   UNL     1      32.354 -24.500 -12.689  0.00  0.00    -0.024 NA
ATOM     32  C   UNL     1      31.972 -22.702 -13.793  0.00  0.00    +0.215 C 
ENDBRANCH  25  28
ENDBRANCH  21  22
ENDBRANCH  20  21
ENDBRANCH   4  20
TORSDOF 6
ENDMDL
