MODEL 1
REMARK VINA RESULT:     -12.0      0.000      0.000
REMARK  Name = 25058128
REMARK  13 active torsions:
REMARK  status: ('A' for Active; 'I' for Inactive)
REMARK    1  A    between atoms: C_1  and  S_11
REMARK    2  A    between atoms: C_9  and  O_27
REMARK    3  A    between atoms: S_11  and  N_14
REMARK    4  A    between atoms: N_14  and  C_16
REMARK    5  A    between atoms: C_16  and  C_18
REMARK    6  A    between atoms: C_16  and  C_21
REMARK    7  A    between atoms: C_18  and  O_19
REMARK    8  A    between atoms: C_21  and  C_22
REMARK    9  A    between atoms: C_22  and  C_24
REMARK   10  A    between atoms: C_24  and  O_25
REMARK   11  A    between atoms: O_27  and  C_28
REMARK   12  A    between atoms: C_28  and  C_30
REMARK   13  A    between atoms: C_35  and  C_37
REMARK                            x       y       z     vdW  Elec       q    Type
REMARK                         _______ _______ _______ _____ _____    ______ ____
ROOT
ATOM      1  C   UNL     1      35.550 -22.998 -16.034  0.00  0.00    +0.122 C 
ATOM      2  C   UNL     1      34.465 -21.957 -17.946  0.00  0.00    +0.002 C 
ATOM      3  C   UNL     1      34.409 -22.772 -16.804  0.00  0.00    +0.020 C 
ATOM      4  C   UNL     1      35.697 -21.363 -18.312  0.00  0.00    +0.003 C 
ATOM      5  C   UNL     1      36.760 -22.413 -16.393  0.00  0.00    +0.020 C 
ATOM      6  C   UNL     1      36.835 -21.600 -17.525  0.00  0.00    +0.001 C 
ATOM      7  C   UNL     1      35.754 -20.547 -19.455  0.00  0.00    +0.037 C 
ATOM      8  C   UNL     1      33.327 -21.719 -18.734  0.00  0.00    +0.003 C 
ATOM      9  C   UNL     1      34.612 -20.322 -20.225  0.00  0.00    +0.139 C 
ATOM     10  C   UNL     1      33.402 -20.906 -19.866  0.00  0.00    +0.037 C 
ENDROOT
BRANCH   1  11
ATOM     11  S   UNL     1      35.457 -24.027 -14.599  0.00  0.00    +0.061 S 
ATOM     12  O   UNL     1      34.364 -23.549 -13.776  0.00  0.00    -0.153 OA
ATOM     13  O   UNL     1      35.476 -25.401 -15.064  0.00  0.00    -0.153 OA
BRANCH  11  14
ATOM     14  N   UNL     1      36.934 -23.687 -13.830  0.00  0.00    -0.170 NA
ATOM     15  H   UNL     1      36.751 -22.946 -13.153  0.00  0.00    +0.149 HD
BRANCH  14  16
ATOM     16  C   UNL     1      37.654 -24.758 -13.107  0.00  0.00    +0.174 C 
BRANCH  16  18
ATOM     17  O   UNL     1      40.036 -24.793 -13.598  0.00  0.00    -0.249 OA
ATOM     18  C   UNL     1      38.891 -25.107 -13.899  0.00  0.00    +0.330 C 
BRANCH  18  19
ATOM     19  O   UNL     1      38.601 -25.845 -15.002  0.00  0.00    -0.479 OA
ATOM     20  H   UNL     1      37.883 -26.446 -14.989  0.00  0.00    +0.295 HD
ENDBRANCH  18  19
ENDBRANCH  16  18
BRANCH  16  21
ATOM     21  C   UNL     1      37.923 -24.338 -11.656  0.00  0.00    +0.040 C 
BRANCH  21  22
ATOM     22  C   UNL     1      36.846 -23.482 -10.984  0.00  0.00    +0.111 C 
BRANCH  22  24
ATOM     23  O   UNL     1      35.510 -24.324  -9.157  0.00  0.00    -0.250 OA
ATOM     24  C   UNL     1      35.731 -24.281 -10.361  0.00  0.00    +0.314 C 
BRANCH  24  25
ATOM     25  O   UNL     1      35.000 -24.968 -11.275  0.00  0.00    -0.480 OA
ATOM     26  H   UNL     1      35.154 -24.836 -12.190  0.00  0.00    +0.295 HD
ENDBRANCH  24  25
ENDBRANCH  22  24
ENDBRANCH  21  22
ENDBRANCH  16  21
ENDBRANCH  14  16
ENDBRANCH  11  14
ENDBRANCH   1  11
BRANCH   9  27
ATOM     27  O   UNL     1      34.683 -19.528 -21.329  0.00  0.00    -0.471 OA
BRANCH  27  28
ATOM     28  C   UNL     1      35.804 -18.651 -21.428  0.00  0.00    +0.234 C 
BRANCH  28  30
ATOM     29  F   UNL     1      35.354 -16.407 -19.761  0.00  0.00    -0.204 F 
ATOM     30  C   UNL     1      35.342 -17.323 -21.951  0.00  0.00    +0.049 C 
ATOM     31  C   UNL     1      35.138 -16.257 -21.075  0.00  0.00    +0.140 C 
ATOM     32  C   UNL     1      35.116 -17.156 -23.318  0.00  0.00    +0.002 C 
ATOM     33  C   UNL     1      34.708 -15.024 -21.566  0.00  0.00    +0.040 C 
ATOM     34  C   UNL     1      34.686 -15.923 -23.808  0.00  0.00    +0.010 C 
ATOM     35  C   UNL     1      34.482 -14.857 -22.932  0.00  0.00    +0.071 C 
BRANCH  35  37
ATOM     36  N   UNL     1      33.687 -12.567 -23.844  0.00  0.00    -0.191 NA
ATOM     37  C   UNL     1      34.043 -13.593 -23.435  0.00  0.00    +0.100 C 
ENDBRANCH  35  37
ENDBRANCH  28  30
ENDBRANCH  27  28
ENDBRANCH   9  27
TORSDOF 13
ENDMDL
MODEL 2
REMARK VINA RESULT:     -11.9      1.254      1.930
REMARK  Name = 25058128
REMARK  13 active torsions:
REMARK  status: ('A' for Active; 'I' for Inactive)
REMARK    1  A    between atoms: C_1  and  S_11
REMARK    2  A    between atoms: C_9  and  O_27
REMARK    3  A    between atoms: S_11  and  N_14
REMARK    4  A    between atoms: N_14  and  C_16
REMARK    5  A    between atoms: C_16  and  C_18
REMARK    6  A    between atoms: C_16  and  C_21
REMARK    7  A    between atoms: C_18  and  O_19
REMARK    8  A    between atoms: C_21  and  C_22
REMARK    9  A    between atoms: C_22  and  C_24
REMARK   10  A    between atoms: C_24  and  O_25
REMARK   11  A    between atoms: O_27  and  C_28
REMARK   12  A    between atoms: C_28  and  C_30
REMARK   13  A    between atoms: C_35  and  C_37
REMARK                            x       y       z     vdW  Elec       q    Type
REMARK                         _______ _______ _______ _____ _____    ______ ____
ROOT
ATOM      1  C   UNL     1      34.654 -23.250 -16.144  0.00  0.00    +0.122 C 
ATOM      2  C   UNL     1      35.413 -21.816 -17.955  0.00  0.00    +0.002 C 
ATOM      3  C   UNL     1      35.678 -22.568 -16.799  0.00  0.00    +0.020 C 
ATOM      4  C   UNL     1      34.089 -21.757 -18.453  0.00  0.00    +0.003 C 
ATOM      5  C   UNL     1      33.353 -23.192 -16.633  0.00  0.00    +0.020 C 
ATOM      6  C   UNL     1      33.070 -22.451 -17.781  0.00  0.00    +0.001 C 
ATOM      7  C   UNL     1      33.823 -21.005 -19.610  0.00  0.00    +0.037 C 
ATOM      8  C   UNL     1      36.431 -21.122 -18.629  0.00  0.00    +0.003 C 
ATOM      9  C   UNL     1      34.848 -20.322 -20.266  0.00  0.00    +0.139 C 
ATOM     10  C   UNL     1      36.149 -20.380 -19.776  0.00  0.00    +0.037 C 
ENDROOT
BRANCH   1  11
ATOM     11  S   UNL     1      35.009 -24.191 -14.689  0.00  0.00    +0.061 S 
ATOM     12  O   UNL     1      34.066 -23.798 -13.661  0.00  0.00    -0.153 OA
ATOM     13  O   UNL     1      35.107 -25.579 -15.098  0.00  0.00    -0.153 OA
BRANCH  11  14
ATOM     14  N   UNL     1      36.559 -23.628 -14.279  0.00  0.00    -0.170 NA
ATOM     15  H   UNL     1      36.438 -22.705 -13.863  0.00  0.00    +0.149 HD
BRANCH  14  16
ATOM     16  C   UNL     1      37.407 -24.407 -13.350  0.00  0.00    +0.174 C 
BRANCH  16  18
ATOM     17  O   UNL     1      39.753 -24.483 -13.985  0.00  0.00    -0.249 OA
ATOM     18  C   UNL     1      38.609 -24.902 -14.116  0.00  0.00    +0.330 C 
BRANCH  18  19
ATOM     19  O   UNL     1      38.291 -25.904 -14.977  0.00  0.00    -0.479 OA
ATOM     20  H   UNL     1      37.505 -25.854 -15.484  0.00  0.00    +0.295 HD
ENDBRANCH  18  19
ENDBRANCH  16  18
BRANCH  16  21
ATOM     21  C   UNL     1      37.741 -23.576 -12.105  0.00  0.00    +0.040 C 
BRANCH  21  22
ATOM     22  C   UNL     1      36.551 -23.067 -11.286  0.00  0.00    +0.111 C 
BRANCH  22  24
ATOM     23  O   UNL     1      36.099 -24.240  -9.223  0.00  0.00    -0.250 OA
ATOM     24  C   UNL     1      35.904 -24.124 -10.427  0.00  0.00    +0.314 C 
BRANCH  24  25
ATOM     25  O   UNL     1      35.091 -24.950 -11.131  0.00  0.00    -0.480 OA
ATOM     26  H   UNL     1      34.670 -24.640 -11.909  0.00  0.00    +0.295 HD
ENDBRANCH  24  25
ENDBRANCH  22  24
ENDBRANCH  21  22
ENDBRANCH  16  21
ENDBRANCH  14  16
ENDBRANCH  11  14
ENDBRANCH   1  11
BRANCH   9  27
ATOM     27  O   UNL     1      34.575 -19.600 -21.386  0.00  0.00    -0.471 OA
BRANCH  27  28
ATOM     28  C   UNL     1      35.656 -18.875 -21.972  0.00  0.00    +0.234 C 
BRANCH  28  30
ATOM     29  F   UNL     1      34.216 -19.157 -24.393  0.00  0.00    -0.204 F 
ATOM     30  C   UNL     1      35.106 -17.708 -22.737  0.00  0.00    +0.049 C 
ATOM     31  C   UNL     1      34.406 -17.915 -23.925  0.00  0.00    +0.140 C 
ATOM     32  C   UNL     1      35.297 -16.412 -22.257  0.00  0.00    +0.002 C 
ATOM     33  C   UNL     1      33.897 -16.827 -24.634  0.00  0.00    +0.040 C 
ATOM     34  C   UNL     1      34.788 -15.323 -22.967  0.00  0.00    +0.010 C 
ATOM     35  C   UNL     1      34.088 -15.531 -24.155  0.00  0.00    +0.071 C 
BRANCH  35  37
ATOM     36  N   UNL     1      33.141 -13.511 -25.469  0.00  0.00    -0.191 NA
ATOM     37  C   UNL     1      33.565 -14.417 -24.880  0.00  0.00    +0.100 C 
ENDBRANCH  35  37
ENDBRANCH  28  30
ENDBRANCH  27  28
ENDBRANCH   9  27
TORSDOF 13
ENDMDL
MODEL 3
REMARK VINA RESULT:     -11.8      3.459      5.309
REMARK  Name = 25058128
REMARK  13 active torsions:
REMARK  status: ('A' for Active; 'I' for Inactive)
REMARK    1  A    between atoms: C_1  and  S_11
REMARK    2  A    between atoms: C_9  and  O_27
REMARK    3  A    between atoms: S_11  and  N_14
REMARK    4  A    between atoms: N_14  and  C_16
REMARK    5  A    between atoms: C_16  and  C_18
REMARK    6  A    between atoms: C_16  and  C_21
REMARK    7  A    between atoms: C_18  and  O_19
REMARK    8  A    between atoms: C_21  and  C_22
REMARK    9  A    between atoms: C_22  and  C_24
REMARK   10  A    between atoms: C_24  and  O_25
REMARK   11  A    between atoms: O_27  and  C_28
REMARK   12  A    between atoms: C_28  and  C_30
REMARK   13  A    between atoms: C_35  and  C_37
REMARK                            x       y       z     vdW  Elec       q    Type
REMARK                         _______ _______ _______ _____ _____    ______ ____
ROOT
ATOM      1  C   UNL     1      34.004 -22.011 -18.378  0.00  0.00    +0.122 C 
ATOM      2  C   UNL     1      35.469 -20.495 -19.591  0.00  0.00    +0.002 C 
ATOM      3  C   UNL     1      35.282 -21.531 -18.661  0.00  0.00    +0.020 C 
ATOM      4  C   UNL     1      34.342 -19.940 -20.243  0.00  0.00    +0.003 C 
ATOM      5  C   UNL     1      32.896 -21.466 -19.019  0.00  0.00    +0.020 C 
ATOM      6  C   UNL     1      33.063 -20.437 -19.947  0.00  0.00    +0.001 C 
ATOM      7  C   UNL     1      34.528 -18.905 -21.174  0.00  0.00    +0.037 C 
ATOM      8  C   UNL     1      36.749 -19.998 -19.888  0.00  0.00    +0.003 C 
ATOM      9  C   UNL     1      35.807 -18.424 -21.457  0.00  0.00    +0.139 C 
ATOM     10  C   UNL     1      36.915 -18.969 -20.815  0.00  0.00    +0.037 C 
ENDROOT
BRANCH   1  11
ATOM     11  S   UNL     1      33.791 -23.316 -17.203  0.00  0.00    +0.061 S 
ATOM     12  O   UNL     1      33.482 -24.529 -17.933  0.00  0.00    -0.153 OA
ATOM     13  O   UNL     1      34.934 -23.271 -16.311  0.00  0.00    -0.153 OA
BRANCH  11  14
ATOM     14  N   UNL     1      32.411 -22.800 -16.355  0.00  0.00    -0.170 NA
ATOM     15  H   UNL     1      31.684 -22.630 -17.050  0.00  0.00    +0.149 HD
BRANCH  14  16
ATOM     16  C   UNL     1      31.814 -23.668 -15.317  0.00  0.00    +0.174 C 
BRANCH  16  18
ATOM     17  O   UNL     1      31.447 -23.066 -12.989  0.00  0.00    -0.249 OA
ATOM     18  C   UNL     1      32.185 -23.106 -13.966  0.00  0.00    +0.330 C 
BRANCH  18  19
ATOM     19  O   UNL     1      33.465 -22.652 -13.934  0.00  0.00    -0.479 OA
ATOM     20  H   UNL     1      33.690 -21.921 -13.393  0.00  0.00    +0.295 HD
ENDBRANCH  18  19
ENDBRANCH  16  18
BRANCH  16  21
ATOM     21  C   UNL     1      30.307 -23.825 -15.550  0.00  0.00    +0.040 C 
BRANCH  21  22
ATOM     22  C   UNL     1      29.577 -22.610 -16.129  0.00  0.00    +0.111 C 
BRANCH  22  24
ATOM     23  O   UNL     1      27.751 -23.999 -16.888  0.00  0.00    -0.250 OA
ATOM     24  C   UNL     1      28.156 -22.894 -16.548  0.00  0.00    +0.314 C 
BRANCH  24  25
ATOM     25  O   UNL     1      27.370 -21.789 -16.525  0.00  0.00    -0.480 OA
ATOM     26  H   UNL     1      27.528 -21.090 -17.130  0.00  0.00    +0.295 HD
ENDBRANCH  24  25
ENDBRANCH  22  24
ENDBRANCH  21  22
ENDBRANCH  16  21
ENDBRANCH  14  16
ENDBRANCH  11  14
ENDBRANCH   1  11
BRANCH   9  27
ATOM     27  O   UNL     1      35.972 -17.421 -22.362  0.00  0.00    -0.471 OA
BRANCH  27  28
ATOM     28  C   UNL     1      34.908 -17.199 -23.287  0.00  0.00    +0.234 C 
BRANCH  28  30
ATOM     29  F   UNL     1      33.583 -15.921 -25.437  0.00  0.00    -0.204 F 
ATOM     30  C   UNL     1      34.542 -15.745 -23.273  0.00  0.00    +0.049 C 
ATOM     31  C   UNL     1      33.890 -15.175 -24.366  0.00  0.00    +0.140 C 
ATOM     32  C   UNL     1      34.855 -14.961 -22.162  0.00  0.00    +0.002 C 
ATOM     33  C   UNL     1      33.551 -13.822 -24.349  0.00  0.00    +0.040 C 
ATOM     34  C   UNL     1      34.517 -13.607 -22.146  0.00  0.00    +0.010 C 
ATOM     35  C   UNL     1      33.865 -13.038 -23.240  0.00  0.00    +0.071 C 
BRANCH  35  37
ATOM     36  N   UNL     1      33.232 -10.527 -23.208  0.00  0.00    -0.191 NA
ATOM     37  C   UNL     1      33.516 -11.652 -23.222  0.00  0.00    +0.100 C 
ENDBRANCH  35  37
ENDBRANCH  28  30
ENDBRANCH  27  28
ENDBRANCH   9  27
TORSDOF 13
ENDMDL
MODEL 4
REMARK VINA RESULT:     -11.8      1.220      1.892
REMARK  Name = 25058128
REMARK  13 active torsions:
REMARK  status: ('A' for Active; 'I' for Inactive)
REMARK    1  A    between atoms: C_1  and  S_11
REMARK    2  A    between atoms: C_9  and  O_27
REMARK    3  A    between atoms: S_11  and  N_14
REMARK    4  A    between atoms: N_14  and  C_16
REMARK    5  A    between atoms: C_16  and  C_18
REMARK    6  A    between atoms: C_16  and  C_21
REMARK    7  A    between atoms: C_18  and  O_19
REMARK    8  A    between atoms: C_21  and  C_22
REMARK    9  A    between atoms: C_22  and  C_24
REMARK   10  A    between atoms: C_24  and  O_25
REMARK   11  A    between atoms: O_27  and  C_28
REMARK   12  A    between atoms: C_28  and  C_30
REMARK   13  A    between atoms: C_35  and  C_37
REMARK                            x       y       z     vdW  Elec       q    Type
REMARK                         _______ _______ _______ _____ _____    ______ ____
ROOT
ATOM      1  C   UNL     1      34.631 -22.940 -16.157  0.00  0.00    +0.122 C 
ATOM      2  C   UNL     1      35.381 -21.619 -18.057  0.00  0.00    +0.002 C 
ATOM      3  C   UNL     1      35.648 -22.284 -16.849  0.00  0.00    +0.020 C 
ATOM      4  C   UNL     1      34.062 -21.621 -18.570  0.00  0.00    +0.003 C 
ATOM      5  C   UNL     1      33.334 -22.943 -16.662  0.00  0.00    +0.020 C 
ATOM      6  C   UNL     1      33.050 -22.288 -17.861  0.00  0.00    +0.001 C 
ATOM      7  C   UNL     1      33.794 -20.957 -19.778  0.00  0.00    +0.037 C 
ATOM      8  C   UNL     1      36.393 -20.952 -18.766  0.00  0.00    +0.003 C 
ATOM      9  C   UNL     1      34.812 -20.300 -20.470  0.00  0.00    +0.139 C 
ATOM     10  C   UNL     1      36.108 -20.297 -19.965  0.00  0.00    +0.037 C 
ENDROOT
BRANCH   1  11
ATOM     11  S   UNL     1      34.989 -23.771 -14.638  0.00  0.00    +0.061 S 
ATOM     12  O   UNL     1      35.362 -22.770 -13.658  0.00  0.00    -0.153 OA
ATOM     13  O   UNL     1      33.881 -24.670 -14.378  0.00  0.00    -0.153 OA
BRANCH  11  14
ATOM     14  N   UNL     1      36.356 -24.690 -15.056  0.00  0.00    -0.170 NA
ATOM     15  H   UNL     1      37.041 -24.040 -15.444  0.00  0.00    +0.149 HD
BRANCH  14  16
ATOM     16  C   UNL     1      37.057 -25.484 -14.024  0.00  0.00    +0.174 C 
BRANCH  16  18
ATOM     17  O   UNL     1      38.413 -27.489 -14.263  0.00  0.00    -0.249 OA
ATOM     18  C   UNL     1      37.482 -26.791 -14.647  0.00  0.00    +0.330 C 
BRANCH  18  19
ATOM     19  O   UNL     1      36.694 -27.138 -15.698  0.00  0.00    -0.479 OA
ATOM     20  H   UNL     1      36.681 -26.606 -16.470  0.00  0.00    +0.295 HD
ENDBRANCH  18  19
ENDBRANCH  16  18
BRANCH  16  21
ATOM     21  C   UNL     1      38.200 -24.670 -13.405  0.00  0.00    +0.040 C 
BRANCH  21  22
ATOM     22  C   UNL     1      38.361 -24.768 -11.886  0.00  0.00    +0.111 C 
BRANCH  22  24
ATOM     23  O   UNL     1      36.976 -23.832 -10.142  0.00  0.00    -0.250 OA
ATOM     24  C   UNL     1      37.682 -23.655 -11.127  0.00  0.00    +0.314 C 
BRANCH  24  25
ATOM     25  O   UNL     1      37.921 -22.432 -11.661  0.00  0.00    -0.480 OA
ATOM     26  H   UNL     1      37.710 -22.264 -12.559  0.00  0.00    +0.295 HD
ENDBRANCH  24  25
ENDBRANCH  22  24
ENDBRANCH  21  22
ENDBRANCH  16  21
ENDBRANCH  14  16
ENDBRANCH  11  14
ENDBRANCH   1  11
BRANCH   9  27
ATOM     27  O   UNL     1      34.537 -19.662 -21.641  0.00  0.00    -0.471 OA
BRANCH  27  28
ATOM     28  C   UNL     1      35.617 -18.985 -22.281  0.00  0.00    +0.234 C 
BRANCH  28  30
ATOM     29  F   UNL     1      35.624 -17.094 -20.175  0.00  0.00    -0.204 F 
ATOM     30  C   UNL     1      35.247 -17.545 -22.475  0.00  0.00    +0.049 C 
ATOM     31  C   UNL     1      35.270 -16.663 -21.394  0.00  0.00    +0.140 C 
ATOM     32  C   UNL     1      34.878 -17.087 -23.740  0.00  0.00    +0.002 C 
ATOM     33  C   UNL     1      34.924 -15.324 -21.579  0.00  0.00    +0.040 C 
ATOM     34  C   UNL     1      34.532 -15.748 -23.924  0.00  0.00    +0.010 C 
ATOM     35  C   UNL     1      34.555 -14.866 -22.843  0.00  0.00    +0.071 C 
BRANCH  35  37
ATOM     36  N   UNL     1      33.917 -12.381 -23.186  0.00  0.00    -0.191 NA
ATOM     37  C   UNL     1      34.203 -13.494 -23.032  0.00  0.00    +0.100 C 
ENDBRANCH  35  37
ENDBRANCH  28  30
ENDBRANCH  27  28
ENDBRANCH   9  27
TORSDOF 13
ENDMDL
MODEL 5
REMARK VINA RESULT:     -11.7      1.894      2.716
REMARK  Name = 25058128
REMARK  13 active torsions:
REMARK  status: ('A' for Active; 'I' for Inactive)
REMARK    1  A    between atoms: C_1  and  S_11
REMARK    2  A    between atoms: C_9  and  O_27
REMARK    3  A    between atoms: S_11  and  N_14
REMARK    4  A    between atoms: N_14  and  C_16
REMARK    5  A    between atoms: C_16  and  C_18
REMARK    6  A    between atoms: C_16  and  C_21
REMARK    7  A    between atoms: C_18  and  O_19
REMARK    8  A    between atoms: C_21  and  C_22
REMARK    9  A    between atoms: C_22  and  C_24
REMARK   10  A    between atoms: C_24  and  O_25
REMARK   11  A    between atoms: O_27  and  C_28
REMARK   12  A    between atoms: C_28  and  C_30
REMARK   13  A    between atoms: C_35  and  C_37
REMARK                            x       y       z     vdW  Elec       q    Type
REMARK                         _______ _______ _______ _____ _____    ______ ____
ROOT
ATOM      1  C   UNL     1      35.184 -22.442 -16.765  0.00  0.00    +0.122 C 
ATOM      2  C   UNL     1      34.186 -21.347 -18.694  0.00  0.00    +0.002 C 
ATOM      3  C   UNL     1      34.059 -22.091 -17.509  0.00  0.00    +0.020 C 
ATOM      4  C   UNL     1      35.475 -20.955 -19.128  0.00  0.00    +0.003 C 
ATOM      5  C   UNL     1      36.451 -22.055 -17.191  0.00  0.00    +0.020 C 
ATOM      6  C   UNL     1      36.597 -21.316 -18.366  0.00  0.00    +0.001 C 
ATOM      7  C   UNL     1      35.603 -20.211 -20.313  0.00  0.00    +0.037 C 
ATOM      8  C   UNL     1      33.064 -20.985 -19.457  0.00  0.00    +0.003 C 
ATOM      9  C   UNL     1      34.477 -19.860 -21.058  0.00  0.00    +0.139 C 
ATOM     10  C   UNL     1      33.210 -20.246 -20.632  0.00  0.00    +0.037 C 
ENDROOT
BRANCH   1  11
ATOM     11  S   UNL     1      35.001 -23.378 -15.275  0.00  0.00    +0.061 S 
ATOM     12  O   UNL     1      35.403 -22.537 -14.166  0.00  0.00    -0.153 OA
ATOM     13  O   UNL     1      33.674 -23.963 -15.305  0.00  0.00    -0.153 OA
BRANCH  11  14
ATOM     14  N   UNL     1      36.150 -24.611 -15.495  0.00  0.00    -0.170 NA
ATOM     15  H   UNL     1      36.862 -24.242 -16.126  0.00  0.00    +0.149 HD
BRANCH  14  16
ATOM     16  C   UNL     1      36.864 -25.172 -14.327  0.00  0.00    +0.174 C 
BRANCH  16  18
ATOM     17  O   UNL     1      36.864 -27.311 -15.485  0.00  0.00    -0.249 OA
ATOM     18  C   UNL     1      36.831 -26.677 -14.437  0.00  0.00    +0.330 C 
BRANCH  18  19
ATOM     19  O   UNL     1      36.779 -27.279 -13.221  0.00  0.00    -0.479 OA
ATOM     20  H   UNL     1      36.490 -28.168 -13.149  0.00  0.00    +0.295 HD
ENDBRANCH  18  19
ENDBRANCH  16  18
BRANCH  16  21
ATOM     21  C   UNL     1      38.271 -24.571 -14.218  0.00  0.00    +0.040 C 
BRANCH  21  22
ATOM     22  C   UNL     1      39.275 -25.340 -13.355  0.00  0.00    +0.111 C 
BRANCH  22  24
ATOM     23  O   UNL     1      41.289 -26.644 -13.637  0.00  0.00    -0.250 OA
ATOM     24  C   UNL     1      40.387 -25.986 -14.142  0.00  0.00    +0.314 C 
BRANCH  24  25
ATOM     25  O   UNL     1      40.297 -25.750 -15.474  0.00  0.00    -0.480 OA
ATOM     26  H   UNL     1      39.595 -25.226 -15.810  0.00  0.00    +0.295 HD
ENDBRANCH  24  25
ENDBRANCH  22  24
ENDBRANCH  21  22
ENDBRANCH  16  21
ENDBRANCH  14  16
ENDBRANCH  11  14
ENDBRANCH   1  11
BRANCH   9  27
ATOM     27  O   UNL     1      34.617 -19.138 -22.204  0.00  0.00    -0.471 OA
BRANCH  27  28
ATOM     28  C   UNL     1      35.531 -18.043 -22.173  0.00  0.00    +0.234 C 
BRANCH  28  30
ATOM     29  F   UNL     1      35.295 -15.422 -21.130  0.00  0.00    -0.204 F 
ATOM     30  C   UNL     1      34.953 -16.901 -22.956  0.00  0.00    +0.049 C 
ATOM     31  C   UNL     1      34.864 -15.632 -22.382  0.00  0.00    +0.140 C 
ATOM     32  C   UNL     1      34.504 -17.109 -24.260  0.00  0.00    +0.002 C 
ATOM     33  C   UNL     1      34.326 -14.573 -23.113  0.00  0.00    +0.040 C 
ATOM     34  C   UNL     1      33.965 -16.050 -24.990  0.00  0.00    +0.010 C 
ATOM     35  C   UNL     1      33.876 -14.781 -24.416  0.00  0.00    +0.071 C 
BRANCH  35  37
ATOM     36  N   UNL     1      32.879 -12.814 -25.773  0.00  0.00    -0.191 NA
ATOM     37  C   UNL     1      33.326 -13.695 -25.165  0.00  0.00    +0.100 C 
ENDBRANCH  35  37
ENDBRANCH  28  30
ENDBRANCH  27  28
ENDBRANCH   9  27
TORSDOF 13
ENDMDL
MODEL 6
REMARK VINA RESULT:     -11.6      0.979      2.797
REMARK  Name = 25058128
REMARK  13 active torsions:
REMARK  status: ('A' for Active; 'I' for Inactive)
REMARK    1  A    between atoms: C_1  and  S_11
REMARK    2  A    between atoms: C_9  and  O_27
REMARK    3  A    between atoms: S_11  and  N_14
REMARK    4  A    between atoms: N_14  and  C_16
REMARK    5  A    between atoms: C_16  and  C_18
REMARK    6  A    between atoms: C_16  and  C_21
REMARK    7  A    between atoms: C_18  and  O_19
REMARK    8  A    between atoms: C_21  and  C_22
REMARK    9  A    between atoms: C_22  and  C_24
REMARK   10  A    between atoms: C_24  and  O_25
REMARK   11  A    between atoms: O_27  and  C_28
REMARK   12  A    between atoms: C_28  and  C_30
REMARK   13  A    between atoms: C_35  and  C_37
REMARK                            x       y       z     vdW  Elec       q    Type
REMARK                         _______ _______ _______ _____ _____    ______ ____
ROOT
ATOM      1  C   UNL     1      34.703 -23.289 -16.017  0.00  0.00    +0.122 C 
ATOM      2  C   UNL     1      35.394 -21.871 -17.869  0.00  0.00    +0.002 C 
ATOM      3  C   UNL     1      35.703 -22.621 -16.722  0.00  0.00    +0.020 C 
ATOM      4  C   UNL     1      34.050 -21.800 -18.306  0.00  0.00    +0.003 C 
ATOM      5  C   UNL     1      33.381 -23.219 -16.448  0.00  0.00    +0.020 C 
ATOM      6  C   UNL     1      33.055 -22.480 -17.585  0.00  0.00    +0.001 C 
ATOM      7  C   UNL     1      33.740 -21.051 -19.453  0.00  0.00    +0.037 C 
ATOM      8  C   UNL     1      36.389 -21.191 -18.590  0.00  0.00    +0.003 C 
ATOM      9  C   UNL     1      34.742 -20.382 -20.158  0.00  0.00    +0.139 C 
ATOM     10  C   UNL     1      36.063 -20.451 -19.728  0.00  0.00    +0.037 C 
ENDROOT
BRANCH   1  11
ATOM     11  S   UNL     1      35.113 -24.228 -14.576  0.00  0.00    +0.061 S 
ATOM     12  O   UNL     1      33.903 -24.406 -13.798  0.00  0.00    -0.153 OA
ATOM     13  O   UNL     1      35.870 -25.381 -15.025  0.00  0.00    -0.153 OA
BRANCH  11  14
ATOM     14  N   UNL     1      36.160 -23.169 -13.757  0.00  0.00    -0.170 NA
ATOM     15  H   UNL     1      35.593 -22.657 -13.080  0.00  0.00    +0.149 HD
BRANCH  14  16
ATOM     16  C   UNL     1      37.325 -23.705 -13.018  0.00  0.00    +0.174 C 
BRANCH  16  18
ATOM     17  O   UNL     1      37.138 -24.003 -10.612  0.00  0.00    -0.249 OA
ATOM     18  C   UNL     1      36.820 -24.340 -11.746  0.00  0.00    +0.330 C 
BRANCH  18  19
ATOM     19  O   UNL     1      35.936 -25.343 -11.989  0.00  0.00    -0.479 OA
ATOM     20  H   UNL     1      35.480 -25.377 -12.806  0.00  0.00    +0.295 HD
ENDBRANCH  18  19
ENDBRANCH  16  18
BRANCH  16  21
ATOM     21  C   UNL     1      38.145 -24.639 -13.916  0.00  0.00    +0.040 C 
BRANCH  21  22
ATOM     22  C   UNL     1      39.184 -25.519 -13.216  0.00  0.00    +0.111 C 
BRANCH  22  24
ATOM     23  O   UNL     1      41.256 -26.646 -13.736  0.00  0.00    -0.250 OA
ATOM     24  C   UNL     1      40.301 -25.980 -14.117  0.00  0.00    +0.314 C 
BRANCH  24  25
ATOM     25  O   UNL     1      40.149 -25.565 -15.399  0.00  0.00    -0.480 OA
ATOM     26  H   UNL     1      40.164 -26.190 -16.098  0.00  0.00    +0.295 HD
ENDBRANCH  24  25
ENDBRANCH  22  24
ENDBRANCH  21  22
ENDBRANCH  16  21
ENDBRANCH  14  16
ENDBRANCH  11  14
ENDBRANCH   1  11
BRANCH   9  27
ATOM     27  O   UNL     1      34.426 -19.661 -21.269  0.00  0.00    -0.471 OA
BRANCH  27  28
ATOM     28  C   UNL     1      35.507 -19.078 -21.995  0.00  0.00    +0.234 C 
BRANCH  28  30
ATOM     29  F   UNL     1      35.606 -17.093 -19.979  0.00  0.00    -0.204 F 
ATOM     30  C   UNL     1      35.201 -17.633 -22.255  0.00  0.00    +0.049 C 
ATOM     31  C   UNL     1      35.267 -16.704 -21.217  0.00  0.00    +0.140 C 
ATOM     32  C   UNL     1      34.848 -17.219 -23.540  0.00  0.00    +0.002 C 
ATOM     33  C   UNL     1      34.980 -15.361 -21.463  0.00  0.00    +0.040 C 
ATOM     34  C   UNL     1      34.561 -15.876 -23.785  0.00  0.00    +0.010 C 
ATOM     35  C   UNL     1      34.627 -14.947 -22.747  0.00  0.00    +0.071 C 
BRANCH  35  37
ATOM     36  N   UNL     1      34.100 -12.453 -23.203  0.00  0.00    -0.191 NA
ATOM     37  C   UNL     1      34.336 -13.571 -22.999  0.00  0.00    +0.100 C 
ENDBRANCH  35  37
ENDBRANCH  28  30
ENDBRANCH  27  28
ENDBRANCH   9  27
TORSDOF 13
ENDMDL
MODEL 7
REMARK VINA RESULT:     -11.4      1.453      3.028
REMARK  Name = 25058128
REMARK  13 active torsions:
REMARK  status: ('A' for Active; 'I' for Inactive)
REMARK    1  A    between atoms: C_1  and  S_11
REMARK    2  A    between atoms: C_9  and  O_27
REMARK    3  A    between atoms: S_11  and  N_14
REMARK    4  A    between atoms: N_14  and  C_16
REMARK    5  A    between atoms: C_16  and  C_18
REMARK    6  A    between atoms: C_16  and  C_21
REMARK    7  A    between atoms: C_18  and  O_19
REMARK    8  A    between atoms: C_21  and  C_22
REMARK    9  A    between atoms: C_22  and  C_24
REMARK   10  A    between atoms: C_24  and  O_25
REMARK   11  A    between atoms: O_27  and  C_28
REMARK   12  A    between atoms: C_28  and  C_30
REMARK   13  A    between atoms: C_35  and  C_37
REMARK                            x       y       z     vdW  Elec       q    Type
REMARK                         _______ _______ _______ _____ _____    ______ ____
ROOT
ATOM      1  C   UNL     1      35.806 -23.159 -15.660  0.00  0.00    +0.122 C 
ATOM      2  C   UNL     1      34.496 -22.285 -17.514  0.00  0.00    +0.002 C 
ATOM      3  C   UNL     1      34.599 -23.069 -16.353  0.00  0.00    +0.020 C 
ATOM      4  C   UNL     1      35.634 -21.581 -17.977  0.00  0.00    +0.003 C 
ATOM      5  C   UNL     1      36.924 -22.467 -16.115  0.00  0.00    +0.020 C 
ATOM      6  C   UNL     1      36.841 -21.683 -17.266  0.00  0.00    +0.001 C 
ATOM      7  C   UNL     1      35.532 -20.796 -19.137  0.00  0.00    +0.037 C 
ATOM      8  C   UNL     1      33.290 -22.183 -18.226  0.00  0.00    +0.003 C 
ATOM      9  C   UNL     1      34.324 -20.707 -19.831  0.00  0.00    +0.139 C 
ATOM     10  C   UNL     1      33.206 -21.399 -19.377  0.00  0.00    +0.037 C 
ENDROOT
BRANCH   1  11
ATOM     11  S   UNL     1      35.914 -24.152 -14.201  0.00  0.00    +0.061 S 
ATOM     12  O   UNL     1      34.652 -24.050 -13.496  0.00  0.00    -0.153 OA
ATOM     13  O   UNL     1      36.420 -25.448 -14.610  0.00  0.00    -0.153 OA
BRANCH  11  14
ATOM     14  N   UNL     1      37.121 -23.344 -13.318  0.00  0.00    -0.170 NA
ATOM     15  H   UNL     1      36.678 -22.535 -12.883  0.00  0.00    +0.149 HD
BRANCH  14  16
ATOM     16  C   UNL     1      37.856 -24.056 -12.249  0.00  0.00    +0.174 C 
BRANCH  16  18
ATOM     17  O   UNL     1      36.224 -25.078 -10.765  0.00  0.00    -0.249 OA
ATOM     18  C   UNL     1      36.958 -24.137 -11.039  0.00  0.00    +0.330 C 
BRANCH  18  19
ATOM     19  O   UNL     1      37.063 -23.038 -10.248  0.00  0.00    -0.479 OA
ATOM     20  H   UNL     1      37.184 -22.192 -10.633  0.00  0.00    +0.295 HD
ENDBRANCH  18  19
ENDBRANCH  16  18
BRANCH  16  21
ATOM     21  C   UNL     1      38.366 -25.410 -12.758  0.00  0.00    +0.040 C 
BRANCH  21  22
ATOM     22  C   UNL     1      39.826 -25.459 -13.216  0.00  0.00    +0.111 C 
BRANCH  22  24
ATOM     23  O   UNL     1      40.660 -26.074 -15.398  0.00  0.00    -0.250 OA
ATOM     24  C   UNL     1      40.004 -25.306 -14.705  0.00  0.00    +0.314 C 
BRANCH  24  25
ATOM     25  O   UNL     1      39.373 -24.213 -15.202  0.00  0.00    -0.480 OA
ATOM     26  H   UNL     1      38.544 -23.952 -14.851  0.00  0.00    +0.295 HD
ENDBRANCH  24  25
ENDBRANCH  22  24
ENDBRANCH  21  22
ENDBRANCH  16  21
ENDBRANCH  14  16
ENDBRANCH  11  14
ENDBRANCH   1  11
BRANCH   9  27
ATOM     27  O   UNL     1      34.240 -19.941 -20.953  0.00  0.00    -0.471 OA
BRANCH  27  28
ATOM     28  C   UNL     1      35.423 -19.258 -21.364  0.00  0.00    +0.234 C 
BRANCH  28  30
ATOM     29  F   UNL     1      34.400 -19.758 -23.955  0.00  0.00    -0.204 F 
ATOM     30  C   UNL     1      35.051 -18.165 -22.321  0.00  0.00    +0.049 C 
ATOM     31  C   UNL     1      34.553 -18.479 -23.585  0.00  0.00    +0.140 C 
ATOM     32  C   UNL     1      35.205 -16.830 -21.944  0.00  0.00    +0.002 C 
ATOM     33  C   UNL     1      34.208 -17.459 -24.472  0.00  0.00    +0.040 C 
ATOM     34  C   UNL     1      34.861 -15.810 -22.832  0.00  0.00    +0.010 C 
ATOM     35  C   UNL     1      34.362 -16.125 -24.096  0.00  0.00    +0.071 C 
BRANCH  35  37
ATOM     36  N   UNL     1      33.719 -14.233 -25.743  0.00  0.00    -0.191 NA
ATOM     37  C   UNL     1      34.007 -15.081 -25.004  0.00  0.00    +0.100 C 
ENDBRANCH  35  37
ENDBRANCH  28  30
ENDBRANCH  27  28
ENDBRANCH   9  27
TORSDOF 13
ENDMDL
MODEL 8
REMARK VINA RESULT:     -10.9      3.519     11.241
REMARK  Name = 25058128
REMARK  13 active torsions:
REMARK  status: ('A' for Active; 'I' for Inactive)
REMARK    1  A    between atoms: C_1  and  S_11
REMARK    2  A    between atoms: C_9  and  O_27
REMARK    3  A    between atoms: S_11  and  N_14
REMARK    4  A    between atoms: N_14  and  C_16
REMARK    5  A    between atoms: C_16  and  C_18
REMARK    6  A    between atoms: C_16  and  C_21
REMARK    7  A    between atoms: C_18  and  O_19
REMARK    8  A    between atoms: C_21  and  C_22
REMARK    9  A    between atoms: C_22  and  C_24
REMARK   10  A    between atoms: C_24  and  O_25
REMARK   11  A    between atoms: O_27  and  C_28
REMARK   12  A    between atoms: C_28  and  C_30
REMARK   13  A    between atoms: C_35  and  C_37
REMARK                            x       y       z     vdW  Elec       q    Type
REMARK                         _______ _______ _______ _____ _____    ______ ____
ROOT
ATOM      1  C   UNL     1      35.377 -19.531 -20.896  0.00  0.00    +0.122 C 
ATOM      2  C   UNL     1      34.206 -21.019 -19.369  0.00  0.00    +0.002 C 
ATOM      3  C   UNL     1      34.196 -20.122 -20.450  0.00  0.00    +0.020 C 
ATOM      4  C   UNL     1      35.434 -21.320 -18.732  0.00  0.00    +0.003 C 
ATOM      5  C   UNL     1      36.584 -19.828 -20.270  0.00  0.00    +0.020 C 
ATOM      6  C   UNL     1      36.614 -20.716 -19.195  0.00  0.00    +0.001 C 
ATOM      7  C   UNL     1      35.445 -22.217 -17.651  0.00  0.00    +0.037 C 
ATOM      8  C   UNL     1      33.026 -21.623 -18.906  0.00  0.00    +0.003 C 
ATOM      9  C   UNL     1      34.262 -22.808 -17.205  0.00  0.00    +0.139 C 
ATOM     10  C   UNL     1      33.056 -22.512 -17.830  0.00  0.00    +0.037 C 
ENDROOT
BRANCH   1  11
ATOM     11  S   UNL     1      35.342 -18.405 -22.259  0.00  0.00    +0.061 S 
ATOM     12  O   UNL     1      36.501 -18.670 -23.088  0.00  0.00    -0.153 OA
ATOM     13  O   UNL     1      34.009 -18.470 -22.825  0.00  0.00    -0.153 OA
BRANCH  11  14
ATOM     14  N   UNL     1      35.536 -16.908 -21.479  0.00  0.00    -0.170 NA
ATOM     15  H   UNL     1      36.466 -16.565 -21.723  0.00  0.00    +0.149 HD
BRANCH  14  16
ATOM     16  C   UNL     1      34.589 -15.804 -21.752  0.00  0.00    +0.174 C 
BRANCH  16  18
ATOM     17  O   UNL     1      34.152 -13.754 -20.518  0.00  0.00    -0.249 OA
ATOM     18  C   UNL     1      34.541 -14.916 -20.533  0.00  0.00    +0.330 C 
BRANCH  18  19
ATOM     19  O   UNL     1      34.967 -15.558 -19.414  0.00  0.00    -0.479 OA
ATOM     20  H   UNL     1      35.568 -16.273 -19.484  0.00  0.00    +0.295 HD
ENDBRANCH  18  19
ENDBRANCH  16  18
BRANCH  16  21
ATOM     21  C   UNL     1      34.966 -15.083 -23.052  0.00  0.00    +0.040 C 
BRANCH  21  22
ATOM     22  C   UNL     1      33.810 -14.707 -23.983  0.00  0.00    +0.111 C 
BRANCH  22  24
ATOM     23  O   UNL     1      34.162 -14.955 -26.360  0.00  0.00    -0.250 OA
ATOM     24  C   UNL     1      33.816 -15.451 -25.295  0.00  0.00    +0.314 C 
BRANCH  24  25
ATOM     25  O   UNL     1      33.380 -16.730 -25.177  0.00  0.00    -0.480 OA
ATOM     26  H   UNL     1      33.999 -17.429 -25.092  0.00  0.00    +0.295 HD
ENDBRANCH  24  25
ENDBRANCH  22  24
ENDBRANCH  21  22
ENDBRANCH  16  21
ENDBRANCH  14  16
ENDBRANCH  11  14
ENDBRANCH   1  11
BRANCH   9  27
ATOM     27  O   UNL     1      34.290 -23.676 -16.157  0.00  0.00    -0.471 OA
BRANCH  27  28
ATOM     28  C   UNL     1      34.859 -23.205 -14.937  0.00  0.00    +0.234 C 
BRANCH  28  30
ATOM     29  F   UNL     1      37.359 -21.891 -15.127  0.00  0.00    -0.204 F 
ATOM     30  C   UNL     1      36.168 -23.900 -14.706  0.00  0.00    +0.049 C 
ATOM     31  C   UNL     1      37.366 -23.194 -14.816  0.00  0.00    +0.140 C 
ATOM     32  C   UNL     1      36.185 -25.257 -14.380  0.00  0.00    +0.002 C 
ATOM     33  C   UNL     1      38.581 -23.845 -14.601  0.00  0.00    +0.040 C 
ATOM     34  C   UNL     1      37.401 -25.907 -14.165  0.00  0.00    +0.010 C 
ATOM     35  C   UNL     1      38.599 -25.201 -14.276  0.00  0.00    +0.071 C 
BRANCH  35  37
ATOM     36  N   UNL     1      40.854 -26.407 -13.872  0.00  0.00    -0.191 NA
ATOM     37  C   UNL     1      39.843 -25.867 -14.053  0.00  0.00    +0.100 C 
ENDBRANCH  35  37
ENDBRANCH  28  30
ENDBRANCH  27  28
ENDBRANCH   9  27
TORSDOF 13
ENDMDL
MODEL 9
REMARK VINA RESULT:     -10.9      1.807      3.024
REMARK  Name = 25058128
REMARK  13 active torsions:
REMARK  status: ('A' for Active; 'I' for Inactive)
REMARK    1  A    between atoms: C_1  and  S_11
REMARK    2  A    between atoms: C_9  and  O_27
REMARK    3  A    between atoms: S_11  and  N_14
REMARK    4  A    between atoms: N_14  and  C_16
REMARK    5  A    between atoms: C_16  and  C_18
REMARK    6  A    between atoms: C_16  and  C_21
REMARK    7  A    between atoms: C_18  and  O_19
REMARK    8  A    between atoms: C_21  and  C_22
REMARK    9  A    between atoms: C_22  and  C_24
REMARK   10  A    between atoms: C_24  and  O_25
REMARK   11  A    between atoms: O_27  and  C_28
REMARK   12  A    between atoms: C_28  and  C_30
REMARK   13  A    between atoms: C_35  and  C_37
REMARK                            x       y       z     vdW  Elec       q    Type
REMARK                         _______ _______ _______ _____ _____    ______ ____
ROOT
ATOM      1  C   UNL     1      35.584 -23.142 -14.197  0.00  0.00    +0.122 C 
ATOM      2  C   UNL     1      34.718 -22.662 -16.419  0.00  0.00    +0.002 C 
ATOM      3  C   UNL     1      34.559 -23.221 -15.140  0.00  0.00    +0.020 C 
ATOM      4  C   UNL     1      35.934 -22.013 -16.744  0.00  0.00    +0.003 C 
ATOM      5  C   UNL     1      36.778 -22.505 -14.517  0.00  0.00    +0.020 C 
ATOM      6  C   UNL     1      36.954 -21.943 -15.782  0.00  0.00    +0.001 C 
ATOM      7  C   UNL     1      36.093 -21.454 -18.023  0.00  0.00    +0.037 C 
ATOM      8  C   UNL     1      33.698 -22.732 -17.382  0.00  0.00    +0.003 C 
ATOM      9  C   UNL     1      35.068 -21.532 -18.967  0.00  0.00    +0.139 C 
ATOM     10  C   UNL     1      33.873 -22.170 -18.647  0.00  0.00    +0.037 C 
ENDROOT
BRANCH   1  11
ATOM     11  S   UNL     1      35.363 -23.853 -12.593  0.00  0.00    +0.061 S 
ATOM     12  O   UNL     1      36.410 -23.342 -11.730  0.00  0.00    -0.153 OA
ATOM     13  O   UNL     1      33.969 -23.669 -12.238  0.00  0.00    -0.153 OA
BRANCH  11  14
ATOM     14  N   UNL     1      35.639 -25.501 -12.901  0.00  0.00    -0.170 NA
ATOM     15  H   UNL     1      35.171 -25.720 -13.781  0.00  0.00    +0.149 HD
BRANCH  14  16
ATOM     16  C   UNL     1      37.024 -26.010 -13.016  0.00  0.00    +0.174 C 
BRANCH  16  18
ATOM     17  O   UNL     1      37.927 -27.746 -14.459  0.00  0.00    -0.249 OA
ATOM     18  C   UNL     1      37.109 -26.856 -14.263  0.00  0.00    +0.330 C 
BRANCH  18  19
ATOM     19  O   UNL     1      36.147 -26.536 -15.166  0.00  0.00    -0.479 OA
ATOM     20  H   UNL     1      35.911 -27.146 -15.837  0.00  0.00    +0.295 HD
ENDBRANCH  18  19
ENDBRANCH  16  18
BRANCH  16  21
ATOM     21  C   UNL     1      38.027 -24.852 -12.960  0.00  0.00    +0.040 C 
BRANCH  21  22
ATOM     22  C   UNL     1      39.510 -25.233 -12.990  0.00  0.00    +0.111 C 
BRANCH  22  24
ATOM     23  O   UNL     1      40.916 -26.128 -14.738  0.00  0.00    -0.250 OA
ATOM     24  C   UNL     1      40.097 -25.291 -14.377  0.00  0.00    +0.314 C 
BRANCH  24  25
ATOM     25  O   UNL     1      39.638 -24.304 -15.186  0.00  0.00    -0.480 OA
ATOM     26  H   UNL     1      39.968 -23.432 -15.094  0.00  0.00    +0.295 HD
ENDBRANCH  24  25
ENDBRANCH  22  24
ENDBRANCH  21  22
ENDBRANCH  16  21
ENDBRANCH  14  16
ENDBRANCH  11  14
ENDBRANCH   1  11
BRANCH   9  27
ATOM     27  O   UNL     1      35.237 -20.984 -20.201  0.00  0.00    -0.471 OA
BRANCH  27  28
ATOM     28  C   UNL     1      35.962 -19.758 -20.273  0.00  0.00    +0.234 C 
BRANCH  28  30
ATOM     29  F   UNL     1      35.801 -16.931 -20.255  0.00  0.00    -0.204 F 
ATOM     30  C   UNL     1      35.460 -18.960 -21.440  0.00  0.00    +0.049 C 
ATOM     31  C   UNL     1      35.405 -17.568 -21.366  0.00  0.00    +0.140 C 
ATOM     32  C   UNL     1      35.047 -19.613 -22.602  0.00  0.00    +0.002 C 
ATOM     33  C   UNL     1      34.937 -16.830 -22.453  0.00  0.00    +0.040 C 
ATOM     34  C   UNL     1      34.579 -18.874 -23.689  0.00  0.00    +0.010 C 
ATOM     35  C   UNL     1      34.524 -17.482 -23.614  0.00  0.00    +0.071 C 
BRANCH  35  37
ATOM     36  N   UNL     1      33.658 -16.110 -25.632  0.00  0.00    -0.191 NA
ATOM     37  C   UNL     1      34.046 -16.725 -24.728  0.00  0.00    +0.100 C 
ENDBRANCH  35  37
ENDBRANCH  28  30
ENDBRANCH  27  28
ENDBRANCH   9  27
TORSDOF 13
ENDMDL
