MODEL 1
REMARK VINA RESULT:     -12.3      0.000      0.000
REMARK  Name = 11610553
REMARK  5 active torsions:
REMARK  status: ('A' for Active; 'I' for Inactive)
REMARK    1  A    between atoms: C_1  and  C_9
REMARK    2  A    between atoms: C_4  and  O_19
REMARK    3  A    between atoms: C_10  and  C_14
REMARK    4  A    between atoms: O_19  and  C_20
REMARK    5  A    between atoms: C_20  and  C_22
REMARK                            x       y       z     vdW  Elec       q    Type
REMARK                         _______ _______ _______ _____ _____    ______ ____
ROOT
ATOM      1  C   UNL     1      34.015 -22.741 -16.734  0.00  0.00    +0.015 C 
ATOM      2  C   UNL     1      33.237 -22.458 -17.857  0.00  0.00    +0.004 C 
ATOM      3  C   UNL     1      35.373 -22.422 -16.727  0.00  0.00    +0.004 C 
ATOM      4  C   UNL     1      35.173 -21.541 -18.959  0.00  0.00    +0.139 C 
ATOM      5  C   UNL     1      33.819 -21.856 -18.973  0.00  0.00    +0.037 C 
ATOM      6  C   UNL     1      35.954 -21.820 -17.843  0.00  0.00    +0.037 C 
ENDROOT
BRANCH   1   9
ATOM      7  N   UNL     1      32.061 -23.461 -15.429  0.00  0.00    -0.236 N 
ATOM      8  N   UNL     1      31.684 -24.072 -14.293  0.00  0.00    -0.180 NA
ATOM      9  C   UNL     1      33.414 -23.364 -15.580  0.00  0.00    +0.067 C 
ATOM     10  C   UNL     1      33.959 -23.952 -14.464  0.00  0.00    +0.036 C 
ATOM     11  C   UNL     1      32.848 -24.370 -13.708  0.00  0.00    +0.119 C 
ATOM     12  H   UNL     1      31.421 -23.117 -16.092  0.00  0.00    +0.174 HD
BRANCH  10  14
ATOM     13  N   UNL     1      38.102 -24.314 -13.687  0.00  0.00    -0.242 NA
ATOM     14  C   UNL     1      35.361 -24.075 -14.200  0.00  0.00    +0.006 C 
ATOM     15  C   UNL     1      36.062 -25.195 -14.639  0.00  0.00    +0.021 C 
ATOM     16  C   UNL     1      36.035 -23.074 -13.505  0.00  0.00    +0.021 C 
ATOM     17  C   UNL     1      37.417 -25.267 -14.359  0.00  0.00    +0.099 C 
ATOM     18  C   UNL     1      37.392 -23.241 -13.276  0.00  0.00    +0.099 C 
ENDBRANCH  10  14
ENDBRANCH   1   9
BRANCH   4  19
ATOM     19  O   UNL     1      35.743 -20.950 -20.056  0.00  0.00    -0.468 OA
BRANCH  19  20
ATOM     20  C   UNL     1      36.532 -19.791 -19.821  0.00  0.00    +0.264 C 
BRANCH  20  22
ATOM     21  N   UNL     1      35.687 -17.537 -20.071  0.00  0.00    -0.406 NA
ATOM     22  C   UNL     1      36.054 -18.680 -20.695  0.00  0.00    +0.152 C 
ATOM     23  C   UNL     1      35.164 -16.607 -22.232  0.00  0.00    +0.026 C 
ATOM     24  C   UNL     1      35.248 -16.513 -20.827  0.00  0.00    +0.113 C 
ATOM     25  C   UNL     1      36.006 -18.866 -22.061  0.00  0.00    +0.031 C 
ATOM     26  C   UNL     1      35.553 -17.809 -22.837  0.00  0.00    +0.005 C 
ATOM     27  C   UNL     1      34.701 -15.518 -22.990  0.00  0.00    +0.002 C 
ATOM     28  C   UNL     1      34.861 -15.318 -20.227  0.00  0.00    +0.085 C 
ATOM     29  C   UNL     1      34.320 -14.334 -22.363  0.00  0.00    -0.004 C 
ATOM     30  C   UNL     1      34.400 -14.235 -20.980  0.00  0.00    -0.019 C 
ENDBRANCH  20  22
ENDBRANCH  19  20
ENDBRANCH   4  19
TORSDOF 5
ENDMDL
MODEL 2
REMARK VINA RESULT:     -12.3      1.825      2.672
REMARK  Name = 11610553
REMARK  5 active torsions:
REMARK  status: ('A' for Active; 'I' for Inactive)
REMARK    1  A    between atoms: C_1  and  C_9
REMARK    2  A    between atoms: C_4  and  O_19
REMARK    3  A    between atoms: C_10  and  C_14
REMARK    4  A    between atoms: O_19  and  C_20
REMARK    5  A    between atoms: C_20  and  C_22
REMARK                            x       y       z     vdW  Elec       q    Type
REMARK                         _______ _______ _______ _____ _____    ______ ____
ROOT
ATOM      1  C   UNL     1      35.472 -22.896 -15.187  0.00  0.00    +0.015 C 
ATOM      2  C   UNL     1      36.699 -22.253 -15.353  0.00  0.00    +0.004 C 
ATOM      3  C   UNL     1      34.571 -22.964 -16.249  0.00  0.00    +0.004 C 
ATOM      4  C   UNL     1      36.120 -21.749 -17.636  0.00  0.00    +0.139 C 
ATOM      5  C   UNL     1      37.023 -21.677 -16.582  0.00  0.00    +0.037 C 
ATOM      6  C   UNL     1      34.895 -22.389 -17.477  0.00  0.00    +0.037 C 
ENDROOT
BRANCH   1   9
ATOM      7  N   UNL     1      34.022 -23.128 -13.217  0.00  0.00    -0.236 N 
ATOM      8  N   UNL     1      33.872 -23.788 -12.056  0.00  0.00    -0.180 NA
ATOM      9  C   UNL     1      35.137 -23.490 -13.916  0.00  0.00    +0.067 C 
ATOM     10  C   UNL     1      35.758 -24.454 -13.159  0.00  0.00    +0.036 C 
ATOM     11  C   UNL     1      34.935 -24.596 -12.026  0.00  0.00    +0.119 C 
ATOM     12  H   UNL     1      33.387 -22.447 -13.534  0.00  0.00    +0.174 HD
BRANCH  10  14
ATOM     13  N   UNL     1      39.353 -26.424 -14.207  0.00  0.00    -0.242 NA
ATOM     14  C   UNL     1      36.974 -25.121 -13.513  0.00  0.00    +0.006 C 
ATOM     15  C   UNL     1      36.943 -26.256 -14.319  0.00  0.00    +0.021 C 
ATOM     16  C   UNL     1      38.198 -24.639 -13.056  0.00  0.00    +0.021 C 
ATOM     17  C   UNL     1      38.147 -26.865 -14.634  0.00  0.00    +0.099 C 
ATOM     18  C   UNL     1      39.346 -25.321 -13.427  0.00  0.00    +0.099 C 
ENDBRANCH  10  14
ENDBRANCH   1   9
BRANCH   4  19
ATOM     19  O   UNL     1      36.438 -21.184 -18.842  0.00  0.00    -0.468 OA
BRANCH  19  20
ATOM     20  C   UNL     1      35.450 -21.250 -19.862  0.00  0.00    +0.264 C 
BRANCH  20  22
ATOM     21  N   UNL     1      34.730 -19.982 -21.794  0.00  0.00    -0.406 NA
ATOM     22  C   UNL     1      35.495 -20.002 -20.678  0.00  0.00    +0.152 C 
ATOM     23  C   UNL     1      35.532 -17.751 -22.222  0.00  0.00    +0.026 C 
ATOM     24  C   UNL     1      34.746 -18.873 -22.558  0.00  0.00    +0.113 C 
ATOM     25  C   UNL     1      36.294 -18.954 -20.270  0.00  0.00    +0.031 C 
ATOM     26  C   UNL     1      36.309 -17.813 -21.058  0.00  0.00    +0.005 C 
ATOM     27  C   UNL     1      35.524 -16.609 -23.042  0.00  0.00    +0.002 C 
ATOM     28  C   UNL     1      33.974 -18.810 -23.714  0.00  0.00    +0.085 C 
ATOM     29  C   UNL     1      34.742 -16.573 -24.193  0.00  0.00    -0.004 C 
ATOM     30  C   UNL     1      33.967 -17.675 -24.529  0.00  0.00    -0.019 C 
ENDBRANCH  20  22
ENDBRANCH  19  20
ENDBRANCH   4  19
TORSDOF 5
ENDMDL
MODEL 3
REMARK VINA RESULT:     -11.9      2.367      3.776
REMARK  Name = 11610553
REMARK  5 active torsions:
REMARK  status: ('A' for Active; 'I' for Inactive)
REMARK    1  A    between atoms: C_1  and  C_9
REMARK    2  A    between atoms: C_4  and  O_19
REMARK    3  A    between atoms: C_10  and  C_14
REMARK    4  A    between atoms: O_19  and  C_20
REMARK    5  A    between atoms: C_20  and  C_22
REMARK                            x       y       z     vdW  Elec       q    Type
REMARK                         _______ _______ _______ _____ _____    ______ ____
ROOT
ATOM      1  C   UNL     1      35.298 -23.565 -14.007  0.00  0.00    +0.015 C 
ATOM      2  C   UNL     1      36.159 -22.843 -14.833  0.00  0.00    +0.004 C 
ATOM      3  C   UNL     1      34.095 -24.057 -14.512  0.00  0.00    +0.004 C 
ATOM      4  C   UNL     1      34.614 -23.105 -16.662  0.00  0.00    +0.139 C 
ATOM      5  C   UNL     1      35.815 -22.612 -16.166  0.00  0.00    +0.037 C 
ATOM      6  C   UNL     1      33.751 -23.826 -15.844  0.00  0.00    +0.037 C 
ENDROOT
BRANCH   1   9
ATOM      7  N   UNL     1      34.946 -23.266 -11.594  0.00  0.00    -0.236 N 
ATOM      8  N   UNL     1      35.422 -23.596 -10.381  0.00  0.00    -0.180 NA
ATOM      9  C   UNL     1      35.653 -23.803 -12.629  0.00  0.00    +0.067 C 
ATOM     10  C   UNL     1      36.663 -24.536 -12.053  0.00  0.00    +0.036 C 
ATOM     11  C   UNL     1      36.471 -24.372 -10.668  0.00  0.00    +0.119 C 
ATOM     12  H   UNL     1      34.158 -22.690 -11.723  0.00  0.00    +0.174 HD
BRANCH  10  14
ATOM     13  N   UNL     1      39.596 -26.726 -14.174  0.00  0.00    -0.242 NA
ATOM     14  C   UNL     1      37.655 -25.276 -12.771  0.00  0.00    +0.006 C 
ATOM     15  C   UNL     1      38.980 -24.847 -12.784  0.00  0.00    +0.021 C 
ATOM     16  C   UNL     1      37.305 -26.434 -13.462  0.00  0.00    +0.021 C 
ATOM     17  C   UNL     1      39.902 -25.599 -13.493  0.00  0.00    +0.099 C 
ATOM     18  C   UNL     1      38.302 -27.114 -14.142  0.00  0.00    +0.099 C 
ENDBRANCH  10  14
ENDBRANCH   1   9
BRANCH   4  19
ATOM     19  O   UNL     1      34.277 -22.878 -17.971  0.00  0.00    -0.468 OA
BRANCH  19  20
ATOM     20  C   UNL     1      33.254 -21.922 -18.212  0.00  0.00    +0.264 C 
BRANCH  20  22
ATOM     21  N   UNL     1      35.020 -20.673 -19.300  0.00  0.00    -0.406 NA
ATOM     22  C   UNL     1      33.701 -20.975 -19.275  0.00  0.00    +0.152 C 
ATOM     23  C   UNL     1      34.589 -19.244 -21.191  0.00  0.00    +0.026 C 
ATOM     24  C   UNL     1      35.461 -19.820 -20.243  0.00  0.00    +0.113 C 
ATOM     25  C   UNL     1      32.774 -20.461 -20.159  0.00  0.00    +0.031 C 
ATOM     26  C   UNL     1      33.231 -19.582 -21.130  0.00  0.00    +0.005 C 
ATOM     27  C   UNL     1      35.084 -18.357 -22.163  0.00  0.00    +0.002 C 
ATOM     28  C   UNL     1      36.810 -19.484 -20.305  0.00  0.00    +0.085 C 
ATOM     29  C   UNL     1      36.438 -18.038 -22.201  0.00  0.00    -0.004 C 
ATOM     30  C   UNL     1      37.302 -18.602 -21.271  0.00  0.00    -0.019 C 
ENDBRANCH  20  22
ENDBRANCH  19  20
ENDBRANCH   4  19
TORSDOF 5
ENDMDL
MODEL 4
REMARK VINA RESULT:     -11.9      3.673     11.214
REMARK  Name = 11610553
REMARK  5 active torsions:
REMARK  status: ('A' for Active; 'I' for Inactive)
REMARK    1  A    between atoms: C_1  and  C_9
REMARK    2  A    between atoms: C_4  and  O_19
REMARK    3  A    between atoms: C_10  and  C_14
REMARK    4  A    between atoms: O_19  and  C_20
REMARK    5  A    between atoms: C_20  and  C_22
REMARK                            x       y       z     vdW  Elec       q    Type
REMARK                         _______ _______ _______ _____ _____    ______ ____
ROOT
ATOM      1  C   UNL     1      33.455 -13.585 -21.734  0.00  0.00    +0.015 C 
ATOM      2  C   UNL     1      34.053 -14.112 -20.589  0.00  0.00    +0.004 C 
ATOM      3  C   UNL     1      33.660 -14.194 -22.972  0.00  0.00    +0.004 C 
ATOM      4  C   UNL     1      35.059 -15.848 -21.921  0.00  0.00    +0.139 C 
ATOM      5  C   UNL     1      34.858 -15.248 -20.684  0.00  0.00    +0.037 C 
ATOM      6  C   UNL     1      34.465 -15.329 -23.067  0.00  0.00    +0.037 C 
ENDROOT
BRANCH   1   9
ATOM      7  N   UNL     1      31.608 -12.313 -20.730  0.00  0.00    -0.236 N 
ATOM      8  N   UNL     1      30.942 -11.147 -20.784  0.00  0.00    -0.180 NA
ATOM      9  C   UNL     1      32.623 -12.411 -21.637  0.00  0.00    +0.067 C 
ATOM     10  C   UNL     1      32.619 -11.226 -22.333  0.00  0.00    +0.036 C 
ATOM     11  C   UNL     1      31.564 -10.487 -21.764  0.00  0.00    +0.119 C 
ATOM     12  H   UNL     1      31.386 -13.030 -20.094  0.00  0.00    +0.174 HD
BRANCH  10  14
ATOM     13  N   UNL     1      35.290 -10.232 -25.460  0.00  0.00    -0.242 NA
ATOM     14  C   UNL     1      33.524 -10.890 -23.390  0.00  0.00    +0.006 C 
ATOM     15  C   UNL     1      33.478 -11.581 -24.598  0.00  0.00    +0.021 C 
ATOM     16  C   UNL     1      34.455  -9.869 -23.221  0.00  0.00    +0.021 C 
ATOM     17  C   UNL     1      34.373 -11.218 -25.591  0.00  0.00    +0.099 C 
ATOM     18  C   UNL     1      35.308  -9.583 -24.275  0.00  0.00    +0.099 C 
ENDBRANCH  10  14
ENDBRANCH   1   9
BRANCH   4  19
ATOM     19  O   UNL     1      35.849 -16.964 -22.014  0.00  0.00    -0.468 OA
BRANCH  19  20
ATOM     20  C   UNL     1      35.201 -18.182 -22.353  0.00  0.00    +0.264 C 
BRANCH  20  22
ATOM     21  N   UNL     1      34.208 -19.758 -20.807  0.00  0.00    -0.406 NA
ATOM     22  C   UNL     1      35.341 -19.149 -21.224  0.00  0.00    +0.152 C 
ATOM     23  C   UNL     1      35.524 -20.927 -19.160  0.00  0.00    +0.026 C 
ATOM     24  C   UNL     1      34.295 -20.636 -19.790  0.00  0.00    +0.113 C 
ATOM     25  C   UNL     1      36.587 -19.369 -20.671  0.00  0.00    +0.031 C 
ATOM     26  C   UNL     1      36.673 -20.273 -19.623  0.00  0.00    +0.005 C 
ATOM     27  C   UNL     1      35.578 -21.849 -18.101  0.00  0.00    +0.002 C 
ATOM     28  C   UNL     1      33.154 -21.287 -19.329  0.00  0.00    +0.085 C 
ATOM     29  C   UNL     1      34.421 -22.485 -17.660  0.00  0.00    -0.004 C 
ATOM     30  C   UNL     1      33.207 -22.203 -18.275  0.00  0.00    -0.019 C 
ENDBRANCH  20  22
ENDBRANCH  19  20
ENDBRANCH   4  19
TORSDOF 5
ENDMDL
MODEL 5
REMARK VINA RESULT:     -11.8      2.641      4.655
REMARK  Name = 11610553
REMARK  5 active torsions:
REMARK  status: ('A' for Active; 'I' for Inactive)
REMARK    1  A    between atoms: C_1  and  C_9
REMARK    2  A    between atoms: C_4  and  O_19
REMARK    3  A    between atoms: C_10  and  C_14
REMARK    4  A    between atoms: O_19  and  C_20
REMARK    5  A    between atoms: C_20  and  C_22
REMARK                            x       y       z     vdW  Elec       q    Type
REMARK                         _______ _______ _______ _____ _____    ______ ____
ROOT
ATOM      1  C   UNL     1      37.213 -23.926 -14.938  0.00  0.00    +0.015 C 
ATOM      2  C   UNL     1      37.303 -22.740 -15.667  0.00  0.00    +0.004 C 
ATOM      3  C   UNL     1      35.988 -24.584 -14.825  0.00  0.00    +0.004 C 
ATOM      4  C   UNL     1      34.950 -22.873 -16.164  0.00  0.00    +0.139 C 
ATOM      5  C   UNL     1      36.167 -22.212 -16.282  0.00  0.00    +0.037 C 
ATOM      6  C   UNL     1      34.853 -24.056 -15.439  0.00  0.00    +0.037 C 
ENDROOT
BRANCH   1   9
ATOM      7  N   UNL     1      39.491 -24.844 -15.013  0.00  0.00    -0.236 N 
ATOM      8  N   UNL     1      40.487 -25.330 -14.253  0.00  0.00    -0.180 NA
ATOM      9  C   UNL     1      38.387 -24.471 -14.302  0.00  0.00    +0.067 C 
ATOM     10  C   UNL     1      38.682 -24.732 -12.986  0.00  0.00    +0.036 C 
ATOM     11  C   UNL     1      39.987 -25.260 -13.016  0.00  0.00    +0.119 C 
ATOM     12  H   UNL     1      39.551 -24.764 -15.991  0.00  0.00    +0.174 HD
BRANCH  10  14
ATOM     13  N   UNL     1      36.081 -24.024  -9.725  0.00  0.00    -0.242 NA
ATOM     14  C   UNL     1      37.803 -24.493 -11.882  0.00  0.00    +0.006 C 
ATOM     15  C   UNL     1      37.830 -23.271 -11.215  0.00  0.00    +0.021 C 
ATOM     16  C   UNL     1      36.911 -25.479 -11.468  0.00  0.00    +0.021 C 
ATOM     17  C   UNL     1      36.959 -23.088 -10.154  0.00  0.00    +0.099 C 
ATOM     18  C   UNL     1      36.081 -25.198 -10.395  0.00  0.00    +0.099 C 
ENDBRANCH  10  14
ENDBRANCH   1   9
BRANCH   4  19
ATOM     19  O   UNL     1      33.835 -22.354 -16.768  0.00  0.00    -0.468 OA
BRANCH  19  20
ATOM     20  C   UNL     1      33.594 -22.745 -18.113  0.00  0.00    +0.264 C 
BRANCH  20  22
ATOM     21  N   UNL     1      35.194 -21.256 -19.154  0.00  0.00    -0.406 NA
ATOM     22  C   UNL     1      33.892 -21.600 -19.023  0.00  0.00    +0.152 C 
ATOM     23  C   UNL     1      34.510 -19.510 -20.668  0.00  0.00    +0.026 C 
ATOM     24  C   UNL     1      35.502 -20.226 -19.965  0.00  0.00    +0.113 C 
ATOM     25  C   UNL     1      32.854 -20.960 -19.669  0.00  0.00    +0.031 C 
ATOM     26  C   UNL     1      33.174 -19.899 -20.503  0.00  0.00    +0.005 C 
ATOM     27  C   UNL     1      34.866 -18.440 -21.507  0.00  0.00    +0.002 C 
ATOM     28  C   UNL     1      36.829 -19.839 -20.131  0.00  0.00    +0.085 C 
ATOM     29  C   UNL     1      36.202 -18.075 -21.653  0.00  0.00    -0.004 C 
ATOM     30  C   UNL     1      37.183 -18.775 -20.963  0.00  0.00    -0.019 C 
ENDBRANCH  20  22
ENDBRANCH  19  20
ENDBRANCH   4  19
TORSDOF 5
ENDMDL
MODEL 6
REMARK VINA RESULT:     -11.5      1.798      3.622
REMARK  Name = 11610553
REMARK  5 active torsions:
REMARK  status: ('A' for Active; 'I' for Inactive)
REMARK    1  A    between atoms: C_1  and  C_9
REMARK    2  A    between atoms: C_4  and  O_19
REMARK    3  A    between atoms: C_10  and  C_14
REMARK    4  A    between atoms: O_19  and  C_20
REMARK    5  A    between atoms: C_20  and  C_22
REMARK                            x       y       z     vdW  Elec       q    Type
REMARK                         _______ _______ _______ _____ _____    ______ ____
ROOT
ATOM      1  C   UNL     1      34.001 -23.010 -16.027  0.00  0.00    +0.015 C 
ATOM      2  C   UNL     1      35.257 -22.550 -16.420  0.00  0.00    +0.004 C 
ATOM      3  C   UNL     1      32.909 -22.878 -16.884  0.00  0.00    +0.004 C 
ATOM      4  C   UNL     1      34.327 -21.827 -18.521  0.00  0.00    +0.139 C 
ATOM      5  C   UNL     1      35.420 -21.956 -17.673  0.00  0.00    +0.037 C 
ATOM      6  C   UNL     1      33.072 -22.285 -18.135  0.00  0.00    +0.037 C 
ENDROOT
BRANCH   1   9
ATOM      7  N   UNL     1      34.893 -23.962 -13.945  0.00  0.00    -0.236 N 
ATOM      8  N   UNL     1      34.545 -24.522 -12.774  0.00  0.00    -0.180 NA
ATOM      9  C   UNL     1      33.832 -23.624 -14.732  0.00  0.00    +0.067 C 
ATOM     10  C   UNL     1      32.710 -23.988 -14.026  0.00  0.00    +0.036 C 
ATOM     11  C   UNL     1      33.210 -24.536 -12.830  0.00  0.00    +0.119 C 
ATOM     12  H   UNL     1      35.828 -23.810 -14.210  0.00  0.00    +0.174 HD
BRANCH  10  14
ATOM     13  N   UNL     1      28.728 -23.479 -15.361  0.00  0.00    -0.242 NA
ATOM     14  C   UNL     1      31.362 -23.816 -14.477  0.00  0.00    +0.006 C 
ATOM     15  C   UNL     1      30.738 -22.577 -14.366  0.00  0.00    +0.021 C 
ATOM     16  C   UNL     1      30.665 -24.886 -15.033  0.00  0.00    +0.021 C 
ATOM     17  C   UNL     1      29.433 -22.461 -14.817  0.00  0.00    +0.099 C 
ATOM     18  C   UNL     1      29.364 -24.668 -15.454  0.00  0.00    +0.099 C 
ENDBRANCH  10  14
ENDBRANCH   1   9
BRANCH   4  19
ATOM     19  O   UNL     1      34.488 -21.244 -19.751  0.00  0.00    -0.468 OA
BRANCH  19  20
ATOM     20  C   UNL     1      35.689 -20.514 -19.962  0.00  0.00    +0.264 C 
BRANCH  20  22
ATOM     21  N   UNL     1      35.344 -18.137 -20.260  0.00  0.00    -0.406 NA
ATOM     22  C   UNL     1      35.412 -19.350 -20.854  0.00  0.00    +0.152 C 
ATOM     23  C   UNL     1      34.904 -17.176 -22.425  0.00  0.00    +0.026 C 
ATOM     24  C   UNL     1      35.094 -17.063 -21.032  0.00  0.00    +0.113 C 
ATOM     25  C   UNL     1      35.240 -19.560 -22.207  0.00  0.00    +0.031 C 
ATOM     26  C   UNL     1      34.982 -18.452 -23.000  0.00  0.00    +0.005 C 
ATOM     27  C   UNL     1      34.644 -16.034 -23.201  0.00  0.00    +0.002 C 
ATOM     28  C   UNL     1      35.017 -15.795 -20.462  0.00  0.00    +0.085 C 
ATOM     29  C   UNL     1      34.572 -14.778 -22.605  0.00  0.00    -0.004 C 
ATOM     30  C   UNL     1      34.758 -14.659 -21.233  0.00  0.00    -0.019 C 
ENDBRANCH  20  22
ENDBRANCH  19  20
ENDBRANCH   4  19
TORSDOF 5
ENDMDL
MODEL 7
REMARK VINA RESULT:     -11.4      2.175      4.105
REMARK  Name = 11610553
REMARK  5 active torsions:
REMARK  status: ('A' for Active; 'I' for Inactive)
REMARK    1  A    between atoms: C_1  and  C_9
REMARK    2  A    between atoms: C_4  and  O_19
REMARK    3  A    between atoms: C_10  and  C_14
REMARK    4  A    between atoms: O_19  and  C_20
REMARK    5  A    between atoms: C_20  and  C_22
REMARK                            x       y       z     vdW  Elec       q    Type
REMARK                         _______ _______ _______ _____ _____    ______ ____
ROOT
ATOM      1  C   UNL     1      33.651 -23.085 -15.871  0.00  0.00    +0.015 C 
ATOM      2  C   UNL     1      34.966 -22.779 -16.220  0.00  0.00    +0.004 C 
ATOM      3  C   UNL     1      32.614 -22.834 -16.769  0.00  0.00    +0.004 C 
ATOM      4  C   UNL     1      34.205 -21.970 -18.357  0.00  0.00    +0.139 C 
ATOM      5  C   UNL     1      35.244 -22.219 -17.467  0.00  0.00    +0.037 C 
ATOM      6  C   UNL     1      32.891 -22.274 -18.015  0.00  0.00    +0.037 C 
ENDROOT
BRANCH   1   9
ATOM      7  N   UNL     1      34.351 -23.999 -13.700  0.00  0.00    -0.236 N 
ATOM      8  N   UNL     1      33.896 -24.524 -12.549  0.00  0.00    -0.180 NA
ATOM      9  C   UNL     1      33.364 -23.663 -14.581  0.00  0.00    +0.067 C 
ATOM     10  C   UNL     1      32.182 -23.993 -13.963  0.00  0.00    +0.036 C 
ATOM     11  C   UNL     1      32.571 -24.518 -12.716  0.00  0.00    +0.119 C 
ATOM     12  H   UNL     1      35.307 -23.868 -13.889  0.00  0.00    +0.174 HD
BRANCH  10  14
ATOM     13  N   UNL     1      28.332 -23.456 -15.633  0.00  0.00    -0.242 NA
ATOM     14  C   UNL     1      30.879 -23.811 -14.528  0.00  0.00    +0.006 C 
ATOM     15  C   UNL     1      30.218 -24.881 -15.125  0.00  0.00    +0.021 C 
ATOM     16  C   UNL     1      30.263 -22.563 -14.485  0.00  0.00    +0.021 C 
ATOM     17  C   UNL     1      28.959 -24.654 -15.657  0.00  0.00    +0.099 C 
ATOM     18  C   UNL     1      29.002 -22.439 -15.046  0.00  0.00    +0.099 C 
ENDBRANCH  10  14
ENDBRANCH   1   9
BRANCH   4  19
ATOM     19  O   UNL     1      34.478 -21.421 -19.582  0.00  0.00    -0.468 OA
BRANCH  19  20
ATOM     20  C   UNL     1      35.732 -20.768 -19.727  0.00  0.00    +0.264 C 
BRANCH  20  22
ATOM     21  N   UNL     1      34.767 -19.863 -21.753  0.00  0.00    -0.406 NA
ATOM     22  C   UNL     1      35.599 -19.652 -20.709  0.00  0.00    +0.152 C 
ATOM     23  C   UNL     1      35.313 -17.654 -22.547  0.00  0.00    +0.026 C 
ATOM     24  C   UNL     1      34.623 -18.879 -22.662  0.00  0.00    +0.113 C 
ATOM     25  C   UNL     1      36.316 -18.489 -20.513  0.00  0.00    +0.031 C 
ATOM     26  C   UNL     1      36.166 -17.477 -21.450  0.00  0.00    +0.005 C 
ATOM     27  C   UNL     1      35.139 -16.648 -23.514  0.00  0.00    +0.002 C 
ATOM     28  C   UNL     1      33.775 -19.053 -23.752  0.00  0.00    +0.085 C 
ATOM     29  C   UNL     1      34.285 -16.850 -24.594  0.00  0.00    -0.004 C 
ATOM     30  C   UNL     1      33.603 -18.054 -24.713  0.00  0.00    -0.019 C 
ENDBRANCH  20  22
ENDBRANCH  19  20
ENDBRANCH   4  19
TORSDOF 5
ENDMDL
MODEL 8
REMARK VINA RESULT:     -11.4      2.293      9.637
REMARK  Name = 11610553
REMARK  5 active torsions:
REMARK  status: ('A' for Active; 'I' for Inactive)
REMARK    1  A    between atoms: C_1  and  C_9
REMARK    2  A    between atoms: C_4  and  O_19
REMARK    3  A    between atoms: C_10  and  C_14
REMARK    4  A    between atoms: O_19  and  C_20
REMARK    5  A    between atoms: C_20  and  C_22
REMARK                            x       y       z     vdW  Elec       q    Type
REMARK                         _______ _______ _______ _____ _____    ______ ____
ROOT
ATOM      1  C   UNL     1      34.706 -18.924 -21.970  0.00  0.00    +0.015 C 
ATOM      2  C   UNL     1      35.949 -19.218 -21.410  0.00  0.00    +0.004 C 
ATOM      3  C   UNL     1      33.545 -19.452 -21.407  0.00  0.00    +0.004 C 
ATOM      4  C   UNL     1      34.868 -20.566 -19.732  0.00  0.00    +0.139 C 
ATOM      5  C   UNL     1      36.030 -20.042 -20.287  0.00  0.00    +0.037 C 
ATOM      6  C   UNL     1      33.625 -20.276 -20.285  0.00  0.00    +0.037 C 
ENDROOT
BRANCH   1   9
ATOM      7  N   UNL     1      34.544 -18.576 -24.397  0.00  0.00    -0.236 N 
ATOM      8  N   UNL     1      34.473 -17.634 -25.353  0.00  0.00    -0.180 NA
ATOM      9  C   UNL     1      34.623 -18.072 -23.131  0.00  0.00    +0.067 C 
ATOM     10  C   UNL     1      34.602 -16.705 -23.269  0.00  0.00    +0.036 C 
ATOM     11  C   UNL     1      34.509 -16.493 -24.658  0.00  0.00    +0.119 C 
ATOM     12  H   UNL     1      34.539 -19.540 -24.591  0.00  0.00    +0.174 HD
BRANCH  10  14
ATOM     13  N   UNL     1      34.790 -13.935 -20.077  0.00  0.00    -0.242 NA
ATOM     14  C   UNL     1      34.665 -15.768 -22.189  0.00  0.00    +0.006 C 
ATOM     15  C   UNL     1      34.916 -16.207 -20.892  0.00  0.00    +0.021 C 
ATOM     16  C   UNL     1      34.478 -14.408 -22.427  0.00  0.00    +0.021 C 
ATOM     17  C   UNL     1      34.968 -15.261 -19.881  0.00  0.00    +0.099 C 
ATOM     18  C   UNL     1      34.549 -13.542 -21.348  0.00  0.00    +0.099 C 
ENDBRANCH  10  14
ENDBRANCH   1   9
BRANCH   4  19
ATOM     19  O   UNL     1      34.947 -21.375 -18.629  0.00  0.00    -0.468 OA
BRANCH  19  20
ATOM     20  C   UNL     1      34.187 -22.576 -18.659  0.00  0.00    +0.264 C 
BRANCH  20  22
ATOM     21  N   UNL     1      32.230 -22.753 -17.246  0.00  0.00    -0.406 NA
ATOM     22  C   UNL     1      33.579 -22.812 -17.317  0.00  0.00    +0.152 C 
ATOM     23  C   UNL     1      32.401 -23.230 -14.890  0.00  0.00    +0.026 C 
ATOM     24  C   UNL     1      31.646 -22.959 -16.051  0.00  0.00    +0.113 C 
ATOM     25  C   UNL     1      34.400 -23.070 -16.238  0.00  0.00    +0.031 C 
ATOM     26  C   UNL     1      33.796 -23.282 -15.008  0.00  0.00    +0.005 C 
ATOM     27  C   UNL     1      31.758 -23.440 -13.658  0.00  0.00    +0.002 C 
ATOM     28  C   UNL     1      30.259 -22.908 -15.932  0.00  0.00    +0.085 C 
ATOM     29  C   UNL     1      30.370 -23.383 -13.569  0.00  0.00    -0.004 C 
ATOM     30  C   UNL     1      29.620 -23.117 -14.708  0.00  0.00    -0.019 C 
ENDBRANCH  20  22
ENDBRANCH  19  20
ENDBRANCH   4  19
TORSDOF 5
ENDMDL
MODEL 9
REMARK VINA RESULT:     -11.4      2.044      9.899
REMARK  Name = 11610553
REMARK  5 active torsions:
REMARK  status: ('A' for Active; 'I' for Inactive)
REMARK    1  A    between atoms: C_1  and  C_9
REMARK    2  A    between atoms: C_4  and  O_19
REMARK    3  A    between atoms: C_10  and  C_14
REMARK    4  A    between atoms: O_19  and  C_20
REMARK    5  A    between atoms: C_20  and  C_22
REMARK                            x       y       z     vdW  Elec       q    Type
REMARK                         _______ _______ _______ _____ _____    ______ ____
ROOT
ATOM      1  C   UNL     1      35.153 -18.148 -22.351  0.00  0.00    +0.015 C 
ATOM      2  C   UNL     1      36.480 -18.126 -21.921  0.00  0.00    +0.004 C 
ATOM      3  C   UNL     1      34.229 -18.980 -21.721  0.00  0.00    +0.004 C 
ATOM      4  C   UNL     1      35.955 -19.766 -20.237  0.00  0.00    +0.139 C 
ATOM      5  C   UNL     1      36.882 -18.938 -20.860  0.00  0.00    +0.037 C 
ATOM      6  C   UNL     1      34.630 -19.792 -20.661  0.00  0.00    +0.037 C 
ENDROOT
BRANCH   1   9
ATOM      7  N   UNL     1      34.696 -17.762 -24.735  0.00  0.00    -0.236 N 
ATOM      8  N   UNL     1      34.285 -16.841 -25.622  0.00  0.00    -0.180 NA
ATOM      9  C   UNL     1      34.738 -17.308 -23.448  0.00  0.00    +0.067 C 
ATOM     10  C   UNL     1      34.325 -15.998 -23.499  0.00  0.00    +0.036 C 
ATOM     11  C   UNL     1      34.059 -15.766 -24.862  0.00  0.00    +0.119 C 
ATOM     12  H   UNL     1      34.944 -18.679 -24.988  0.00  0.00    +0.174 HD
BRANCH  10  14
ATOM     13  N   UNL     1      34.001 -13.419 -20.161  0.00  0.00    -0.242 NA
ATOM     14  C   UNL     1      34.214 -15.126 -22.369  0.00  0.00    +0.006 C 
ATOM     15  C   UNL     1      34.899 -15.413 -21.191  0.00  0.00    +0.021 C 
ATOM     16  C   UNL     1      33.423 -13.982 -22.439  0.00  0.00    +0.021 C 
ATOM     17  C   UNL     1      34.761 -14.538 -20.127  0.00  0.00    +0.099 C 
ATOM     18  C   UNL     1      33.350 -13.171 -21.319  0.00  0.00    +0.099 C 
ENDBRANCH  10  14
ENDBRANCH   1   9
BRANCH   4  19
ATOM     19  O   UNL     1      36.350 -20.564 -19.196  0.00  0.00    -0.468 OA
BRANCH  19  20
ATOM     20  C   UNL     1      35.492 -21.645 -18.855  0.00  0.00    +0.264 C 
BRANCH  20  22
ATOM     21  N   UNL     1      34.732 -22.692 -16.810  0.00  0.00    -0.406 NA
ATOM     22  C   UNL     1      35.741 -22.049 -17.441  0.00  0.00    +0.152 C 
ATOM     23  C   UNL     1      36.126 -22.815 -14.848  0.00  0.00    +0.026 C 
ATOM     24  C   UNL     1      34.919 -23.071 -15.531  0.00  0.00    +0.113 C 
ATOM     25  C   UNL     1      36.956 -21.755 -16.856  0.00  0.00    +0.031 C 
ATOM     26  C   UNL     1      37.146 -22.146 -15.539  0.00  0.00    +0.005 C 
ATOM     27  C   UNL     1      36.288 -23.224 -13.514  0.00  0.00    +0.002 C 
ATOM     28  C   UNL     1      33.907 -23.736 -14.844  0.00  0.00    +0.085 C 
ATOM     29  C   UNL     1      35.259 -23.887 -12.851  0.00  0.00    -0.004 C 
ATOM     30  C   UNL     1      34.067 -24.142 -13.517  0.00  0.00    -0.019 C 
ENDBRANCH  20  22
ENDBRANCH  19  20
ENDBRANCH   4  19
TORSDOF 5
ENDMDL
