MODEL 1
REMARK VINA RESULT:     -11.8      0.000      0.000
REMARK  Name = 23650961
REMARK  5 active torsions:
REMARK  status: ('A' for Active; 'I' for Inactive)
REMARK    1  A    between atoms: N_1  and  C_23
REMARK    2  A    between atoms: C_5  and  C_12
REMARK    3  A    between atoms: C_23  and  C_24
REMARK    4  A    between atoms: C_24  and  C_25
REMARK    5  A    between atoms: C_25  and  C_27
REMARK                            x       y       z     vdW  Elec       q    Type
REMARK                         _______ _______ _______ _____ _____    ______ ____
ROOT
ATOM      1  N   UNL     1      35.687 -18.889 -21.827  0.00  0.00    -0.268 N 
ATOM      2  N   UNL     1      34.917 -17.194 -23.255  0.00  0.00    -0.342 NA
ATOM      3  N   UNL     1      35.315 -16.758 -20.919  0.00  0.00    -0.170 NA
ATOM      4  C   UNL     1      35.294 -17.572 -22.006  0.00  0.00    +0.144 C 
ATOM      5  C   UNL     1      34.524 -14.995 -22.356  0.00  0.00    +0.061 C 
ATOM      6  C   UNL     1      34.540 -15.906 -23.394  0.00  0.00    +0.123 C 
ATOM      7  C   UNL     1      34.926 -15.483 -21.129  0.00  0.00    +0.113 C 
ATOM      8  C   UNL     1      34.128 -15.503 -24.772  0.00  0.00    +0.067 C 
ATOM      9  H   UNL     1      35.676 -19.487 -22.608  0.00  0.00    +0.159 HD
ENDROOT
BRANCH   5  12
ATOM     10  N   UNL     1      33.087 -13.083 -21.796  0.00  0.00    -0.314 N 
ATOM     11  N   UNL     1      34.661 -12.744 -23.329  0.00  0.00    -0.315 N 
ATOM     12  C   UNL     1      34.119 -13.624 -22.514  0.00  0.00    +0.171 C 
ATOM     13  C   UNL     1      32.954 -11.771 -22.174  0.00  0.00    +0.059 C 
ATOM     14  C   UNL     1      33.947 -11.583 -23.130  0.00  0.00    +0.055 C 
ATOM     15  C   UNL     1      34.089 -10.322 -23.733  0.00  0.00    -0.008 C 
ATOM     16  C   UNL     1      32.077 -10.762 -21.771  0.00  0.00    +0.011 C 
ATOM     17  C   UNL     1      32.231  -9.513 -22.382  0.00  0.00    -0.021 C 
ATOM     18  C   UNL     1      33.218  -9.294 -23.345  0.00  0.00    -0.007 C 
ATOM     19  C   UNL     1      35.128 -10.038 -24.768  0.00  0.00    +0.032 C 
ATOM     20  C   UNL     1      31.323  -8.393 -21.993  0.00  0.00    +0.031 C 
ATOM     21  H   UNL     1      32.537 -13.552 -21.129  0.00  0.00    +0.149 HD
ATOM     22  H   UNL     1      35.414 -12.884 -23.948  0.00  0.00    +0.149 HD
ENDBRANCH   5  12
BRANCH   1  23
ATOM     23  C   UNL     1      36.113 -19.433 -20.560  0.00  0.00    +0.098 C 
BRANCH  23  24
ATOM     24  C   UNL     1      35.051 -20.368 -19.987  0.00  0.00    +0.022 C 
BRANCH  24  25
ATOM     25  C   UNL     1      35.658 -21.593 -19.304  0.00  0.00    +0.002 C 
BRANCH  25  27
ATOM     26  N   UNL     1      34.434 -23.616 -15.689  0.00  0.00    +0.385 N 
ATOM     27  C   UNL     1      35.038 -21.823 -17.928  0.00  0.00    -0.004 C 
ATOM     28  C   UNL     1      36.100 -22.256 -16.911  0.00  0.00    -0.023 C 
ATOM     29  C   UNL     1      33.925 -22.873 -17.993  0.00  0.00    -0.023 C 
ATOM     30  C   UNL     1      35.472 -22.585 -15.556  0.00  0.00    -0.077 C 
ATOM     31  C   UNL     1      33.368 -23.181 -16.602  0.00  0.00    -0.077 C 
ATOM     32  C   UNL     1      33.878 -23.956 -14.379  0.00  0.00    -0.101 C 
ATOM     33  H   UNL     1      34.867 -24.450 -16.087  0.00  0.00    -0.080 HD
ENDBRANCH  25  27
ENDBRANCH  24  25
ENDBRANCH  23  24
ENDBRANCH   1  23
TORSDOF 5
ENDMDL
MODEL 2
REMARK VINA RESULT:     -11.7      1.478      2.700
REMARK  Name = 23650961
REMARK  5 active torsions:
REMARK  status: ('A' for Active; 'I' for Inactive)
REMARK    1  A    between atoms: N_1  and  C_23
REMARK    2  A    between atoms: C_5  and  C_12
REMARK    3  A    between atoms: C_23  and  C_24
REMARK    4  A    between atoms: C_24  and  C_25
REMARK    5  A    between atoms: C_25  and  C_27
REMARK                            x       y       z     vdW  Elec       q    Type
REMARK                         _______ _______ _______ _____ _____    ______ ____
ROOT
ATOM      1  N   UNL     1      35.457 -17.395 -23.227  0.00  0.00    -0.268 N 
ATOM      2  N   UNL     1      34.273 -15.562 -24.093  0.00  0.00    -0.342 NA
ATOM      3  N   UNL     1      35.117 -15.536 -21.836  0.00  0.00    -0.170 NA
ATOM      4  C   UNL     1      34.933 -16.124 -23.046  0.00  0.00    +0.144 C 
ATOM      5  C   UNL     1      33.906 -13.639 -22.692  0.00  0.00    +0.061 C 
ATOM      6  C   UNL     1      33.775 -14.327 -23.883  0.00  0.00    +0.123 C 
ATOM      7  C   UNL     1      34.593 -14.300 -21.694  0.00  0.00    +0.113 C 
ATOM      8  C   UNL     1      33.053 -13.720 -25.041  0.00  0.00    +0.067 C 
ATOM      9  H   UNL     1      35.329 -17.829 -24.101  0.00  0.00    +0.159 HD
ENDROOT
BRANCH   5  12
ATOM     10  N   UNL     1      33.646 -11.278 -23.321  0.00  0.00    -0.314 N 
ATOM     11  N   UNL     1      32.579 -11.956 -21.492  0.00  0.00    -0.315 N 
ATOM     12  C   UNL     1      33.370 -12.322 -22.478  0.00  0.00    +0.171 C 
ATOM     13  C   UNL     1      32.991 -10.171 -22.846  0.00  0.00    +0.059 C 
ATOM     14  C   UNL     1      32.332 -10.619 -21.705  0.00  0.00    +0.055 C 
ATOM     15  C   UNL     1      31.552  -9.715 -20.964  0.00  0.00    -0.008 C 
ATOM     16  C   UNL     1      32.921  -8.854 -23.305  0.00  0.00    +0.011 C 
ATOM     17  C   UNL     1      32.141  -7.967 -22.555  0.00  0.00    -0.021 C 
ATOM     18  C   UNL     1      31.468  -8.387 -21.406  0.00  0.00    -0.007 C 
ATOM     19  C   UNL     1      30.815 -10.115 -19.729  0.00  0.00    +0.032 C 
ATOM     20  C   UNL     1      32.025  -6.544 -22.995  0.00  0.00    +0.031 C 
ATOM     21  H   UNL     1      34.213 -11.316 -24.123  0.00  0.00    +0.149 HD
ATOM     22  H   UNL     1      32.236 -12.518 -20.759  0.00  0.00    +0.149 HD
ENDBRANCH   5  12
BRANCH   1  23
ATOM     23  C   UNL     1      36.180 -18.115 -22.207  0.00  0.00    +0.098 C 
BRANCH  23  24
ATOM     24  C   UNL     1      35.561 -19.491 -21.974  0.00  0.00    +0.022 C 
BRANCH  24  25
ATOM     25  C   UNL     1      34.161 -19.405 -21.366  0.00  0.00    +0.002 C 
BRANCH  25  27
ATOM     26  N   UNL     1      33.897 -22.492 -18.356  0.00  0.00    +0.385 N 
ATOM     27  C   UNL     1      34.113 -20.069 -19.992  0.00  0.00    -0.004 C 
ATOM     28  C   UNL     1      35.279 -21.047 -19.813  0.00  0.00    -0.023 C 
ATOM     29  C   UNL     1      32.785 -20.803 -19.781  0.00  0.00    -0.023 C 
ATOM     30  C   UNL     1      35.182 -21.791 -18.480  0.00  0.00    -0.077 C 
ATOM     31  C   UNL     1      32.770 -21.554 -18.448  0.00  0.00    -0.077 C 
ATOM     32  C   UNL     1      33.839 -23.240 -17.100  0.00  0.00    -0.101 C 
ATOM     33  H   UNL     1      33.822 -23.151 -19.132  0.00  0.00    -0.080 HD
ENDBRANCH  25  27
ENDBRANCH  24  25
ENDBRANCH  23  24
ENDBRANCH   1  23
TORSDOF 5
ENDMDL
MODEL 3
REMARK VINA RESULT:     -11.6      2.631     12.383
REMARK  Name = 23650961
REMARK  5 active torsions:
REMARK  status: ('A' for Active; 'I' for Inactive)
REMARK    1  A    between atoms: N_1  and  C_23
REMARK    2  A    between atoms: C_5  and  C_12
REMARK    3  A    between atoms: C_23  and  C_24
REMARK    4  A    between atoms: C_24  and  C_25
REMARK    5  A    between atoms: C_25  and  C_27
REMARK                            x       y       z     vdW  Elec       q    Type
REMARK                         _______ _______ _______ _____ _____    ______ ____
ROOT
ATOM      1  N   UNL     1      35.255 -20.339 -20.326  0.00  0.00    -0.268 N 
ATOM      2  N   UNL     1      34.495 -21.800 -18.654  0.00  0.00    -0.342 NA
ATOM      3  N   UNL     1      36.628 -20.696 -18.457  0.00  0.00    -0.170 NA
ATOM      4  C   UNL     1      35.466 -20.964 -19.107  0.00  0.00    +0.144 C 
ATOM      5  C   UNL     1      35.879 -22.190 -16.723  0.00  0.00    +0.061 C 
ATOM      6  C   UNL     1      34.733 -22.392 -17.466  0.00  0.00    +0.123 C 
ATOM      7  C   UNL     1      36.801 -21.323 -17.274  0.00  0.00    +0.113 C 
ATOM      8  C   UNL     1      33.657 -23.308 -16.979  0.00  0.00    +0.067 C 
ATOM      9  H   UNL     1      34.416 -20.527 -20.805  0.00  0.00    +0.159 HD
ENDROOT
BRANCH   5  12
ATOM     10  N   UNL     1      35.324 -22.611 -14.367  0.00  0.00    -0.314 N 
ATOM     11  N   UNL     1      37.100 -23.667 -15.186  0.00  0.00    -0.315 N 
ATOM     12  C   UNL     1      36.123 -22.827 -15.457  0.00  0.00    +0.171 C 
ATOM     13  C   UNL     1      35.817 -23.357 -13.328  0.00  0.00    +0.059 C 
ATOM     14  C   UNL     1      36.925 -24.008 -13.864  0.00  0.00    +0.055 C 
ATOM     15  C   UNL     1      37.675 -24.870 -13.047  0.00  0.00    -0.008 C 
ATOM     16  C   UNL     1      35.402 -23.515 -12.005  0.00  0.00    +0.011 C 
ATOM     17  C   UNL     1      36.160 -24.377 -11.205  0.00  0.00    -0.021 C 
ATOM     18  C   UNL     1      37.276 -25.043 -11.714  0.00  0.00    -0.007 C 
ATOM     19  C   UNL     1      38.877 -25.605 -13.544  0.00  0.00    +0.032 C 
ATOM     20  C   UNL     1      35.765 -24.588  -9.781  0.00  0.00    +0.031 C 
ATOM     21  H   UNL     1      34.535 -22.024 -14.335  0.00  0.00    +0.149 HD
ATOM     22  H   UNL     1      37.805 -23.984 -15.797  0.00  0.00    +0.149 HD
ENDBRANCH   5  12
BRANCH   1  23
ATOM     23  C   UNL     1      36.196 -19.427 -20.932  0.00  0.00    +0.098 C 
BRANCH  23  24
ATOM     24  C   UNL     1      35.483 -18.457 -21.869  0.00  0.00    +0.022 C 
BRANCH  24  25
ATOM     25  C   UNL     1      35.520 -17.017 -21.357  0.00  0.00    +0.002 C 
BRANCH  25  27
ATOM     26  N   UNL     1      33.481 -14.546 -24.254  0.00  0.00    +0.385 N 
ATOM     27  C   UNL     1      35.302 -16.020 -22.493  0.00  0.00    -0.004 C 
ATOM     28  C   UNL     1      34.498 -14.807 -22.015  0.00  0.00    -0.023 C 
ATOM     29  C   UNL     1      34.587 -16.681 -23.676  0.00  0.00    -0.023 C 
ATOM     30  C   UNL     1      34.189 -13.853 -23.169  0.00  0.00    -0.077 C 
ATOM     31  C   UNL     1      34.276 -15.665 -24.776  0.00  0.00    -0.077 C 
ATOM     32  C   UNL     1      33.147 -13.610 -25.328  0.00  0.00    -0.101 C 
ATOM     33  H   UNL     1      32.615 -14.926 -23.872  0.00  0.00    -0.080 HD
ENDBRANCH  25  27
ENDBRANCH  24  25
ENDBRANCH  23  24
ENDBRANCH   1  23
TORSDOF 5
ENDMDL
MODEL 4
REMARK VINA RESULT:     -11.3      1.756     11.481
REMARK  Name = 23650961
REMARK  5 active torsions:
REMARK  status: ('A' for Active; 'I' for Inactive)
REMARK    1  A    between atoms: N_1  and  C_23
REMARK    2  A    between atoms: C_5  and  C_12
REMARK    3  A    between atoms: C_23  and  C_24
REMARK    4  A    between atoms: C_24  and  C_25
REMARK    5  A    between atoms: C_25  and  C_27
REMARK                            x       y       z     vdW  Elec       q    Type
REMARK                         _______ _______ _______ _____ _____    ______ ____
ROOT
ATOM      1  N   UNL     1      35.205 -19.025 -22.349  0.00  0.00    -0.268 N 
ATOM      2  N   UNL     1      35.746 -20.297 -20.453  0.00  0.00    -0.342 NA
ATOM      3  N   UNL     1      33.449 -19.878 -21.048  0.00  0.00    -0.170 NA
ATOM      4  C   UNL     1      34.786 -19.757 -21.249  0.00  0.00    +0.144 C 
ATOM      5  C   UNL     1      33.968 -21.187 -19.095  0.00  0.00    +0.061 C 
ATOM      6  C   UNL     1      35.304 -21.002 -19.391  0.00  0.00    +0.123 C 
ATOM      7  C   UNL     1      33.077 -20.595 -19.967  0.00  0.00    +0.113 C 
ATOM      8  C   UNL     1      36.369 -21.592 -18.524  0.00  0.00    +0.067 C 
ATOM      9  H   UNL     1      36.172 -18.932 -22.504  0.00  0.00    +0.159 HD
ENDROOT
BRANCH   5  12
ATOM     10  N   UNL     1      32.176 -22.108 -17.689  0.00  0.00    -0.314 N 
ATOM     11  N   UNL     1      34.265 -22.542 -17.067  0.00  0.00    -0.315 N 
ATOM     12  C   UNL     1      33.508 -21.939 -17.959  0.00  0.00    +0.171 C 
ATOM     13  C   UNL     1      32.070 -22.866 -16.551  0.00  0.00    +0.059 C 
ATOM     14  C   UNL     1      33.386 -23.125 -16.183  0.00  0.00    +0.055 C 
ATOM     15  C   UNL     1      33.638 -23.894 -15.034  0.00  0.00    -0.008 C 
ATOM     16  C   UNL     1      30.967 -23.334 -15.835  0.00  0.00    +0.011 C 
ATOM     17  C   UNL     1      31.235 -24.097 -14.694  0.00  0.00    -0.021 C 
ATOM     18  C   UNL     1      32.545 -24.374 -14.299  0.00  0.00    -0.007 C 
ATOM     19  C   UNL     1      35.021 -24.216 -14.570  0.00  0.00    +0.032 C 
ATOM     20  C   UNL     1      30.097 -24.628 -13.885  0.00  0.00    +0.031 C 
ATOM     21  H   UNL     1      31.428 -21.748 -18.218  0.00  0.00    +0.149 HD
ATOM     22  H   UNL     1      35.249 -22.570 -17.039  0.00  0.00    +0.149 HD
ENDBRANCH   5  12
BRANCH   1  23
ATOM     23  C   UNL     1      34.302 -18.394 -23.282  0.00  0.00    +0.098 C 
BRANCH  23  24
ATOM     24  C   UNL     1      34.796 -16.998 -23.653  0.00  0.00    +0.022 C 
BRANCH  24  25
ATOM     25  C   UNL     1      33.986 -16.375 -24.790  0.00  0.00    +0.002 C 
BRANCH  25  27
ATOM     26  N   UNL     1      34.105 -12.115 -24.091  0.00  0.00    +0.385 N 
ATOM     27  C   UNL     1      33.520 -14.967 -24.430  0.00  0.00    -0.004 C 
ATOM     28  C   UNL     1      33.681 -14.013 -25.619  0.00  0.00    -0.023 C 
ATOM     29  C   UNL     1      34.290 -14.423 -23.223  0.00  0.00    -0.023 C 
ATOM     30  C   UNL     1      33.311 -12.579 -25.237  0.00  0.00    -0.077 C 
ATOM     31  C   UNL     1      33.899 -12.976 -22.919  0.00  0.00    -0.077 C 
ATOM     32  C   UNL     1      33.777 -10.726 -23.770  0.00  0.00    -0.101 C 
ATOM     33  H   UNL     1      35.090 -12.166 -24.350  0.00  0.00    -0.080 HD
ENDBRANCH  25  27
ENDBRANCH  24  25
ENDBRANCH  23  24
ENDBRANCH   1  23
TORSDOF 5
ENDMDL
MODEL 5
REMARK VINA RESULT:     -11.1      2.533      5.410
REMARK  Name = 23650961
REMARK  5 active torsions:
REMARK  status: ('A' for Active; 'I' for Inactive)
REMARK    1  A    between atoms: N_1  and  C_23
REMARK    2  A    between atoms: C_5  and  C_12
REMARK    3  A    between atoms: C_23  and  C_24
REMARK    4  A    between atoms: C_24  and  C_25
REMARK    5  A    between atoms: C_25  and  C_27
REMARK                            x       y       z     vdW  Elec       q    Type
REMARK                         _______ _______ _______ _____ _____    ______ ____
ROOT
ATOM      1  N   UNL     1      33.432 -14.256 -22.530  0.00  0.00    -0.268 N 
ATOM      2  N   UNL     1      32.406 -12.388 -21.548  0.00  0.00    -0.342 NA
ATOM      3  N   UNL     1      33.811 -12.149 -23.491  0.00  0.00    -0.170 NA
ATOM      4  C   UNL     1      33.209 -12.888 -22.523  0.00  0.00    +0.144 C 
ATOM      5  C   UNL     1      32.775 -10.211 -22.508  0.00  0.00    +0.061 C 
ATOM      6  C   UNL     1      32.211 -11.053 -21.570  0.00  0.00    +0.123 C 
ATOM      7  C   UNL     1      33.574 -10.821 -23.454  0.00  0.00    +0.113 C 
ATOM      8  C   UNL     1      31.326 -10.516 -20.493  0.00  0.00    +0.067 C 
ATOM      9  H   UNL     1      32.999 -14.800 -21.834  0.00  0.00    +0.159 HD
ENDROOT
BRANCH   5  12
ATOM     10  N   UNL     1      31.583  -8.192 -21.773  0.00  0.00    -0.314 N 
ATOM     11  N   UNL     1      33.246  -7.907 -23.220  0.00  0.00    -0.315 N 
ATOM     12  C   UNL     1      32.561  -8.789 -22.522  0.00  0.00    +0.171 C 
ATOM     13  C   UNL     1      31.639  -6.842 -22.005  0.00  0.00    +0.059 C 
ATOM     14  C   UNL     1      32.685  -6.689 -22.911  0.00  0.00    +0.055 C 
ATOM     15  C   UNL     1      33.016  -5.401 -23.365  0.00  0.00    -0.008 C 
ATOM     16  C   UNL     1      30.888  -5.772 -21.514  0.00  0.00    +0.011 C 
ATOM     17  C   UNL     1      31.230  -4.498 -21.978  0.00  0.00    -0.021 C 
ATOM     18  C   UNL     1      32.274  -4.313 -22.886  0.00  0.00    -0.007 C 
ATOM     19  C   UNL     1      34.122  -5.152 -24.337  0.00  0.00    +0.032 C 
ATOM     20  C   UNL     1      30.464  -3.312 -21.488  0.00  0.00    +0.031 C 
ATOM     21  H   UNL     1      30.950  -8.651 -21.175  0.00  0.00    +0.149 HD
ATOM     22  H   UNL     1      33.997  -8.082 -23.833  0.00  0.00    +0.149 HD
ENDBRANCH   5  12
BRANCH   1  23
ATOM     23  C   UNL     1      34.260 -14.928 -23.502  0.00  0.00    +0.098 C 
BRANCH  23  24
ATOM     24  C   UNL     1      35.339 -15.758 -22.813  0.00  0.00    +0.022 C 
BRANCH  24  25
ATOM     25  C   UNL     1      35.123 -17.261 -22.992  0.00  0.00    +0.002 C 
BRANCH  25  27
ATOM     26  N   UNL     1      35.911 -20.442 -20.178  0.00  0.00    +0.385 N 
ATOM     27  C   UNL     1      35.258 -18.000 -21.663  0.00  0.00    -0.004 C 
ATOM     28  C   UNL     1      36.701 -18.463 -21.435  0.00  0.00    -0.023 C 
ATOM     29  C   UNL     1      34.313 -19.204 -21.604  0.00  0.00    -0.023 C 
ATOM     30  C   UNL     1      36.825 -19.291 -20.155  0.00  0.00    -0.077 C 
ATOM     31  C   UNL     1      34.515 -20.007 -20.317  0.00  0.00    -0.077 C 
ATOM     32  C   UNL     1      36.077 -21.252 -18.971  0.00  0.00    -0.101 C 
ATOM     33  H   UNL     1      36.146 -21.013 -20.990  0.00  0.00    -0.080 HD
ENDBRANCH  25  27
ENDBRANCH  24  25
ENDBRANCH  23  24
ENDBRANCH   1  23
TORSDOF 5
ENDMDL
MODEL 6
REMARK VINA RESULT:     -10.9      2.395     12.155
REMARK  Name = 23650961
REMARK  5 active torsions:
REMARK  status: ('A' for Active; 'I' for Inactive)
REMARK    1  A    between atoms: N_1  and  C_23
REMARK    2  A    between atoms: C_5  and  C_12
REMARK    3  A    between atoms: C_23  and  C_24
REMARK    4  A    between atoms: C_24  and  C_25
REMARK    5  A    between atoms: C_25  and  C_27
REMARK                            x       y       z     vdW  Elec       q    Type
REMARK                         _______ _______ _______ _____ _____    ______ ____
ROOT
ATOM      1  N   UNL     1      34.991 -19.707 -21.165  0.00  0.00    -0.268 N 
ATOM      2  N   UNL     1      34.117 -21.120 -19.508  0.00  0.00    -0.342 NA
ATOM      3  N   UNL     1      36.399 -20.356 -19.403  0.00  0.00    -0.170 NA
ATOM      4  C   UNL     1      35.175 -20.416 -19.988  0.00  0.00    +0.144 C 
ATOM      5  C   UNL     1      35.534 -21.806 -17.687  0.00  0.00    +0.061 C 
ATOM      6  C   UNL     1      34.330 -21.800 -18.363  0.00  0.00    +0.123 C 
ATOM      7  C   UNL     1      36.543 -21.059 -18.261  0.00  0.00    +0.113 C 
ATOM      8  C   UNL     1      33.158 -22.570 -17.845  0.00  0.00    +0.067 C 
ATOM      9  H   UNL     1      34.108 -19.744 -21.596  0.00  0.00    +0.159 HD
ENDROOT
BRANCH   5  12
ATOM     10  N   UNL     1      37.004 -22.898 -16.049  0.00  0.00    -0.314 N 
ATOM     11  N   UNL     1      34.823 -22.932 -15.623  0.00  0.00    -0.315 N 
ATOM     12  C   UNL     1      35.752 -22.535 -16.467  0.00  0.00    +0.171 C 
ATOM     13  C   UNL     1      36.873 -23.572 -14.862  0.00  0.00    +0.059 C 
ATOM     14  C   UNL     1      35.503 -23.580 -14.617  0.00  0.00    +0.055 C 
ATOM     15  C   UNL     1      35.018 -24.205 -13.456  0.00  0.00    -0.008 C 
ATOM     16  C   UNL     1      37.808 -24.158 -14.007  0.00  0.00    +0.011 C 
ATOM     17  C   UNL     1      37.309 -24.776 -12.856  0.00  0.00    -0.021 C 
ATOM     18  C   UNL     1      35.939 -24.800 -12.583  0.00  0.00    -0.007 C 
ATOM     19  C   UNL     1      33.564 -24.258 -13.120  0.00  0.00    +0.032 C 
ATOM     20  C   UNL     1      38.259 -25.420 -11.901  0.00  0.00    +0.031 C 
ATOM     21  H   UNL     1      37.848 -22.709 -16.518  0.00  0.00    +0.149 HD
ATOM     22  H   UNL     1      33.850 -22.796 -15.695  0.00  0.00    +0.149 HD
ENDBRANCH   5  12
BRANCH   1  23
ATOM     23  C   UNL     1      36.022 -18.916 -21.792  0.00  0.00    +0.098 C 
BRANCH  23  24
ATOM     24  C   UNL     1      35.414 -17.900 -22.756  0.00  0.00    +0.022 C 
BRANCH  24  25
ATOM     25  C   UNL     1      35.331 -16.498 -22.151  0.00  0.00    +0.002 C 
BRANCH  25  27
ATOM     26  N   UNL     1      33.041 -13.987 -24.817  0.00  0.00    +0.385 N 
ATOM     27  C   UNL     1      35.012 -15.454 -23.219  0.00  0.00    -0.004 C 
ATOM     28  C   UNL     1      34.167 -14.315 -22.639  0.00  0.00    -0.023 C 
ATOM     29  C   UNL     1      34.282 -16.087 -24.408  0.00  0.00    -0.023 C 
ATOM     30  C   UNL     1      33.758 -13.317 -23.723  0.00  0.00    -0.077 C 
ATOM     31  C   UNL     1      33.871 -15.030 -25.434  0.00  0.00    -0.077 C 
ATOM     32  C   UNL     1      32.613 -13.013 -25.821  0.00  0.00    -0.101 C 
ATOM     33  H   UNL     1      32.214 -14.435 -24.422  0.00  0.00    -0.080 HD
ENDBRANCH  25  27
ENDBRANCH  24  25
ENDBRANCH  23  24
ENDBRANCH   1  23
TORSDOF 5
ENDMDL
MODEL 7
REMARK VINA RESULT:     -10.6      3.736     12.393
REMARK  Name = 23650961
REMARK  5 active torsions:
REMARK  status: ('A' for Active; 'I' for Inactive)
REMARK    1  A    between atoms: N_1  and  C_23
REMARK    2  A    between atoms: C_5  and  C_12
REMARK    3  A    between atoms: C_23  and  C_24
REMARK    4  A    between atoms: C_24  and  C_25
REMARK    5  A    between atoms: C_25  and  C_27
REMARK                            x       y       z     vdW  Elec       q    Type
REMARK                         _______ _______ _______ _____ _____    ______ ____
ROOT
ATOM      1  N   UNL     1      31.880  -9.010 -22.279  0.00  0.00    -0.268 N 
ATOM      2  N   UNL     1      31.950 -11.126 -21.267  0.00  0.00    -0.342 NA
ATOM      3  N   UNL     1      33.318 -10.626 -23.186  0.00  0.00    -0.170 NA
ATOM      4  C   UNL     1      32.399 -10.294 -22.243  0.00  0.00    +0.144 C 
ATOM      5  C   UNL     1      33.414 -12.808 -22.172  0.00  0.00    +0.061 C 
ATOM      6  C   UNL     1      32.475 -12.368 -21.261  0.00  0.00    +0.123 C 
ATOM      7  C   UNL     1      33.802 -11.885 -23.122  0.00  0.00    +0.113 C 
ATOM      8  C   UNL     1      31.973 -13.273 -20.182  0.00  0.00    +0.067 C 
ATOM      9  H   UNL     1      31.213  -8.760 -21.599  0.00  0.00    +0.159 HD
ENDROOT
BRANCH   5  12
ATOM     10  N   UNL     1      34.595 -14.651 -21.055  0.00  0.00    -0.314 N 
ATOM     11  N   UNL     1      33.948 -14.997 -23.153  0.00  0.00    -0.315 N 
ATOM     12  C   UNL     1      33.968 -14.135 -22.158  0.00  0.00    +0.171 C 
ATOM     13  C   UNL     1      35.005 -15.923 -21.360  0.00  0.00    +0.059 C 
ATOM     14  C   UNL     1      34.589 -16.116 -22.674  0.00  0.00    +0.055 C 
ATOM     15  C   UNL     1      34.857 -17.343 -23.305  0.00  0.00    -0.008 C 
ATOM     16  C   UNL     1      35.683 -16.894 -20.621  0.00  0.00    +0.011 C 
ATOM     17  C   UNL     1      35.942 -18.108 -21.264  0.00  0.00    -0.021 C 
ATOM     18  C   UNL     1      35.538 -18.332 -22.581  0.00  0.00    -0.007 C 
ATOM     19  C   UNL     1      34.446 -17.629 -24.712  0.00  0.00    +0.032 C 
ATOM     20  C   UNL     1      36.664 -19.187 -20.524  0.00  0.00    +0.031 C 
ATOM     21  H   UNL     1      34.728 -14.190 -20.196  0.00  0.00    +0.149 HD
ATOM     22  H   UNL     1      33.557 -14.868 -24.048  0.00  0.00    +0.149 HD
ENDBRANCH   5  12
BRANCH   1  23
ATOM     23  C   UNL     1      32.261  -8.019 -23.256  0.00  0.00    +0.098 C 
BRANCH  23  24
ATOM     24  C   UNL     1      33.332  -7.088 -22.693  0.00  0.00    +0.022 C 
BRANCH  24  25
ATOM     25  C   UNL     1      32.872  -6.368 -21.425  0.00  0.00    +0.002 C 
BRANCH  25  27
ATOM     26  N   UNL     1      30.685  -3.101 -23.214  0.00  0.00    +0.385 N 
ATOM     27  C   UNL     1      32.418  -4.943 -21.732  0.00  0.00    -0.004 C 
ATOM     28  C   UNL     1      30.937  -4.752 -21.389  0.00  0.00    -0.023 C 
ATOM     29  C   UNL     1      32.658  -4.593 -23.203  0.00  0.00    -0.023 C 
ATOM     30  C   UNL     1      30.448  -3.358 -21.787  0.00  0.00    -0.077 C 
ATOM     31  C   UNL     1      32.113  -3.204 -23.541  0.00  0.00    -0.077 C 
ATOM     32  C   UNL     1      30.168  -1.786 -23.590  0.00  0.00    -0.101 C 
ATOM     33  H   UNL     1      30.188  -3.813 -23.749  0.00  0.00    -0.080 HD
ENDBRANCH  25  27
ENDBRANCH  24  25
ENDBRANCH  23  24
ENDBRANCH   1  23
TORSDOF 5
ENDMDL
MODEL 8
REMARK VINA RESULT:     -10.4      3.797     12.561
REMARK  Name = 23650961
REMARK  5 active torsions:
REMARK  status: ('A' for Active; 'I' for Inactive)
REMARK    1  A    between atoms: N_1  and  C_23
REMARK    2  A    between atoms: C_5  and  C_12
REMARK    3  A    between atoms: C_23  and  C_24
REMARK    4  A    between atoms: C_24  and  C_25
REMARK    5  A    between atoms: C_25  and  C_27
REMARK                            x       y       z     vdW  Elec       q    Type
REMARK                         _______ _______ _______ _____ _____    ______ ____
ROOT
ATOM      1  N   UNL     1      31.823  -8.878 -22.343  0.00  0.00    -0.268 N 
ATOM      2  N   UNL     1      31.906 -10.994 -21.330  0.00  0.00    -0.342 NA
ATOM      3  N   UNL     1      33.254 -10.494 -23.264  0.00  0.00    -0.170 NA
ATOM      4  C   UNL     1      32.345 -10.163 -22.311  0.00  0.00    +0.144 C 
ATOM      5  C   UNL     1      33.362 -12.675 -22.250  0.00  0.00    +0.061 C 
ATOM      6  C   UNL     1      32.433 -12.235 -21.329  0.00  0.00    +0.123 C 
ATOM      7  C   UNL     1      33.739 -11.752 -23.205  0.00  0.00    +0.113 C 
ATOM      8  C   UNL     1      31.943 -13.140 -20.245  0.00  0.00    +0.067 C 
ATOM      9  H   UNL     1      31.164  -8.628 -21.656  0.00  0.00    +0.159 HD
ENDROOT
BRANCH   5  12
ATOM     10  N   UNL     1      34.547 -14.520 -21.142  0.00  0.00    -0.314 N 
ATOM     11  N   UNL     1      33.894 -14.861 -23.239  0.00  0.00    -0.315 N 
ATOM     12  C   UNL     1      33.917 -14.002 -22.241  0.00  0.00    +0.171 C 
ATOM     13  C   UNL     1      34.958 -15.791 -21.451  0.00  0.00    +0.059 C 
ATOM     14  C   UNL     1      34.538 -15.981 -22.765  0.00  0.00    +0.055 C 
ATOM     15  C   UNL     1      34.805 -17.206 -23.400  0.00  0.00    -0.008 C 
ATOM     16  C   UNL     1      35.639 -16.763 -20.716  0.00  0.00    +0.011 C 
ATOM     17  C   UNL     1      35.897 -17.976 -21.363  0.00  0.00    -0.021 C 
ATOM     18  C   UNL     1      35.489 -18.196 -22.680  0.00  0.00    -0.007 C 
ATOM     19  C   UNL     1      34.390 -17.489 -24.806  0.00  0.00    +0.032 C 
ATOM     20  C   UNL     1      36.622 -19.056 -20.629  0.00  0.00    +0.031 C 
ATOM     21  H   UNL     1      34.682 -14.061 -20.282  0.00  0.00    +0.149 HD
ATOM     22  H   UNL     1      33.502 -14.730 -24.133  0.00  0.00    +0.149 HD
ENDBRANCH   5  12
BRANCH   1  23
ATOM     23  C   UNL     1      32.194  -7.887 -23.324  0.00  0.00    +0.098 C 
BRANCH  23  24
ATOM     24  C   UNL     1      33.315  -6.996 -22.798  0.00  0.00    +0.022 C 
BRANCH  24  25
ATOM     25  C   UNL     1      32.865  -5.549 -22.594  0.00  0.00    +0.002 C 
BRANCH  25  27
ATOM     26  N   UNL     1      33.411  -4.392 -26.720  0.00  0.00    +0.385 N 
ATOM     27  C   UNL     1      33.199  -4.690 -23.812  0.00  0.00    -0.004 C 
ATOM     28  C   UNL     1      31.972  -4.511 -24.712  0.00  0.00    -0.023 C 
ATOM     29  C   UNL     1      34.348  -5.302 -24.619  0.00  0.00    -0.023 C 
ATOM     30  C   UNL     1      32.322  -3.737 -25.983  0.00  0.00    -0.077 C 
ATOM     31  C   UNL     1      34.620  -4.500 -25.893  0.00  0.00    -0.077 C 
ATOM     32  C   UNL     1      33.700  -3.670 -27.958  0.00  0.00    -0.101 C 
ATOM     33  H   UNL     1      33.106  -5.337 -26.957  0.00  0.00    -0.080 HD
ENDBRANCH  25  27
ENDBRANCH  24  25
ENDBRANCH  23  24
ENDBRANCH   1  23
TORSDOF 5
ENDMDL
MODEL 9
REMARK VINA RESULT:     -10.4      2.350     11.523
REMARK  Name = 23650961
REMARK  5 active torsions:
REMARK  status: ('A' for Active; 'I' for Inactive)
REMARK    1  A    between atoms: N_1  and  C_23
REMARK    2  A    between atoms: C_5  and  C_12
REMARK    3  A    between atoms: C_23  and  C_24
REMARK    4  A    between atoms: C_24  and  C_25
REMARK    5  A    between atoms: C_25  and  C_27
REMARK                            x       y       z     vdW  Elec       q    Type
REMARK                         _______ _______ _______ _____ _____    ______ ____
ROOT
ATOM      1  N   UNL     1      35.323 -19.441 -21.788  0.00  0.00    -0.268 N 
ATOM      2  N   UNL     1      35.480 -20.748 -19.846  0.00  0.00    -0.342 NA
ATOM      3  N   UNL     1      33.336 -20.062 -20.705  0.00  0.00    -0.170 NA
ATOM      4  C   UNL     1      34.693 -20.105 -20.747  0.00  0.00    +0.144 C 
ATOM      5  C   UNL     1      33.461 -21.403 -18.709  0.00  0.00    +0.061 C 
ATOM      6  C   UNL     1      34.835 -21.383 -18.846  0.00  0.00    +0.123 C 
ATOM      7  C   UNL     1      32.756 -20.718 -19.679  0.00  0.00    +0.113 C 
ATOM      8  C   UNL     1      35.711 -22.087 -17.861  0.00  0.00    +0.067 C 
ATOM      9  H   UNL     1      36.306 -19.466 -21.827  0.00  0.00    +0.159 HD
ENDROOT
BRANCH   5  12
ATOM     10  N   UNL     1      33.461 -22.759 -16.661  0.00  0.00    -0.314 N 
ATOM     11  N   UNL     1      31.480 -22.143 -17.458  0.00  0.00    -0.315 N 
ATOM     12  C   UNL     1      32.783 -22.082 -17.639  0.00  0.00    +0.171 C 
ATOM     13  C   UNL     1      32.537 -23.290 -15.797  0.00  0.00    +0.059 C 
ATOM     14  C   UNL     1      31.309 -22.891 -16.316  0.00  0.00    +0.055 C 
ATOM     15  C   UNL     1      30.129 -23.275 -15.656  0.00  0.00    -0.008 C 
ATOM     16  C   UNL     1      32.667 -24.061 -14.640  0.00  0.00    +0.011 C 
ATOM     17  C   UNL     1      31.483 -24.434 -13.997  0.00  0.00    -0.021 C 
ATOM     18  C   UNL     1      30.236 -24.050 -14.493  0.00  0.00    -0.007 C 
ATOM     19  C   UNL     1      28.772 -22.889 -16.147  0.00  0.00    +0.032 C 
ATOM     20  C   UNL     1      31.556 -25.259 -12.753  0.00  0.00    +0.031 C 
ATOM     21  H   UNL     1      34.438 -22.849 -16.590  0.00  0.00    +0.149 HD
ATOM     22  H   UNL     1      30.779 -21.740 -18.020  0.00  0.00    +0.149 HD
ENDBRANCH   5  12
BRANCH   1  23
ATOM     23  C   UNL     1      34.619 -18.716 -22.818  0.00  0.00    +0.098 C 
BRANCH  23  24
ATOM     24  C   UNL     1      35.422 -17.498 -23.268  0.00  0.00    +0.022 C 
BRANCH  24  25
ATOM     25  C   UNL     1      35.018 -16.225 -22.524  0.00  0.00    +0.002 C 
BRANCH  25  27
ATOM     26  N   UNL     1      32.812 -13.616 -25.166  0.00  0.00    +0.385 N 
ATOM     27  C   UNL     1      34.720 -15.087 -23.497  0.00  0.00    -0.004 C 
ATOM     28  C   UNL     1      33.693 -14.115 -22.909  0.00  0.00    -0.023 C 
ATOM     29  C   UNL     1      34.213 -15.627 -24.838  0.00  0.00    -0.023 C 
ATOM     30  C   UNL     1      33.313 -13.028 -23.916  0.00  0.00    -0.077 C 
ATOM     31  C   UNL     1      33.818 -14.490 -25.782  0.00  0.00    -0.077 C 
ATOM     32  C   UNL     1      32.405 -12.565 -26.099  0.00  0.00    -0.101 C 
ATOM     33  H   UNL     1      31.995 -14.185 -24.940  0.00  0.00    -0.080 HD
ENDBRANCH  25  27
ENDBRANCH  24  25
ENDBRANCH  23  24
ENDBRANCH   1  23
TORSDOF 5
ENDMDL
