MODEL 1
REMARK VINA RESULT:     -11.8      0.000      0.000
REMARK  Name = 16040289
REMARK  6 active torsions:
REMARK  status: ('A' for Active; 'I' for Inactive)
REMARK    1  A    between atoms: N_2  and  C_20
REMARK    2  A    between atoms: C_3  and  C_6
REMARK    3  A    between atoms: N_11  and  C_13
REMARK    4  A    between atoms: C_13  and  C_15
REMARK    5  A    between atoms: C_23  and  O_26
REMARK    6  A    between atoms: O_26  and  C_27
REMARK                            x       y       z     vdW  Elec       q    Type
REMARK                         _______ _______ _______ _____ _____    ______ ____
ROOT
ATOM      1  O   UNL     1      33.812 -23.806 -18.347  0.00  0.00    -0.270 OA
ATOM      2  N   UNL     1      33.395 -21.519 -17.996  0.00  0.00    -0.280 N 
ATOM      3  C   UNL     1      33.392 -22.879 -17.662  0.00  0.00    +0.252 C 
ATOM      4  H   UNL     1      33.015 -20.909 -17.323  0.00  0.00    +0.155 HD
ENDROOT
BRANCH   3   6
ATOM      5  N   UNL     1      33.021 -23.635 -14.005  0.00  0.00    -0.229 NA
ATOM      6  C   UNL     1      32.786 -23.212 -16.347  0.00  0.00    +0.085 C 
ATOM      7  C   UNL     1      33.546 -23.333 -15.214  0.00  0.00    +0.133 C 
ATOM      8  C   UNL     1      31.424 -23.399 -16.286  0.00  0.00    +0.009 C 
ATOM      9  C   UNL     1      30.846 -23.711 -15.060  0.00  0.00    +0.021 C 
ATOM     10  C   UNL     1      31.682 -23.817 -13.959  0.00  0.00    +0.100 C 
ATOM     11  N   UNL     1      34.947 -23.135 -15.294  0.00  0.00    -0.314 N 
ATOM     12  H   UNL     1      35.343 -22.913 -16.168  0.00  0.00    +0.149 HD
BRANCH  11  13
ATOM     13  C   UNL     1      35.806 -23.244 -14.160  0.00  0.00    +0.115 C 
BRANCH  13  15
ATOM     14  N   UNL     1      38.134 -26.835 -14.380  0.00  0.00    -0.242 NA
ATOM     15  C   UNL     1      36.622 -24.505 -14.237  0.00  0.00    +0.000 C 
ATOM     16  C   UNL     1      36.023 -25.686 -14.637  0.00  0.00    +0.018 C 
ATOM     17  C   UNL     1      37.967 -24.470 -13.908  0.00  0.00    +0.018 C 
ATOM     18  C   UNL     1      36.818 -26.819 -14.691  0.00  0.00    +0.099 C 
ATOM     19  C   UNL     1      38.676 -25.658 -13.997  0.00  0.00    +0.099 C 
ENDBRANCH  13  15
ENDBRANCH  11  13
ENDBRANCH   3   6
BRANCH   2  20
ATOM     20  C   UNL     1      33.871 -20.922 -19.164  0.00  0.00    +0.051 C 
ATOM     21  C   UNL     1      35.242 -20.874 -19.414  0.00  0.00    +0.018 C 
ATOM     22  C   UNL     1      32.974 -20.372 -20.080  0.00  0.00    +0.018 C 
ATOM     23  C   UNL     1      34.821 -19.726 -21.499  0.00  0.00    +0.145 C 
ATOM     24  C   UNL     1      35.717 -20.276 -20.583  0.00  0.00    +0.039 C 
ATOM     25  C   UNL     1      33.449 -19.775 -21.248  0.00  0.00    +0.039 C 
BRANCH  23  26
ATOM     26  O   UNL     1      35.284 -19.142 -22.637  0.00  0.00    -0.453 OA
BRANCH  26  27
ATOM     27  C   UNL     1      35.022 -17.795 -22.822  0.00  0.00    +0.145 C 
ATOM     28  C   UNL     1      34.446 -17.377 -24.009  0.00  0.00    +0.037 C 
ATOM     29  C   UNL     1      35.344 -16.901 -21.816  0.00  0.00    +0.037 C 
ATOM     30  C   UNL     1      34.183 -16.020 -24.195  0.00  0.00    +0.003 C 
ATOM     31  C   UNL     1      35.082 -15.544 -22.003  0.00  0.00    +0.003 C 
ATOM     32  C   UNL     1      34.501 -15.104 -23.192  0.00  0.00    +0.000 C 
ENDBRANCH  26  27
ENDBRANCH  23  26
ENDBRANCH   2  20
TORSDOF 6
ENDMDL
MODEL 2
REMARK VINA RESULT:     -11.8      1.152      1.237
REMARK  Name = 16040289
REMARK  6 active torsions:
REMARK  status: ('A' for Active; 'I' for Inactive)
REMARK    1  A    between atoms: N_2  and  C_20
REMARK    2  A    between atoms: C_3  and  C_6
REMARK    3  A    between atoms: N_11  and  C_13
REMARK    4  A    between atoms: C_13  and  C_15
REMARK    5  A    between atoms: C_23  and  O_26
REMARK    6  A    between atoms: O_26  and  C_27
REMARK                            x       y       z     vdW  Elec       q    Type
REMARK                         _______ _______ _______ _____ _____    ______ ____
ROOT
ATOM      1  O   UNL     1      34.115 -23.759 -16.974  0.00  0.00    -0.270 OA
ATOM      2  N   UNL     1      32.682 -21.992 -17.567  0.00  0.00    -0.280 N 
ATOM      3  C   UNL     1      33.090 -23.104 -16.819  0.00  0.00    +0.252 C 
ATOM      4  H   UNL     1      31.824 -21.586 -17.303  0.00  0.00    +0.155 HD
ENDROOT
BRANCH   3   6
ATOM      5  N   UNL     1      31.765 -24.245 -13.498  0.00  0.00    -0.229 NA
ATOM      6  C   UNL     1      32.153 -23.530 -15.747  0.00  0.00    +0.085 C 
ATOM      7  C   UNL     1      32.594 -23.853 -14.491  0.00  0.00    +0.133 C 
ATOM      8  C   UNL     1      30.811 -23.596 -16.044  0.00  0.00    +0.009 C 
ATOM      9  C   UNL     1      29.925 -23.995 -15.048  0.00  0.00    +0.021 C 
ATOM     10  C   UNL     1      30.449 -24.306 -13.803  0.00  0.00    +0.100 C 
ATOM     11  N   UNL     1      33.980 -23.778 -14.202  0.00  0.00    -0.314 N 
ATOM     12  H   UNL     1      34.596 -23.493 -14.915  0.00  0.00    +0.149 HD
BRANCH  11  13
ATOM     13  C   UNL     1      34.517 -24.098 -12.920  0.00  0.00    +0.115 C 
BRANCH  13  15
ATOM     14  N   UNL     1      38.089 -26.430 -13.328  0.00  0.00    -0.242 NA
ATOM     15  C   UNL     1      35.771 -24.917 -13.064  0.00  0.00    +0.000 C 
ATOM     16  C   UNL     1      36.148 -25.380 -14.312  0.00  0.00    +0.018 C 
ATOM     17  C   UNL     1      36.535 -25.200 -11.945  0.00  0.00    +0.018 C 
ATOM     18  C   UNL     1      37.310 -26.129 -14.391  0.00  0.00    +0.099 C 
ATOM     19  C   UNL     1      37.681 -25.957 -12.130  0.00  0.00    +0.099 C 
ENDBRANCH  13  15
ENDBRANCH  11  13
ENDBRANCH   3   6
BRANCH   2  20
ATOM     20  C   UNL     1      33.339 -21.390 -18.640  0.00  0.00    +0.051 C 
ATOM     21  C   UNL     1      34.716 -21.551 -18.794  0.00  0.00    +0.018 C 
ATOM     22  C   UNL     1      32.618 -20.626 -19.558  0.00  0.00    +0.018 C 
ATOM     23  C   UNL     1      34.653 -20.184 -20.786  0.00  0.00    +0.145 C 
ATOM     24  C   UNL     1      35.372 -20.948 -19.868  0.00  0.00    +0.039 C 
ATOM     25  C   UNL     1      33.276 -20.024 -20.632  0.00  0.00    +0.039 C 
BRANCH  23  26
ATOM     26  O   UNL     1      35.293 -19.595 -21.832  0.00  0.00    -0.453 OA
BRANCH  26  27
ATOM     27  C   UNL     1      35.171 -18.223 -21.971  0.00  0.00    +0.145 C 
ATOM     28  C   UNL     1      34.899 -17.694 -23.221  0.00  0.00    +0.037 C 
ATOM     29  C   UNL     1      35.325 -17.415 -20.859  0.00  0.00    +0.037 C 
ATOM     30  C   UNL     1      34.777 -16.312 -23.362  0.00  0.00    +0.003 C 
ATOM     31  C   UNL     1      35.203 -16.033 -20.999  0.00  0.00    +0.003 C 
ATOM     32  C   UNL     1      34.929 -15.482 -22.251  0.00  0.00    +0.000 C 
ENDBRANCH  26  27
ENDBRANCH  23  26
ENDBRANCH   2  20
TORSDOF 6
ENDMDL
MODEL 3
REMARK VINA RESULT:     -11.1      1.843      4.887
REMARK  Name = 16040289
REMARK  6 active torsions:
REMARK  status: ('A' for Active; 'I' for Inactive)
REMARK    1  A    between atoms: N_2  and  C_20
REMARK    2  A    between atoms: C_3  and  C_6
REMARK    3  A    between atoms: N_11  and  C_13
REMARK    4  A    between atoms: C_13  and  C_15
REMARK    5  A    between atoms: C_23  and  O_26
REMARK    6  A    between atoms: O_26  and  C_27
REMARK                            x       y       z     vdW  Elec       q    Type
REMARK                         _______ _______ _______ _____ _____    ______ ____
ROOT
ATOM      1  O   UNL     1      33.611 -24.012 -17.156  0.00  0.00    -0.270 OA
ATOM      2  N   UNL     1      35.057 -22.187 -16.832  0.00  0.00    -0.280 N 
ATOM      3  C   UNL     1      34.346 -23.331 -16.449  0.00  0.00    +0.252 C 
ATOM      4  H   UNL     1      35.602 -21.763 -16.130  0.00  0.00    +0.155 HD
ENDROOT
BRANCH   3   6
ATOM      5  N   UNL     1      33.530 -24.107 -12.868  0.00  0.00    -0.229 NA
ATOM      6  C   UNL     1      34.494 -23.726 -15.024  0.00  0.00    +0.085 C 
ATOM      7  C   UNL     1      33.424 -23.753 -14.169  0.00  0.00    +0.133 C 
ATOM      8  C   UNL     1      35.747 -24.070 -14.570  0.00  0.00    +0.009 C 
ATOM      9  C   UNL     1      35.896 -24.441 -13.238  0.00  0.00    +0.021 C 
ATOM     10  C   UNL     1      34.766 -24.442 -12.435  0.00  0.00    +0.100 C 
ATOM     11  N   UNL     1      32.140 -23.397 -14.654  0.00  0.00    -0.314 N 
ATOM     12  H   UNL     1      32.048 -23.138 -15.599  0.00  0.00    +0.149 HD
BRANCH  11  13
ATOM     13  C   UNL     1      30.978 -23.399 -13.827  0.00  0.00    +0.115 C 
BRANCH  13  15
ATOM     14  N   UNL     1      27.431 -23.282 -16.230  0.00  0.00    -0.242 NA
ATOM     15  C   UNL     1      29.733 -23.358 -14.670  0.00  0.00    +0.000 C 
ATOM     16  C   UNL     1      28.895 -22.258 -14.602  0.00  0.00    +0.018 C 
ATOM     17  C   UNL     1      29.437 -24.421 -15.506  0.00  0.00    +0.018 C 
ATOM     18  C   UNL     1      27.762 -22.269 -15.398  0.00  0.00    +0.099 C 
ATOM     19  C   UNL     1      28.279 -24.334 -16.263  0.00  0.00    +0.099 C 
ENDBRANCH  13  15
ENDBRANCH  11  13
ENDBRANCH   3   6
BRANCH   2  20
ATOM     20  C   UNL     1      35.089 -21.575 -18.085  0.00  0.00    +0.051 C 
ATOM     21  C   UNL     1      33.899 -21.316 -18.765  0.00  0.00    +0.018 C 
ATOM     22  C   UNL     1      36.311 -21.222 -18.657  0.00  0.00    +0.018 C 
ATOM     23  C   UNL     1      35.153 -20.350 -20.591  0.00  0.00    +0.145 C 
ATOM     24  C   UNL     1      33.932 -20.702 -20.019  0.00  0.00    +0.039 C 
ATOM     25  C   UNL     1      36.343 -20.609 -19.911  0.00  0.00    +0.039 C 
BRANCH  23  26
ATOM     26  O   UNL     1      35.185 -19.754 -21.814  0.00  0.00    -0.453 OA
BRANCH  26  27
ATOM     27  C   UNL     1      35.134 -18.371 -21.858  0.00  0.00    +0.145 C 
ATOM     28  C   UNL     1      35.200 -17.656 -20.675  0.00  0.00    +0.037 C 
ATOM     29  C   UNL     1      35.017 -17.740 -23.083  0.00  0.00    +0.037 C 
ATOM     30  C   UNL     1      35.147 -16.263 -20.720  0.00  0.00    +0.003 C 
ATOM     31  C   UNL     1      34.964 -16.346 -23.128  0.00  0.00    +0.003 C 
ATOM     32  C   UNL     1      35.029 -15.609 -21.946  0.00  0.00    +0.000 C 
ENDBRANCH  26  27
ENDBRANCH  23  26
ENDBRANCH   2  20
TORSDOF 6
ENDMDL
MODEL 4
REMARK VINA RESULT:     -10.7      1.772      4.349
REMARK  Name = 16040289
REMARK  6 active torsions:
REMARK  status: ('A' for Active; 'I' for Inactive)
REMARK    1  A    between atoms: N_2  and  C_20
REMARK    2  A    between atoms: C_3  and  C_6
REMARK    3  A    between atoms: N_11  and  C_13
REMARK    4  A    between atoms: C_13  and  C_15
REMARK    5  A    between atoms: C_23  and  O_26
REMARK    6  A    between atoms: O_26  and  C_27
REMARK                            x       y       z     vdW  Elec       q    Type
REMARK                         _______ _______ _______ _____ _____    ______ ____
ROOT
ATOM      1  O   UNL     1      36.984 -21.385 -15.721  0.00  0.00    -0.270 OA
ATOM      2  N   UNL     1      35.414 -22.856 -16.669  0.00  0.00    -0.280 N 
ATOM      3  C   UNL     1      36.373 -22.449 -15.733  0.00  0.00    +0.252 C 
ATOM      4  H   UNL     1      35.023 -23.749 -16.524  0.00  0.00    +0.155 HD
ENDROOT
BRANCH   3   6
ATOM      5  N   UNL     1      35.991 -24.752 -12.794  0.00  0.00    -0.229 NA
ATOM      6  C   UNL     1      36.685 -23.436 -14.667  0.00  0.00    +0.085 C 
ATOM      7  C   UNL     1      35.735 -23.856 -13.773  0.00  0.00    +0.133 C 
ATOM      8  C   UNL     1      37.967 -23.931 -14.593  0.00  0.00    +0.009 C 
ATOM      9  C   UNL     1      38.269 -24.855 -13.598  0.00  0.00    +0.021 C 
ATOM     10  C   UNL     1      37.255 -25.229 -12.731  0.00  0.00    +0.100 C 
ATOM     11  N   UNL     1      34.419 -23.337 -13.866  0.00  0.00    -0.314 N 
ATOM     12  H   UNL     1      34.218 -22.684 -14.575  0.00  0.00    +0.149 HD
BRANCH  11  13
ATOM     13  C   UNL     1      33.376 -23.723 -12.973  0.00  0.00    +0.115 C 
BRANCH  13  15
ATOM     14  N   UNL     1      29.751 -24.463 -15.137  0.00  0.00    -0.242 NA
ATOM     15  C   UNL     1      32.103 -23.984 -13.732  0.00  0.00    +0.000 C 
ATOM     16  C   UNL     1      31.288 -25.038 -13.362  0.00  0.00    +0.018 C 
ATOM     17  C   UNL     1      31.761 -23.165 -14.795  0.00  0.00    +0.018 C 
ATOM     18  C   UNL     1      30.128 -25.235 -14.092  0.00  0.00    +0.099 C 
ATOM     19  C   UNL     1      30.579 -23.445 -15.461  0.00  0.00    +0.099 C 
ENDBRANCH  13  15
ENDBRANCH  11  13
ENDBRANCH   3   6
BRANCH   2  20
ATOM     20  C   UNL     1      34.945 -22.156 -17.780  0.00  0.00    +0.051 C 
ATOM     21  C   UNL     1      35.848 -21.580 -18.674  0.00  0.00    +0.018 C 
ATOM     22  C   UNL     1      33.573 -22.031 -17.996  0.00  0.00    +0.018 C 
ATOM     23  C   UNL     1      34.006 -20.754 -20.002  0.00  0.00    +0.145 C 
ATOM     24  C   UNL     1      35.378 -20.879 -19.786  0.00  0.00    +0.039 C 
ATOM     25  C   UNL     1      33.103 -21.330 -19.108  0.00  0.00    +0.039 C 
BRANCH  23  26
ATOM     26  O   UNL     1      33.548 -20.069 -21.085  0.00  0.00    -0.453 OA
BRANCH  26  27
ATOM     27  C   UNL     1      34.278 -18.972 -21.509  0.00  0.00    +0.145 C 
ATOM     28  C   UNL     1      34.521 -18.807 -22.862  0.00  0.00    +0.037 C 
ATOM     29  C   UNL     1      34.746 -18.070 -20.571  0.00  0.00    +0.037 C 
ATOM     30  C   UNL     1      35.258 -17.702 -23.289  0.00  0.00    +0.003 C 
ATOM     31  C   UNL     1      35.483 -16.965 -20.999  0.00  0.00    +0.003 C 
ATOM     32  C   UNL     1      35.739 -16.782 -22.358  0.00  0.00    +0.000 C 
ENDBRANCH  26  27
ENDBRANCH  23  26
ENDBRANCH   2  20
TORSDOF 6
ENDMDL
MODEL 5
REMARK VINA RESULT:     -10.7      3.493     10.416
REMARK  Name = 16040289
REMARK  6 active torsions:
REMARK  status: ('A' for Active; 'I' for Inactive)
REMARK    1  A    between atoms: N_2  and  C_20
REMARK    2  A    between atoms: C_3  and  C_6
REMARK    3  A    between atoms: N_11  and  C_13
REMARK    4  A    between atoms: C_13  and  C_15
REMARK    5  A    between atoms: C_23  and  O_26
REMARK    6  A    between atoms: O_26  and  C_27
REMARK                            x       y       z     vdW  Elec       q    Type
REMARK                         _______ _______ _______ _____ _____    ______ ____
ROOT
ATOM      1  O   UNL     1      35.681 -18.032 -20.328  0.00  0.00    -0.270 OA
ATOM      2  N   UNL     1      34.297 -19.808 -21.005  0.00  0.00    -0.280 N 
ATOM      3  C   UNL     1      34.953 -18.579 -21.150  0.00  0.00    +0.252 C 
ATOM      4  H   UNL     1      33.749 -20.097 -21.771  0.00  0.00    +0.155 HD
ENDROOT
BRANCH   3   6
ATOM      5  N   UNL     1      34.583 -15.839 -23.688  0.00  0.00    -0.229 NA
ATOM      6  C   UNL     1      34.704 -17.871 -22.433  0.00  0.00    +0.085 C 
ATOM      7  C   UNL     1      34.805 -16.508 -22.535  0.00  0.00    +0.133 C 
ATOM      8  C   UNL     1      34.364 -18.621 -23.535  0.00  0.00    +0.009 C 
ATOM      9  C   UNL     1      34.128 -17.967 -24.740  0.00  0.00    +0.021 C 
ATOM     10  C   UNL     1      34.250 -16.587 -24.763  0.00  0.00    +0.100 C 
ATOM     11  N   UNL     1      35.158 -15.752 -21.389  0.00  0.00    -0.314 N 
ATOM     12  H   UNL     1      35.324 -16.227 -20.542  0.00  0.00    +0.149 HD
BRANCH  11  13
ATOM     13  C   UNL     1      35.283 -14.331 -21.414  0.00  0.00    +0.115 C 
BRANCH  13  15
ATOM     14  N   UNL     1      31.456 -12.476 -20.884  0.00  0.00    -0.242 NA
ATOM     15  C   UNL     1      33.940 -13.681 -21.228  0.00  0.00    +0.000 C 
ATOM     16  C   UNL     1      33.153 -14.030 -20.144  0.00  0.00    +0.018 C 
ATOM     17  C   UNL     1      33.503 -12.738 -22.143  0.00  0.00    +0.018 C 
ATOM     18  C   UNL     1      31.926 -13.402 -20.017  0.00  0.00    +0.099 C 
ATOM     19  C   UNL     1      32.259 -12.167 -21.926  0.00  0.00    +0.099 C 
ENDBRANCH  13  15
ENDBRANCH  11  13
ENDBRANCH   3   6
BRANCH   2  20
ATOM     20  C   UNL     1      34.323 -20.673 -19.911  0.00  0.00    +0.051 C 
ATOM     21  C   UNL     1      35.544 -21.076 -19.370  0.00  0.00    +0.018 C 
ATOM     22  C   UNL     1      33.128 -21.135 -19.359  0.00  0.00    +0.018 C 
ATOM     23  C   UNL     1      34.376 -22.403 -17.723  0.00  0.00    +0.145 C 
ATOM     24  C   UNL     1      35.570 -21.941 -18.275  0.00  0.00    +0.039 C 
ATOM     25  C   UNL     1      33.155 -22.000 -18.264  0.00  0.00    +0.039 C 
BRANCH  23  26
ATOM     26  O   UNL     1      34.401 -23.248 -16.657  0.00  0.00    -0.453 OA
BRANCH  26  27
ATOM     27  C   UNL     1      33.325 -23.219 -15.786  0.00  0.00    +0.145 C 
ATOM     28  C   UNL     1      33.563 -23.173 -14.423  0.00  0.00    +0.037 C 
ATOM     29  C   UNL     1      32.041 -23.235 -16.299  0.00  0.00    +0.037 C 
ATOM     30  C   UNL     1      32.479 -23.144 -13.545  0.00  0.00    +0.003 C 
ATOM     31  C   UNL     1      30.957 -23.206 -15.421  0.00  0.00    +0.003 C 
ATOM     32  C   UNL     1      31.177 -23.161 -14.044  0.00  0.00    +0.000 C 
ENDBRANCH  26  27
ENDBRANCH  23  26
ENDBRANCH   2  20
TORSDOF 6
ENDMDL
MODEL 6
REMARK VINA RESULT:     -10.2      5.551     12.600
REMARK  Name = 16040289
REMARK  6 active torsions:
REMARK  status: ('A' for Active; 'I' for Inactive)
REMARK    1  A    between atoms: N_2  and  C_20
REMARK    2  A    between atoms: C_3  and  C_6
REMARK    3  A    between atoms: N_11  and  C_13
REMARK    4  A    between atoms: C_13  and  C_15
REMARK    5  A    between atoms: C_23  and  O_26
REMARK    6  A    between atoms: O_26  and  C_27
REMARK                            x       y       z     vdW  Elec       q    Type
REMARK                         _______ _______ _______ _____ _____    ______ ____
ROOT
ATOM      1  O   UNL     1      33.492 -14.077 -22.190  0.00  0.00    -0.270 OA
ATOM      2  N   UNL     1      34.469 -15.582 -23.709  0.00  0.00    -0.280 N 
ATOM      3  C   UNL     1      33.817 -14.403 -23.327  0.00  0.00    +0.252 C 
ATOM      4  H   UNL     1      34.654 -15.680 -24.671  0.00  0.00    +0.155 HD
ENDROOT
BRANCH   3   6
ATOM      5  N   UNL     1      33.429 -11.272 -25.360  0.00  0.00    -0.229 NA
ATOM      6  C   UNL     1      33.470 -13.478 -24.437  0.00  0.00    +0.085 C 
ATOM      7  C   UNL     1      33.736 -12.136 -24.367  0.00  0.00    +0.133 C 
ATOM      8  C   UNL     1      32.866 -14.002 -25.557  0.00  0.00    +0.009 C 
ATOM      9  C   UNL     1      32.536 -13.146 -26.601  0.00  0.00    +0.021 C 
ATOM     10  C   UNL     1      32.836 -11.800 -26.455  0.00  0.00    +0.100 C 
ATOM     11  N   UNL     1      34.359 -11.613 -23.206  0.00  0.00    -0.314 N 
ATOM     12  H   UNL     1      34.589 -12.230 -22.474  0.00  0.00    +0.149 HD
BRANCH  11  13
ATOM     13  C   UNL     1      34.668 -10.228 -23.057  0.00  0.00    +0.115 C 
BRANCH  13  15
ATOM     14  N   UNL     1      31.118  -7.980 -22.214  0.00  0.00    -0.242 NA
ATOM     15  C   UNL     1      33.421  -9.440 -22.761  0.00  0.00    +0.000 C 
ATOM     16  C   UNL     1      32.423 -10.001 -21.985  0.00  0.00    +0.018 C 
ATOM     17  C   UNL     1      33.286  -8.159 -23.269  0.00  0.00    +0.018 C 
ATOM     18  C   UNL     1      31.296  -9.234 -21.741  0.00  0.00    +0.099 C 
ATOM     19  C   UNL     1      32.120  -7.473 -22.967  0.00  0.00    +0.099 C 
ENDBRANCH  13  15
ENDBRANCH  11  13
ENDBRANCH   3   6
BRANCH   2  20
ATOM     20  C   UNL     1      34.890 -16.634 -22.895  0.00  0.00    +0.051 C 
ATOM     21  C   UNL     1      35.339 -16.378 -21.599  0.00  0.00    +0.018 C 
ATOM     22  C   UNL     1      34.861 -17.943 -23.378  0.00  0.00    +0.018 C 
ATOM     23  C   UNL     1      35.731 -18.739 -21.268  0.00  0.00    +0.145 C 
ATOM     24  C   UNL     1      35.759 -17.431 -20.786  0.00  0.00    +0.039 C 
ATOM     25  C   UNL     1      35.281 -18.995 -22.563  0.00  0.00    +0.039 C 
BRANCH  23  26
ATOM     26  O   UNL     1      36.142 -19.765 -20.475  0.00  0.00    -0.453 OA
BRANCH  26  27
ATOM     27  C   UNL     1      35.172 -20.496 -19.811  0.00  0.00    +0.145 C 
ATOM     28  C   UNL     1      33.838 -20.200 -20.031  0.00  0.00    +0.037 C 
ATOM     29  C   UNL     1      35.559 -21.501 -18.944  0.00  0.00    +0.037 C 
ATOM     30  C   UNL     1      32.859 -20.935 -19.361  0.00  0.00    +0.003 C 
ATOM     31  C   UNL     1      34.581 -22.236 -18.274  0.00  0.00    +0.003 C 
ATOM     32  C   UNL     1      33.232 -21.953 -18.483  0.00  0.00    +0.000 C 
ENDBRANCH  26  27
ENDBRANCH  23  26
ENDBRANCH   2  20
TORSDOF 6
ENDMDL
MODEL 7
REMARK VINA RESULT:     -10.1      5.818     12.326
REMARK  Name = 16040289
REMARK  6 active torsions:
REMARK  status: ('A' for Active; 'I' for Inactive)
REMARK    1  A    between atoms: N_2  and  C_20
REMARK    2  A    between atoms: C_3  and  C_6
REMARK    3  A    between atoms: N_11  and  C_13
REMARK    4  A    between atoms: C_13  and  C_15
REMARK    5  A    between atoms: C_23  and  O_26
REMARK    6  A    between atoms: O_26  and  C_27
REMARK                            x       y       z     vdW  Elec       q    Type
REMARK                         _______ _______ _______ _____ _____    ______ ____
ROOT
ATOM      1  O   UNL     1      32.966 -13.899 -21.202  0.00  0.00    -0.270 OA
ATOM      2  N   UNL     1      34.704 -14.553 -22.645  0.00  0.00    -0.280 N 
ATOM      3  C   UNL     1      33.726 -13.685 -22.141  0.00  0.00    +0.252 C 
ATOM      4  H   UNL     1      35.227 -14.215 -23.408  0.00  0.00    +0.155 HD
ENDROOT
BRANCH   3   6
ATOM      5  N   UNL     1      32.541 -10.255 -23.099  0.00  0.00    -0.229 NA
ATOM      6  C   UNL     1      33.598 -12.386 -22.851  0.00  0.00    +0.085 C 
ATOM      7  C   UNL     1      32.680 -11.444 -22.470  0.00  0.00    +0.133 C 
ATOM      8  C   UNL     1      34.433 -12.143 -23.918  0.00  0.00    +0.009 C 
ATOM      9  C   UNL     1      34.321 -10.930 -24.590  0.00  0.00    +0.021 C 
ATOM     10  C   UNL     1      33.367 -10.028 -24.145  0.00  0.00    +0.100 C 
ATOM     11  N   UNL     1      31.829 -11.711 -21.369  0.00  0.00    -0.314 N 
ATOM     12  H   UNL     1      31.919 -12.573 -20.900  0.00  0.00    +0.149 HD
BRANCH  11  13
ATOM     13  C   UNL     1      30.848 -10.782 -20.912  0.00  0.00    +0.115 C 
BRANCH  13  15
ATOM     14  N   UNL     1      32.731  -7.294 -19.284  0.00  0.00    -0.242 NA
ATOM     15  C   UNL     1      31.509  -9.558 -20.339  0.00  0.00    +0.000 C 
ATOM     16  C   UNL     1      32.239  -9.657 -19.168  0.00  0.00    +0.018 C 
ATOM     17  C   UNL     1      31.380  -8.343 -20.992  0.00  0.00    +0.018 C 
ATOM     18  C   UNL     1      32.827  -8.502 -18.683  0.00  0.00    +0.099 C 
ATOM     19  C   UNL     1      32.009  -7.246 -20.425  0.00  0.00    +0.099 C 
ENDBRANCH  13  15
ENDBRANCH  11  13
ENDBRANCH   3   6
BRANCH   2  20
ATOM     20  C   UNL     1      35.028 -15.834 -22.200  0.00  0.00    +0.051 C 
ATOM     21  C   UNL     1      35.200 -16.077 -20.837  0.00  0.00    +0.018 C 
ATOM     22  C   UNL     1      35.181 -16.873 -23.118  0.00  0.00    +0.018 C 
ATOM     23  C   UNL     1      35.677 -18.398 -21.310  0.00  0.00    +0.145 C 
ATOM     24  C   UNL     1      35.524 -17.359 -20.392  0.00  0.00    +0.039 C 
ATOM     25  C   UNL     1      35.505 -18.155 -22.673  0.00  0.00    +0.039 C 
BRANCH  23  26
ATOM     26  O   UNL     1      35.995 -19.648 -20.877  0.00  0.00    -0.453 OA
BRANCH  26  27
ATOM     27  C   UNL     1      35.049 -20.331 -20.132  0.00  0.00    +0.145 C 
ATOM     28  C   UNL     1      33.709 -20.044 -20.318  0.00  0.00    +0.037 C 
ATOM     29  C   UNL     1      35.468 -21.283 -19.220  0.00  0.00    +0.037 C 
ATOM     30  C   UNL     1      32.756 -20.732 -19.567  0.00  0.00    +0.003 C 
ATOM     31  C   UNL     1      34.515 -21.972 -18.469  0.00  0.00    +0.003 C 
ATOM     32  C   UNL     1      33.159 -21.695 -18.643  0.00  0.00    +0.000 C 
ENDBRANCH  26  27
ENDBRANCH  23  26
ENDBRANCH   2  20
TORSDOF 6
ENDMDL
MODEL 8
REMARK VINA RESULT:     -10.1      6.025     12.062
REMARK  Name = 16040289
REMARK  6 active torsions:
REMARK  status: ('A' for Active; 'I' for Inactive)
REMARK    1  A    between atoms: N_2  and  C_20
REMARK    2  A    between atoms: C_3  and  C_6
REMARK    3  A    between atoms: N_11  and  C_13
REMARK    4  A    between atoms: C_13  and  C_15
REMARK    5  A    between atoms: C_23  and  O_26
REMARK    6  A    between atoms: O_26  and  C_27
REMARK                            x       y       z     vdW  Elec       q    Type
REMARK                         _______ _______ _______ _____ _____    ______ ____
ROOT
ATOM      1  O   UNL     1      31.663 -13.697 -20.080  0.00  0.00    -0.270 OA
ATOM      2  N   UNL     1      33.798 -13.235 -20.948  0.00  0.00    -0.280 N 
ATOM      3  C   UNL     1      32.532 -12.912 -20.443  0.00  0.00    +0.252 C 
ATOM      4  H   UNL     1      34.372 -12.472 -21.192  0.00  0.00    +0.155 HD
ENDROOT
BRANCH   3   6
ATOM      5  N   UNL     1      32.223  -9.291 -21.384  0.00  0.00    -0.229 NA
ATOM      6  C   UNL     1      32.225 -11.459 -20.374  0.00  0.00    +0.085 C 
ATOM      7  C   UNL     1      32.491 -10.616 -21.420  0.00  0.00    +0.133 C 
ATOM      8  C   UNL     1      31.658 -10.968 -19.221  0.00  0.00    +0.009 C 
ATOM      9  C   UNL     1      31.366  -9.610 -19.145  0.00  0.00    +0.021 C 
ATOM     10  C   UNL     1      31.666  -8.821 -20.245  0.00  0.00    +0.100 C 
ATOM     11  N   UNL     1      33.075 -11.139 -22.601  0.00  0.00    -0.314 N 
ATOM     12  H   UNL     1      33.275 -12.102 -22.642  0.00  0.00    +0.149 HD
BRANCH  11  13
ATOM     13  C   UNL     1      33.383 -10.326 -23.732  0.00  0.00    +0.115 C 
BRANCH  13  15
ATOM     14  N   UNL     1      34.573 -12.762 -27.052  0.00  0.00    -0.242 NA
ATOM     15  C   UNL     1      33.800 -11.182 -24.897  0.00  0.00    +0.000 C 
ATOM     16  C   UNL     1      33.083 -12.326 -25.200  0.00  0.00    +0.018 C 
ATOM     17  C   UNL     1      34.899 -10.815 -25.656  0.00  0.00    +0.018 C 
ATOM     18  C   UNL     1      33.508 -13.078 -26.282  0.00  0.00    +0.099 C 
ATOM     19  C   UNL     1      35.243 -11.636 -26.719  0.00  0.00    +0.099 C 
ENDBRANCH  13  15
ENDBRANCH  11  13
ENDBRANCH   3   6
BRANCH   2  20
ATOM     20  C   UNL     1      34.346 -14.501 -21.149  0.00  0.00    +0.051 C 
ATOM     21  C   UNL     1      34.696 -15.291 -20.054  0.00  0.00    +0.018 C 
ATOM     22  C   UNL     1      34.544 -14.978 -22.445  0.00  0.00    +0.018 C 
ATOM     23  C   UNL     1      35.442 -17.036 -21.551  0.00  0.00    +0.145 C 
ATOM     24  C   UNL     1      35.244 -16.559 -20.255  0.00  0.00    +0.039 C 
ATOM     25  C   UNL     1      35.092 -16.246 -22.646  0.00  0.00    +0.039 C 
BRANCH  23  26
ATOM     26  O   UNL     1      35.979 -18.271 -21.747  0.00  0.00    -0.453 OA
BRANCH  26  27
ATOM     27  C   UNL     1      35.606 -19.280 -20.876  0.00  0.00    +0.145 C 
ATOM     28  C   UNL     1      36.577 -19.902 -20.111  0.00  0.00    +0.037 C 
ATOM     29  C   UNL     1      34.274 -19.642 -20.793  0.00  0.00    +0.037 C 
ATOM     30  C   UNL     1      36.202 -20.921 -19.234  0.00  0.00    +0.003 C 
ATOM     31  C   UNL     1      33.899 -20.661 -19.917  0.00  0.00    +0.003 C 
ATOM     32  C   UNL     1      34.863 -21.299 -19.138  0.00  0.00    +0.000 C 
ENDBRANCH  26  27
ENDBRANCH  23  26
ENDBRANCH   2  20
TORSDOF 6
ENDMDL
MODEL 9
REMARK VINA RESULT:     -10.1      3.396     10.397
REMARK  Name = 16040289
REMARK  6 active torsions:
REMARK  status: ('A' for Active; 'I' for Inactive)
REMARK    1  A    between atoms: N_2  and  C_20
REMARK    2  A    between atoms: C_3  and  C_6
REMARK    3  A    between atoms: N_11  and  C_13
REMARK    4  A    between atoms: C_13  and  C_15
REMARK    5  A    between atoms: C_23  and  O_26
REMARK    6  A    between atoms: O_26  and  C_27
REMARK                            x       y       z     vdW  Elec       q    Type
REMARK                         _______ _______ _______ _____ _____    ______ ____
ROOT
ATOM      1  O   UNL     1      35.592 -17.930 -20.360  0.00  0.00    -0.270 OA
ATOM      2  N   UNL     1      34.216 -19.670 -21.138  0.00  0.00    -0.280 N 
ATOM      3  C   UNL     1      34.892 -18.446 -21.225  0.00  0.00    +0.252 C 
ATOM      4  H   UNL     1      33.697 -19.933 -21.933  0.00  0.00    +0.155 HD
ENDROOT
BRANCH   3   6
ATOM      5  N   UNL     1      34.650 -15.637 -23.702  0.00  0.00    -0.229 NA
ATOM      6  C   UNL     1      34.705 -17.703 -22.498  0.00  0.00    +0.085 C 
ATOM      7  C   UNL     1      34.817 -16.339 -22.558  0.00  0.00    +0.133 C 
ATOM      8  C   UNL     1      34.411 -18.421 -23.634  0.00  0.00    +0.009 C 
ATOM      9  C   UNL     1      34.232 -17.735 -24.830  0.00  0.00    +0.021 C 
ATOM     10  C   UNL     1      34.361 -16.354 -24.811  0.00  0.00    +0.100 C 
ATOM     11  N   UNL     1      35.121 -15.615 -21.378  0.00  0.00    -0.314 N 
ATOM     12  H   UNL     1      35.246 -16.113 -20.538  0.00  0.00    +0.149 HD
BRANCH  11  13
ATOM     13  C   UNL     1      35.254 -14.195 -21.359  0.00  0.00    +0.115 C 
BRANCH  13  15
ATOM     14  N   UNL     1      31.417 -12.332 -20.937  0.00  0.00    -0.242 NA
ATOM     15  C   UNL     1      33.907 -13.542 -21.211  0.00  0.00    +0.000 C 
ATOM     16  C   UNL     1      33.085 -13.897 -20.155  0.00  0.00    +0.018 C 
ATOM     17  C   UNL     1      33.503 -12.591 -22.132  0.00  0.00    +0.018 C 
ATOM     18  C   UNL     1      31.856 -13.267 -20.063  0.00  0.00    +0.099 C 
ATOM     19  C   UNL     1      32.254 -12.018 -21.951  0.00  0.00    +0.099 C 
ENDBRANCH  13  15
ENDBRANCH  11  13
ENDBRANCH   3   6
BRANCH   2  20
ATOM     20  C   UNL     1      34.188 -20.563 -20.067  0.00  0.00    +0.051 C 
ATOM     21  C   UNL     1      35.371 -21.147 -19.614  0.00  0.00    +0.018 C 
ATOM     22  C   UNL     1      32.976 -20.871 -19.449  0.00  0.00    +0.018 C 
ATOM     23  C   UNL     1      34.130 -22.348 -17.924  0.00  0.00    +0.145 C 
ATOM     24  C   UNL     1      35.342 -22.040 -18.542  0.00  0.00    +0.039 C 
ATOM     25  C   UNL     1      32.948 -21.764 -18.377  0.00  0.00    +0.039 C 
BRANCH  23  26
ATOM     26  O   UNL     1      34.101 -23.220 -16.880  0.00  0.00    -0.453 OA
BRANCH  26  27
ATOM     27  C   UNL     1      35.037 -23.052 -15.873  0.00  0.00    +0.145 C 
ATOM     28  C   UNL     1      36.225 -22.401 -16.160  0.00  0.00    +0.037 C 
ATOM     29  C   UNL     1      34.762 -23.538 -14.608  0.00  0.00    +0.037 C 
ATOM     30  C   UNL     1      37.168 -22.232 -15.146  0.00  0.00    +0.003 C 
ATOM     31  C   UNL     1      35.706 -23.369 -13.594  0.00  0.00    +0.003 C 
ATOM     32  C   UNL     1      36.908 -22.716 -13.864  0.00  0.00    +0.000 C 
ENDBRANCH  26  27
ENDBRANCH  23  26
ENDBRANCH   2  20
TORSDOF 6
ENDMDL
