MODEL 1
REMARK VINA RESULT:     -12.1      0.000      0.000
REMARK  Name = 24941243
REMARK  5 active torsions:
REMARK  status: ('A' for Active; 'I' for Inactive)
REMARK    1  A    between atoms: N_1  and  C_14
REMARK    2  A    between atoms: N_2  and  C_22
REMARK    3  A    between atoms: C_25  and  O_28
REMARK    4  A    between atoms: C_26  and  O_30
REMARK    5  A    between atoms: C_27  and  O_32
REMARK                            x       y       z     vdW  Elec       q    Type
REMARK                         _______ _______ _______ _____ _____    ______ ____
ROOT
ATOM      1  N   UNL     1      36.181 -18.550 -21.593  0.00  0.00    -0.260 N 
ATOM      2  N   UNL     1      36.628 -21.258 -17.742  0.00  0.00    -0.247 N 
ATOM      3  N   UNL     1      36.428 -19.909 -19.651  0.00  0.00    -0.322 NA
ATOM      4  N   UNL     1      34.535 -21.135 -18.798  0.00  0.00    -0.170 NA
ATOM      5  C   UNL     1      35.631 -19.435 -20.631  0.00  0.00    +0.201 C 
ATOM      6  C   UNL     1      37.642 -18.501 -21.720  0.00  0.00    +0.120 C 
ATOM      7  C   UNL     1      34.296 -19.760 -20.760  0.00  0.00    +0.070 C 
ATOM      8  C   UNL     1      35.824 -20.741 -18.782  0.00  0.00    +0.150 C 
ATOM      9  C   UNL     1      33.797 -20.623 -19.805  0.00  0.00    +0.116 C 
ATOM     10  H   UNL     1      37.561 -20.944 -17.770  0.00  0.00    +0.165 HD
ENDROOT
BRANCH   1  14
ATOM     11  N   UNL     1      33.142 -15.396 -25.358  0.00  0.00    -0.280 N 
ATOM     12  N   UNL     1      33.571 -16.671 -25.295  0.00  0.00    -0.173 NA
ATOM     13  C   UNL     1      34.195 -15.465 -23.476  0.00  0.00    +0.032 A 
ATOM     14  C   UNL     1      35.484 -17.524 -22.284  0.00  0.00    +0.055 C 
ATOM     15  C   UNL     1      34.234 -16.751 -24.129  0.00  0.00    +0.103 A 
ATOM     16  C   UNL     1      33.491 -14.623 -24.289  0.00  0.00    +0.053 A 
ATOM     17  C   UNL     1      34.898 -17.838 -23.529  0.00  0.00    +0.036 C 
ATOM     18  C   UNL     1      34.761 -15.124 -22.253  0.00  0.00    +0.004 C 
ATOM     19  C   UNL     1      35.417 -16.230 -21.677  0.00  0.00    +0.015 C 
ATOM     20  C   UNL     1      33.107 -13.205 -24.193  0.00  0.00    +0.051 C 
ATOM     21  H   UNL     1      32.618 -15.048 -26.116  0.00  0.00    +0.189 HD
ENDBRANCH   1  14
BRANCH   2  22
ATOM     22  C   UNL     1      36.357 -22.134 -16.674  0.00  0.00    +0.064 C 
ATOM     23  C   UNL     1      35.064 -22.616 -16.480  0.00  0.00    +0.055 C 
ATOM     24  C   UNL     1      37.384 -22.521 -15.812  0.00  0.00    +0.055 C 
ATOM     25  C   UNL     1      37.115 -23.392 -14.756  0.00  0.00    +0.177 C 
ATOM     26  C   UNL     1      34.796 -23.487 -15.423  0.00  0.00    +0.177 C 
ATOM     27  C   UNL     1      35.822 -23.875 -14.561  0.00  0.00    +0.206 C 
BRANCH  25  28
ATOM     28  O   UNL     1      38.126 -23.763 -13.921  0.00  0.00    -0.468 OA
ATOM     29  C   UNL     1      38.901 -24.896 -14.306  0.00  0.00    +0.253 C 
ENDBRANCH  25  28
BRANCH  26  30
ATOM     30  O   UNL     1      33.527 -23.950 -15.244  0.00  0.00    -0.468 OA
ATOM     31  C   UNL     1      32.477 -23.227 -15.880  0.00  0.00    +0.253 C 
ENDBRANCH  26  30
BRANCH  27  32
ATOM     32  O   UNL     1      35.559 -24.724 -13.528  0.00  0.00    -0.465 OA
ATOM     33  C   UNL     1      35.187 -24.135 -12.284  0.00  0.00    +0.253 C 
ENDBRANCH  27  32
ENDBRANCH   2  22
TORSDOF 5
ENDMDL
MODEL 2
REMARK VINA RESULT:     -12.1      0.084      2.288
REMARK  Name = 24941243
REMARK  5 active torsions:
REMARK  status: ('A' for Active; 'I' for Inactive)
REMARK    1  A    between atoms: N_1  and  C_14
REMARK    2  A    between atoms: N_2  and  C_22
REMARK    3  A    between atoms: C_25  and  O_28
REMARK    4  A    between atoms: C_26  and  O_30
REMARK    5  A    between atoms: C_27  and  O_32
REMARK                            x       y       z     vdW  Elec       q    Type
REMARK                         _______ _______ _______ _____ _____    ______ ____
ROOT
ATOM      1  N   UNL     1      36.147 -18.516 -21.631  0.00  0.00    -0.260 N 
ATOM      2  N   UNL     1      36.597 -21.258 -17.804  0.00  0.00    -0.247 N 
ATOM      3  N   UNL     1      36.395 -19.892 -19.701  0.00  0.00    -0.322 NA
ATOM      4  N   UNL     1      34.492 -21.087 -18.829  0.00  0.00    -0.170 NA
ATOM      5  C   UNL     1      35.593 -19.396 -20.667  0.00  0.00    +0.201 C 
ATOM      6  C   UNL     1      37.607 -18.494 -21.780  0.00  0.00    +0.120 C 
ATOM      7  C   UNL     1      34.251 -19.695 -20.778  0.00  0.00    +0.070 C 
ATOM      8  C   UNL     1      35.788 -20.719 -18.829  0.00  0.00    +0.150 C 
ATOM      9  C   UNL     1      33.749 -20.554 -19.822  0.00  0.00    +0.116 C 
ATOM     10  H   UNL     1      37.535 -20.962 -17.844  0.00  0.00    +0.165 HD
ENDROOT
BRANCH   1  14
ATOM     11  N   UNL     1      33.178 -15.259 -25.365  0.00  0.00    -0.280 N 
ATOM     12  N   UNL     1      33.614 -16.534 -25.333  0.00  0.00    -0.173 NA
ATOM     13  C   UNL     1      34.187 -15.383 -23.461  0.00  0.00    +0.032 A 
ATOM     14  C   UNL     1      35.460 -17.472 -22.305  0.00  0.00    +0.055 C 
ATOM     15  C   UNL     1      34.250 -16.648 -24.154  0.00  0.00    +0.103 A 
ATOM     16  C   UNL     1      33.497 -14.520 -24.263  0.00  0.00    +0.053 A 
ATOM     17  C   UNL     1      34.905 -17.749 -23.574  0.00  0.00    +0.036 C 
ATOM     18  C   UNL     1      34.721 -15.079 -22.214  0.00  0.00    +0.004 C 
ATOM     19  C   UNL     1      35.370 -16.199 -21.659  0.00  0.00    +0.015 C 
ATOM     20  C   UNL     1      33.102 -13.107 -24.131  0.00  0.00    +0.051 C 
ATOM     21  H   UNL     1      32.671 -14.890 -26.124  0.00  0.00    +0.189 HD
ENDBRANCH   1  14
BRANCH   2  22
ATOM     22  C   UNL     1      36.325 -22.135 -16.739  0.00  0.00    +0.064 C 
ATOM     23  C   UNL     1      37.346 -22.512 -15.868  0.00  0.00    +0.055 C 
ATOM     24  C   UNL     1      35.032 -22.627 -16.552  0.00  0.00    +0.055 C 
ATOM     25  C   UNL     1      34.762 -23.493 -15.493  0.00  0.00    +0.177 C 
ATOM     26  C   UNL     1      37.076 -23.380 -14.809  0.00  0.00    +0.177 C 
ATOM     27  C   UNL     1      35.783 -23.870 -14.622  0.00  0.00    +0.206 C 
BRANCH  25  28
ATOM     28  O   UNL     1      33.495 -23.965 -15.321  0.00  0.00    -0.468 OA
ATOM     29  C   UNL     1      32.440 -23.226 -15.932  0.00  0.00    +0.253 C 
ENDBRANCH  25  28
BRANCH  26  30
ATOM     30  O   UNL     1      38.084 -23.740 -13.965  0.00  0.00    -0.468 OA
ATOM     31  C   UNL     1      38.825 -24.910 -14.304  0.00  0.00    +0.253 C 
ENDBRANCH  26  30
BRANCH  27  32
ATOM     32  O   UNL     1      35.519 -24.719 -13.588  0.00  0.00    -0.465 OA
ATOM     33  C   UNL     1      35.129 -24.130 -12.350  0.00  0.00    +0.253 C 
ENDBRANCH  27  32
ENDBRANCH   2  22
TORSDOF 5
ENDMDL
MODEL 3
REMARK VINA RESULT:     -11.4      5.826     11.395
REMARK  Name = 24941243
REMARK  5 active torsions:
REMARK  status: ('A' for Active; 'I' for Inactive)
REMARK    1  A    between atoms: N_1  and  C_14
REMARK    2  A    between atoms: N_2  and  C_22
REMARK    3  A    between atoms: C_25  and  O_28
REMARK    4  A    between atoms: C_26  and  O_30
REMARK    5  A    between atoms: C_27  and  O_32
REMARK                            x       y       z     vdW  Elec       q    Type
REMARK                         _______ _______ _______ _____ _____    ______ ____
ROOT
ATOM      1  N   UNL     1      35.017 -18.115 -21.765  0.00  0.00    -0.260 N 
ATOM      2  N   UNL     1      33.911 -13.719 -23.109  0.00  0.00    -0.247 N 
ATOM      3  N   UNL     1      34.455 -15.908 -22.463  0.00  0.00    -0.322 NA
ATOM      4  N   UNL     1      34.565 -14.088 -20.885  0.00  0.00    -0.170 NA
ATOM      5  C   UNL     1      34.859 -16.736 -21.477  0.00  0.00    +0.201 C 
ATOM      6  C   UNL     1      35.123 -18.513 -23.172  0.00  0.00    +0.120 C 
ATOM      7  C   UNL     1      35.131 -16.321 -20.189  0.00  0.00    +0.070 C 
ATOM      8  C   UNL     1      34.331 -14.616 -22.103  0.00  0.00    +0.150 C 
ATOM      9  C   UNL     1      34.965 -14.973 -19.949  0.00  0.00    +0.116 C 
ATOM     10  H   UNL     1      33.752 -14.149 -23.981  0.00  0.00    +0.165 HD
ENDROOT
BRANCH   1  14
ATOM     11  N   UNL     1      35.710 -22.371 -17.921  0.00  0.00    -0.280 N 
ATOM     12  N   UNL     1      36.523 -21.504 -18.555  0.00  0.00    -0.173 NA
ATOM     13  C   UNL     1      34.347 -21.226 -19.141  0.00  0.00    +0.032 A 
ATOM     14  C   UNL     1      34.843 -19.188 -20.850  0.00  0.00    +0.055 C 
ATOM     15  C   UNL     1      35.704 -20.770 -19.327  0.00  0.00    +0.103 A 
ATOM     16  C   UNL     1      34.389 -22.250 -18.237  0.00  0.00    +0.053 A 
ATOM     17  C   UNL     1      35.987 -19.711 -20.210  0.00  0.00    +0.036 C 
ATOM     18  C   UNL     1      33.202 -20.733 -19.754  0.00  0.00    +0.004 C 
ATOM     19  C   UNL     1      33.516 -19.676 -20.630  0.00  0.00    +0.015 C 
ATOM     20  C   UNL     1      33.360 -23.118 -17.640  0.00  0.00    +0.051 C 
ATOM     21  H   UNL     1      36.044 -23.041 -17.281  0.00  0.00    +0.189 HD
ENDBRANCH   1  14
BRANCH   2  22
ATOM     22  C   UNL     1      33.675 -12.332 -23.111  0.00  0.00    +0.064 C 
ATOM     23  C   UNL     1      32.662 -11.796 -22.316  0.00  0.00    +0.055 C 
ATOM     24  C   UNL     1      34.456 -11.492 -23.905  0.00  0.00    +0.055 C 
ATOM     25  C   UNL     1      34.224 -10.117 -23.904  0.00  0.00    +0.177 C 
ATOM     26  C   UNL     1      32.429 -10.421 -22.316  0.00  0.00    +0.177 C 
ATOM     27  C   UNL     1      33.211  -9.581 -23.109  0.00  0.00    +0.206 C 
BRANCH  25  28
ATOM     28  O   UNL     1      34.994  -9.307 -24.684  0.00  0.00    -0.468 OA
ATOM     29  C   UNL     1      35.798  -9.939 -25.677  0.00  0.00    +0.253 C 
ENDBRANCH  25  28
BRANCH  26  30
ATOM     30  O   UNL     1      31.436  -9.911 -21.535  0.00  0.00    -0.468 OA
ATOM     31  C   UNL     1      30.793 -10.810 -20.635  0.00  0.00    +0.253 C 
ENDBRANCH  26  30
BRANCH  27  32
ATOM     32  O   UNL     1      32.983  -8.237 -23.109  0.00  0.00    -0.465 OA
ATOM     33  C   UNL     1      33.665  -7.464 -22.124  0.00  0.00    +0.253 C 
ENDBRANCH  27  32
ENDBRANCH   2  22
TORSDOF 5
ENDMDL
MODEL 4
REMARK VINA RESULT:     -11.4      5.875     11.545
REMARK  Name = 24941243
REMARK  5 active torsions:
REMARK  status: ('A' for Active; 'I' for Inactive)
REMARK    1  A    between atoms: N_1  and  C_14
REMARK    2  A    between atoms: N_2  and  C_22
REMARK    3  A    between atoms: C_25  and  O_28
REMARK    4  A    between atoms: C_26  and  O_30
REMARK    5  A    between atoms: C_27  and  O_32
REMARK                            x       y       z     vdW  Elec       q    Type
REMARK                         _______ _______ _______ _____ _____    ______ ____
ROOT
ATOM      1  N   UNL     1      35.010 -18.023 -21.837  0.00  0.00    -0.260 N 
ATOM      2  N   UNL     1      33.878 -13.623 -23.148  0.00  0.00    -0.247 N 
ATOM      3  N   UNL     1      34.435 -15.814 -22.518  0.00  0.00    -0.322 NA
ATOM      4  N   UNL     1      34.548 -14.003 -20.931  0.00  0.00    -0.170 NA
ATOM      5  C   UNL     1      34.848 -16.646 -21.540  0.00  0.00    +0.201 C 
ATOM      6  C   UNL     1      35.108 -18.413 -23.248  0.00  0.00    +0.120 C 
ATOM      7  C   UNL     1      35.127 -16.238 -20.252  0.00  0.00    +0.070 C 
ATOM      8  C   UNL     1      34.308 -14.525 -22.150  0.00  0.00    +0.150 C 
ATOM      9  C   UNL     1      34.958 -14.892 -20.002  0.00  0.00    +0.116 C 
ATOM     10  H   UNL     1      33.714 -14.049 -24.022  0.00  0.00    +0.165 HD
ENDROOT
BRANCH   1  14
ATOM     11  N   UNL     1      35.746 -22.303 -18.027  0.00  0.00    -0.280 N 
ATOM     12  N   UNL     1      36.552 -21.430 -18.663  0.00  0.00    -0.173 NA
ATOM     13  C   UNL     1      34.369 -21.151 -19.226  0.00  0.00    +0.032 A 
ATOM     14  C   UNL     1      34.846 -19.102 -20.927  0.00  0.00    +0.055 C 
ATOM     15  C   UNL     1      35.724 -20.692 -19.423  0.00  0.00    +0.103 A 
ATOM     16  C   UNL     1      34.421 -22.181 -18.330  0.00  0.00    +0.053 A 
ATOM     17  C   UNL     1      35.997 -19.628 -20.301  0.00  0.00    +0.036 C 
ATOM     18  C   UNL     1      33.217 -20.656 -19.825  0.00  0.00    +0.004 C 
ATOM     19  C   UNL     1      33.522 -19.593 -20.697  0.00  0.00    +0.015 C 
ATOM     20  C   UNL     1      33.400 -23.054 -17.728  0.00  0.00    +0.051 C 
ATOM     21  H   UNL     1      36.087 -22.976 -17.395  0.00  0.00    +0.189 HD
ENDBRANCH   1  14
BRANCH   2  22
ATOM     22  C   UNL     1      33.636 -12.237 -23.140  0.00  0.00    +0.064 C 
ATOM     23  C   UNL     1      34.366 -11.398 -23.981  0.00  0.00    +0.055 C 
ATOM     24  C   UNL     1      32.665 -11.703 -22.293  0.00  0.00    +0.055 C 
ATOM     25  C   UNL     1      32.424 -10.330 -22.287  0.00  0.00    +0.177 C 
ATOM     26  C   UNL     1      34.125 -10.024 -23.974  0.00  0.00    +0.177 C 
ATOM     27  C   UNL     1      33.153  -9.490 -23.128  0.00  0.00    +0.206 C 
BRANCH  25  28
ATOM     28  O   UNL     1      31.472  -9.821 -21.455  0.00  0.00    -0.468 OA
ATOM     29  C   UNL     1      31.507 -10.246 -20.095  0.00  0.00    +0.253 C 
ENDBRANCH  25  28
BRANCH  26  30
ATOM     30  O   UNL     1      34.846  -9.214 -24.801  0.00  0.00    -0.468 OA
ATOM     31  C   UNL     1      35.838  -9.837 -25.613  0.00  0.00    +0.253 C 
ENDBRANCH  26  30
BRANCH  27  32
ATOM     32  O   UNL     1      32.919  -8.147 -23.121  0.00  0.00    -0.465 OA
ATOM     33  C   UNL     1      33.659  -7.365 -22.187  0.00  0.00    +0.253 C 
ENDBRANCH  27  32
ENDBRANCH   2  22
TORSDOF 5
ENDMDL
MODEL 5
REMARK VINA RESULT:     -10.4      1.584      2.090
REMARK  Name = 24941243
REMARK  5 active torsions:
REMARK  status: ('A' for Active; 'I' for Inactive)
REMARK    1  A    between atoms: N_1  and  C_14
REMARK    2  A    between atoms: N_2  and  C_22
REMARK    3  A    between atoms: C_25  and  O_28
REMARK    4  A    between atoms: C_26  and  O_30
REMARK    5  A    between atoms: C_27  and  O_32
REMARK                            x       y       z     vdW  Elec       q    Type
REMARK                         _______ _______ _______ _____ _____    ______ ____
ROOT
ATOM      1  N   UNL     1      35.636 -19.140 -21.025  0.00  0.00    -0.260 N 
ATOM      2  N   UNL     1      34.795 -21.990 -17.346  0.00  0.00    -0.247 N 
ATOM      3  N   UNL     1      35.233 -20.574 -19.165  0.00  0.00    -0.322 NA
ATOM      4  N   UNL     1      33.016 -21.435 -18.774  0.00  0.00    -0.170 NA
ATOM      5  C   UNL     1      34.750 -19.928 -20.247  0.00  0.00    +0.201 C 
ATOM      6  C   UNL     1      37.076 -19.370 -20.867  0.00  0.00    +0.120 C 
ATOM      7  C   UNL     1      33.432 -19.985 -20.650  0.00  0.00    +0.070 C 
ATOM      8  C   UNL     1      34.325 -21.299 -18.485  0.00  0.00    +0.150 C 
ATOM      9  C   UNL     1      32.602 -20.762 -19.868  0.00  0.00    +0.116 C 
ATOM     10  H   UNL     1      35.756 -21.861 -17.174  0.00  0.00    +0.165 HD
ENDROOT
BRANCH   1  14
ATOM     11  N   UNL     1      34.200 -15.332 -25.124  0.00  0.00    -0.280 N 
ATOM     12  N   UNL     1      34.439 -16.657 -25.082  0.00  0.00    -0.173 NA
ATOM     13  C   UNL     1      34.652 -15.680 -23.043  0.00  0.00    +0.032 A 
ATOM     14  C   UNL     1      35.293 -17.979 -21.768  0.00  0.00    +0.055 C 
ATOM     15  C   UNL     1      34.725 -16.911 -23.793  0.00  0.00    +0.103 A 
ATOM     16  C   UNL     1      34.315 -14.693 -23.924  0.00  0.00    +0.053 A 
ATOM     17  C   UNL     1      35.056 -18.120 -23.153  0.00  0.00    +0.036 C 
ATOM     18  C   UNL     1      34.878 -15.509 -21.682  0.00  0.00    +0.004 C 
ATOM     19  C   UNL     1      35.206 -16.734 -21.069  0.00  0.00    +0.015 C 
ATOM     20  C   UNL     1      34.090 -13.244 -23.787  0.00  0.00    +0.051 C 
ATOM     21  H   UNL     1      33.961 -14.861 -25.955  0.00  0.00    +0.189 HD
ENDBRANCH   1  14
BRANCH   2  22
ATOM     22  C   UNL     1      34.159 -22.826 -16.410  0.00  0.00    +0.064 C 
ATOM     23  C   UNL     1      32.790 -23.072 -16.512  0.00  0.00    +0.055 C 
ATOM     24  C   UNL     1      34.898 -23.412 -15.382  0.00  0.00    +0.055 C 
ATOM     25  C   UNL     1      34.268 -24.243 -14.457  0.00  0.00    +0.177 C 
ATOM     26  C   UNL     1      32.160 -23.903 -15.586  0.00  0.00    +0.177 C 
ATOM     27  C   UNL     1      32.899 -24.489 -14.558  0.00  0.00    +0.206 C 
BRANCH  25  28
ATOM     28  O   UNL     1      35.002 -24.809 -13.457  0.00  0.00    -0.468 OA
ATOM     29  C   UNL     1      35.339 -23.976 -12.350  0.00  0.00    +0.253 C 
ENDBRANCH  25  28
BRANCH  26  30
ATOM     30  O   UNL     1      30.821 -24.135 -15.697  0.00  0.00    -0.468 OA
ATOM     31  C   UNL     1      29.974 -22.994 -15.809  0.00  0.00    +0.253 C 
ENDBRANCH  26  30
BRANCH  27  32
ATOM     32  O   UNL     1      32.283 -25.301 -13.652  0.00  0.00    -0.465 OA
ATOM     33  C   UNL     1      31.372 -24.684 -12.745  0.00  0.00    +0.253 C 
ENDBRANCH  27  32
ENDBRANCH   2  22
TORSDOF 5
ENDMDL
MODEL 6
REMARK VINA RESULT:     -10.4      1.511      3.030
REMARK  Name = 24941243
REMARK  5 active torsions:
REMARK  status: ('A' for Active; 'I' for Inactive)
REMARK    1  A    between atoms: N_1  and  C_14
REMARK    2  A    between atoms: N_2  and  C_22
REMARK    3  A    between atoms: C_25  and  O_28
REMARK    4  A    between atoms: C_26  and  O_30
REMARK    5  A    between atoms: C_27  and  O_32
REMARK                            x       y       z     vdW  Elec       q    Type
REMARK                         _______ _______ _______ _____ _____    ______ ____
ROOT
ATOM      1  N   UNL     1      35.651 -19.109 -21.026  0.00  0.00    -0.260 N 
ATOM      2  N   UNL     1      34.811 -21.976 -17.360  0.00  0.00    -0.247 N 
ATOM      3  N   UNL     1      35.249 -20.552 -19.172  0.00  0.00    -0.322 NA
ATOM      4  N   UNL     1      33.034 -21.423 -18.790  0.00  0.00    -0.170 NA
ATOM      5  C   UNL     1      34.766 -19.904 -20.253  0.00  0.00    +0.201 C 
ATOM      6  C   UNL     1      37.092 -19.334 -20.864  0.00  0.00    +0.120 C 
ATOM      7  C   UNL     1      33.449 -19.965 -20.660  0.00  0.00    +0.070 C 
ATOM      8  C   UNL     1      34.342 -21.283 -18.498  0.00  0.00    +0.150 C 
ATOM      9  C   UNL     1      32.621 -20.748 -19.883  0.00  0.00    +0.116 C 
ATOM     10  H   UNL     1      35.771 -21.844 -17.185  0.00  0.00    +0.165 HD
ENDROOT
BRANCH   1  14
ATOM     11  N   UNL     1      34.201 -15.293 -25.112  0.00  0.00    -0.280 N 
ATOM     12  N   UNL     1      34.441 -16.618 -25.073  0.00  0.00    -0.173 NA
ATOM     13  C   UNL     1      34.660 -15.645 -23.033  0.00  0.00    +0.032 A 
ATOM     14  C   UNL     1      35.305 -17.947 -21.765  0.00  0.00    +0.055 C 
ATOM     15  C   UNL     1      34.731 -16.874 -23.786  0.00  0.00    +0.103 A 
ATOM     16  C   UNL     1      34.319 -14.656 -23.911  0.00  0.00    +0.053 A 
ATOM     17  C   UNL     1      35.064 -18.084 -23.150  0.00  0.00    +0.036 C 
ATOM     18  C   UNL     1      34.889 -15.477 -21.673  0.00  0.00    +0.004 C 
ATOM     19  C   UNL     1      35.220 -16.703 -21.063  0.00  0.00    +0.015 C 
ATOM     20  C   UNL     1      34.094 -13.208 -23.770  0.00  0.00    +0.051 C 
ATOM     21  H   UNL     1      33.960 -14.821 -25.942  0.00  0.00    +0.189 HD
ENDBRANCH   1  14
BRANCH   2  22
ATOM     22  C   UNL     1      34.176 -22.819 -16.429  0.00  0.00    +0.064 C 
ATOM     23  C   UNL     1      34.915 -23.405 -15.403  0.00  0.00    +0.055 C 
ATOM     24  C   UNL     1      32.807 -23.066 -16.532  0.00  0.00    +0.055 C 
ATOM     25  C   UNL     1      32.178 -23.898 -15.607  0.00  0.00    +0.177 C 
ATOM     26  C   UNL     1      34.285 -24.239 -14.478  0.00  0.00    +0.177 C 
ATOM     27  C   UNL     1      32.916 -24.485 -14.580  0.00  0.00    +0.206 C 
BRANCH  25  28
ATOM     28  O   UNL     1      30.839 -24.131 -15.718  0.00  0.00    -0.468 OA
ATOM     29  C   UNL     1      29.977 -22.997 -15.652  0.00  0.00    +0.253 C 
ENDBRANCH  25  28
BRANCH  26  30
ATOM     30  O   UNL     1      35.020 -24.806 -13.479  0.00  0.00    -0.468 OA
ATOM     31  C   UNL     1      36.343 -25.223 -13.806  0.00  0.00    +0.253 C 
ENDBRANCH  26  30
BRANCH  27  32
ATOM     32  O   UNL     1      32.301 -25.300 -13.677  0.00  0.00    -0.465 OA
ATOM     33  C   UNL     1      31.425 -24.681 -12.737  0.00  0.00    +0.253 C 
ENDBRANCH  27  32
ENDBRANCH   2  22
TORSDOF 5
ENDMDL
MODEL 7
REMARK VINA RESULT:     -10.1      4.215     10.555
REMARK  Name = 24941243
REMARK  5 active torsions:
REMARK  status: ('A' for Active; 'I' for Inactive)
REMARK    1  A    between atoms: N_1  and  C_14
REMARK    2  A    between atoms: N_2  and  C_22
REMARK    3  A    between atoms: C_25  and  O_28
REMARK    4  A    between atoms: C_26  and  O_30
REMARK    5  A    between atoms: C_27  and  O_32
REMARK                            x       y       z     vdW  Elec       q    Type
REMARK                         _______ _______ _______ _____ _____    ______ ____
ROOT
ATOM      1  N   UNL     1      34.482 -22.819 -16.871  0.00  0.00    -0.260 N 
ATOM      2  N   UNL     1      33.900 -19.893 -20.540  0.00  0.00    -0.247 N 
ATOM      3  N   UNL     1      34.167 -21.347 -18.718  0.00  0.00    -0.322 NA
ATOM      4  N   UNL     1      36.076 -20.314 -19.767  0.00  0.00    -0.170 NA
ATOM      5  C   UNL     1      35.015 -21.960 -17.866  0.00  0.00    +0.201 C 
ATOM      6  C   UNL     1      33.112 -23.310 -17.052  0.00  0.00    +0.120 C 
ATOM      7  C   UNL     1      36.385 -21.803 -17.900  0.00  0.00    +0.070 C 
ATOM      8  C   UNL     1      34.756 -20.551 -19.630  0.00  0.00    +0.150 C 
ATOM      9  C   UNL     1      36.864 -20.959 -18.882  0.00  0.00    +0.116 C 
ATOM     10  H   UNL     1      32.946 -20.095 -20.402  0.00  0.00    +0.165 HD
ENDROOT
BRANCH   1  14
ATOM     11  N   UNL     1      35.432 -24.163 -11.334  0.00  0.00    -0.280 N 
ATOM     12  N   UNL     1      34.360 -24.138 -12.149  0.00  0.00    -0.173 NA
ATOM     13  C   UNL     1      36.260 -23.493 -13.212  0.00  0.00    +0.032 A 
ATOM     14  C   UNL     1      35.043 -23.067 -15.590  0.00  0.00    +0.055 C 
ATOM     15  C   UNL     1      34.841 -23.724 -13.334  0.00  0.00    +0.103 A 
ATOM     16  C   UNL     1      36.603 -23.782 -11.922  0.00  0.00    +0.053 A 
ATOM     17  C   UNL     1      34.185 -23.511 -14.560  0.00  0.00    +0.036 C 
ATOM     18  C   UNL     1      37.131 -23.058 -14.203  0.00  0.00    +0.004 C 
ATOM     19  C   UNL     1      36.447 -22.853 -15.418  0.00  0.00    +0.015 C 
ATOM     20  C   UNL     1      37.874 -23.747 -11.178  0.00  0.00    +0.051 C 
ATOM     21  H   UNL     1      35.375 -24.433 -10.389  0.00  0.00    +0.189 HD
ENDBRANCH   1  14
BRANCH   2  22
ATOM     22  C   UNL     1      34.142 -19.005 -21.605  0.00  0.00    +0.064 C 
ATOM     23  C   UNL     1      33.724 -19.333 -22.894  0.00  0.00    +0.055 C 
ATOM     24  C   UNL     1      34.799 -17.797 -21.370  0.00  0.00    +0.055 C 
ATOM     25  C   UNL     1      35.036 -16.916 -22.425  0.00  0.00    +0.177 C 
ATOM     26  C   UNL     1      33.962 -18.452 -23.949  0.00  0.00    +0.177 C 
ATOM     27  C   UNL     1      34.618 -17.243 -23.714  0.00  0.00    +0.206 C 
BRANCH  25  28
ATOM     28  O   UNL     1      35.678 -15.739 -22.182  0.00  0.00    -0.468 OA
ATOM     29  C   UNL     1      34.903 -14.682 -21.622  0.00  0.00    +0.253 C 
ENDBRANCH  25  28
BRANCH  26  30
ATOM     30  O   UNL     1      33.549 -18.784 -25.204  0.00  0.00    -0.468 OA
ATOM     31  C   UNL     1      32.160 -19.052 -25.379  0.00  0.00    +0.253 C 
ENDBRANCH  26  30
BRANCH  27  32
ATOM     32  O   UNL     1      34.852 -16.383 -24.746  0.00  0.00    -0.465 OA
ATOM     33  C   UNL     1      33.795 -15.494 -25.100  0.00  0.00    +0.253 C 
ENDBRANCH  27  32
ENDBRANCH   2  22
TORSDOF 5
ENDMDL
MODEL 8
REMARK VINA RESULT:     -10.0      4.208     10.676
REMARK  Name = 24941243
REMARK  5 active torsions:
REMARK  status: ('A' for Active; 'I' for Inactive)
REMARK    1  A    between atoms: N_1  and  C_14
REMARK    2  A    between atoms: N_2  and  C_22
REMARK    3  A    between atoms: C_25  and  O_28
REMARK    4  A    between atoms: C_26  and  O_30
REMARK    5  A    between atoms: C_27  and  O_32
REMARK                            x       y       z     vdW  Elec       q    Type
REMARK                         _______ _______ _______ _____ _____    ______ ____
ROOT
ATOM      1  N   UNL     1      34.472 -22.827 -16.833  0.00  0.00    -0.260 N 
ATOM      2  N   UNL     1      33.896 -19.854 -20.465  0.00  0.00    -0.247 N 
ATOM      3  N   UNL     1      34.160 -21.331 -18.661  0.00  0.00    -0.322 NA
ATOM      4  N   UNL     1      36.075 -20.352 -19.749  0.00  0.00    -0.170 NA
ATOM      5  C   UNL     1      35.008 -21.978 -17.834  0.00  0.00    +0.201 C 
ATOM      6  C   UNL     1      33.082 -23.271 -16.983  0.00  0.00    +0.120 C 
ATOM      7  C   UNL     1      36.381 -21.865 -17.902  0.00  0.00    +0.070 C 
ATOM      8  C   UNL     1      34.752 -20.547 -19.581  0.00  0.00    +0.150 C 
ATOM      9  C   UNL     1      36.863 -21.030 -18.889  0.00  0.00    +0.116 C 
ATOM     10  H   UNL     1      32.940 -20.025 -20.305  0.00  0.00    +0.165 HD
ENDROOT
BRANCH   1  14
ATOM     11  N   UNL     1      35.522 -24.296 -11.346  0.00  0.00    -0.280 N 
ATOM     12  N   UNL     1      34.435 -24.255 -12.141  0.00  0.00    -0.173 NA
ATOM     13  C   UNL     1      36.315 -23.582 -13.222  0.00  0.00    +0.032 A 
ATOM     14  C   UNL     1      35.056 -23.104 -15.568  0.00  0.00    +0.055 C 
ATOM     15  C   UNL     1      34.894 -23.813 -13.325  0.00  0.00    +0.103 A 
ATOM     16  C   UNL     1      36.682 -23.900 -11.945  0.00  0.00    +0.053 A 
ATOM     17  C   UNL     1      34.216 -23.572 -14.534  0.00  0.00    +0.036 C 
ATOM     18  C   UNL     1      37.168 -23.123 -14.219  0.00  0.00    +0.004 C 
ATOM     19  C   UNL     1      36.463 -22.891 -15.416  0.00  0.00    +0.015 C 
ATOM     20  C   UNL     1      37.965 -23.881 -11.224  0.00  0.00    +0.051 C 
ATOM     21  H   UNL     1      35.482 -24.588 -10.407  0.00  0.00    +0.189 HD
ENDBRANCH   1  14
BRANCH   2  22
ATOM     22  C   UNL     1      34.141 -18.966 -21.529  0.00  0.00    +0.064 C 
ATOM     23  C   UNL     1      34.766 -17.743 -21.286  0.00  0.00    +0.055 C 
ATOM     24  C   UNL     1      33.762 -19.310 -22.827  0.00  0.00    +0.055 C 
ATOM     25  C   UNL     1      34.008 -18.432 -23.881  0.00  0.00    +0.177 C 
ATOM     26  C   UNL     1      35.011 -16.864 -22.342  0.00  0.00    +0.177 C 
ATOM     27  C   UNL     1      34.633 -17.209 -23.639  0.00  0.00    +0.206 C 
BRANCH  25  28
ATOM     28  O   UNL     1      33.633 -18.780 -25.144  0.00  0.00    -0.468 OA
ATOM     29  C   UNL     1      32.257 -19.094 -25.348  0.00  0.00    +0.253 C 
ENDBRANCH  25  28
BRANCH  26  30
ATOM     30  O   UNL     1      35.622 -15.672 -22.090  0.00  0.00    -0.468 OA
ATOM     31  C   UNL     1      34.825 -14.646 -21.504  0.00  0.00    +0.253 C 
ENDBRANCH  26  30
BRANCH  27  32
ATOM     32  O   UNL     1      34.872 -16.349 -24.670  0.00  0.00    -0.465 OA
ATOM     33  C   UNL     1      33.806 -15.482 -25.050  0.00  0.00    +0.253 C 
ENDBRANCH  27  32
ENDBRANCH   2  22
TORSDOF 5
ENDMDL
MODEL 9
REMARK VINA RESULT:      -9.7      8.625     14.594
REMARK  Name = 24941243
REMARK  5 active torsions:
REMARK  status: ('A' for Active; 'I' for Inactive)
REMARK    1  A    between atoms: N_1  and  C_14
REMARK    2  A    between atoms: N_2  and  C_22
REMARK    3  A    between atoms: C_25  and  O_28
REMARK    4  A    between atoms: C_26  and  O_30
REMARK    5  A    between atoms: C_27  and  O_32
REMARK                            x       y       z     vdW  Elec       q    Type
REMARK                         _______ _______ _______ _____ _____    ______ ____
ROOT
ATOM      1  N   UNL     1      32.824 -12.962 -21.525  0.00  0.00    -0.260 N 
ATOM      2  N   UNL     1      32.427  -8.280 -22.053  0.00  0.00    -0.247 N 
ATOM      3  N   UNL     1      32.616 -10.601 -21.770  0.00  0.00    -0.322 NA
ATOM      4  N   UNL     1      33.329  -9.542 -23.815  0.00  0.00    -0.170 NA
ATOM      5  C   UNL     1      32.992 -11.785 -22.298  0.00  0.00    +0.201 C 
ATOM      6  C   UNL     1      31.910 -12.905 -20.379  0.00  0.00    +0.120 C 
ATOM      7  C   UNL     1      33.536 -11.926 -23.558  0.00  0.00    +0.070 C 
ATOM      8  C   UNL     1      32.809  -9.537 -22.571  0.00  0.00    +0.150 C 
ATOM      9  C   UNL     1      33.682 -10.758 -24.278  0.00  0.00    +0.116 C 
ATOM     10  H   UNL     1      32.054  -8.325 -21.143  0.00  0.00    +0.165 HD
ENDROOT
BRANCH   1  14
ATOM     11  N   UNL     1      35.854 -17.595 -23.177  0.00  0.00    -0.280 N 
ATOM     12  N   UNL     1      35.122 -16.650 -23.799  0.00  0.00    -0.173 NA
ATOM     13  C   UNL     1      35.179 -16.348 -21.550  0.00  0.00    +0.032 A 
ATOM     14  C   UNL     1      33.630 -14.130 -21.591  0.00  0.00    +0.055 C 
ATOM     15  C   UNL     1      34.684 -15.851 -22.811  0.00  0.00    +0.103 A 
ATOM     16  C   UNL     1      35.921 -17.462 -21.821  0.00  0.00    +0.053 A 
ATOM     17  C   UNL     1      33.877 -14.700 -22.859  0.00  0.00    +0.036 C 
ATOM     18  C   UNL     1      34.956 -15.811 -20.287  0.00  0.00    +0.004 C 
ATOM     19  C   UNL     1      34.147 -14.661 -20.366  0.00  0.00    +0.015 C 
ATOM     20  C   UNL     1      36.677 -18.407 -20.981  0.00  0.00    +0.051 C 
ATOM     21  H   UNL     1      36.304 -18.324 -23.663  0.00  0.00    +0.189 HD
ENDBRANCH   1  14
BRANCH   2  22
ATOM     22  C   UNL     1      32.475  -6.977 -22.581  0.00  0.00    +0.064 C 
ATOM     23  C   UNL     1      33.596  -6.556 -23.296  0.00  0.00    +0.055 C 
ATOM     24  C   UNL     1      31.400  -6.107 -22.393  0.00  0.00    +0.055 C 
ATOM     25  C   UNL     1      31.447  -4.817 -22.920  0.00  0.00    +0.177 C 
ATOM     26  C   UNL     1      33.642  -5.264 -23.822  0.00  0.00    +0.177 C 
ATOM     27  C   UNL     1      32.568  -4.395 -23.635  0.00  0.00    +0.206 C 
BRANCH  25  28
ATOM     28  O   UNL     1      30.391  -3.977 -22.729  0.00  0.00    -0.468 OA
ATOM     29  C   UNL     1      30.432  -3.136 -21.579  0.00  0.00    +0.253 C 
ENDBRANCH  25  28
BRANCH  26  30
ATOM     30  O   UNL     1      34.744  -4.865 -24.519  0.00  0.00    -0.468 OA
ATOM     31  C   UNL     1      34.829  -5.267 -25.883  0.00  0.00    +0.253 C 
ENDBRANCH  26  30
BRANCH  27  32
ATOM     32  O   UNL     1      32.614  -3.133 -24.148  0.00  0.00    -0.465 OA
ATOM     33  C   UNL     1      31.997  -2.927 -25.417  0.00  0.00    +0.253 C 
ENDBRANCH  27  32
ENDBRANCH   2  22
TORSDOF 5
ENDMDL
