MODEL 1
REMARK VINA RESULT:     -12.6      0.000      0.000
REMARK  Name = 44472635
REMARK  7 active torsions:
REMARK  status: ('A' for Active; 'I' for Inactive)
REMARK    1  A    between atoms: C_1  and  C_21
REMARK    2  A    between atoms: C_4  and  N_8
REMARK    3  A    between atoms: C_9  and  C_14
REMARK    4  A    between atoms: C_21  and  C_24
REMARK    5  A    between atoms: C_23  and  C_29
REMARK    6  A    between atoms: C_29  and  C_30
REMARK    7  A    between atoms: C_29  and  O_36
REMARK                            x       y       z     vdW  Elec       q    Type
REMARK                         _______ _______ _______ _____ _____    ______ ____
ROOT
ATOM      1  C   UNL     1      35.344 -20.000 -20.355  0.00  0.00    -0.024 C 
ATOM      2  C   UNL     1      36.296 -20.695 -19.608  0.00  0.00    -0.003 C 
ATOM      3  C   UNL     1      33.985 -20.241 -20.149  0.00  0.00    -0.003 C 
ATOM      4  C   UNL     1      34.530 -21.868 -18.449  0.00  0.00    +0.050 C 
ATOM      5  C   UNL     1      35.889 -21.629 -18.655  0.00  0.00    +0.014 C 
ATOM      6  C   UNL     1      33.578 -21.174 -19.196  0.00  0.00    +0.014 C 
ENDROOT
BRANCH   4   8
ATOM      7  O   UNL     1      35.431 -22.279 -15.605  0.00  0.00    -0.273 OA
ATOM      8  N   UNL     1      34.117 -22.815 -17.482  0.00  0.00    -0.283 N 
ATOM      9  C   UNL     1      34.579 -22.950 -16.180  0.00  0.00    +0.245 C 
ATOM     10  H   UNL     1      33.421 -23.452 -17.766  0.00  0.00    +0.155 HD
BRANCH   9  14
ATOM     11  O   UNL     1      36.365 -25.658 -15.090  0.00  0.00    -0.269 OA
ATOM     12  N   UNL     1      34.632 -24.344 -14.263  0.00  0.00    -0.237 N 
ATOM     13  N   UNL     1      34.460 -23.841 -11.938  0.00  0.00    -0.233 NA
ATOM     14  C   UNL     1      33.887 -24.077 -15.475  0.00  0.00    +0.158 C 
ATOM     15  C   UNL     1      32.513 -23.666 -14.967  0.00  0.00    +0.037 C 
ATOM     16  C   UNL     1      32.777 -23.056 -13.588  0.00  0.00    +0.064 C 
ATOM     17  C   UNL     1      34.020 -23.772 -13.151  0.00  0.00    +0.115 C 
ATOM     18  C   UNL     1      35.784 -25.098 -14.168  0.00  0.00    +0.256 C 
ATOM     19  C   UNL     1      36.299 -25.179 -12.776  0.00  0.00    +0.079 C 
ATOM     20  C   UNL     1      35.622 -24.563 -11.795  0.00  0.00    +0.105 C 
ENDBRANCH   9  14
ENDBRANCH   4   8
BRANCH   1  21
ATOM     21  C   UNL     1      35.778 -19.004 -21.376  0.00  0.00    +0.005 C 
BRANCH  21  24
ATOM     22  N   UNL     1      34.830 -17.195 -22.781  0.00  0.00    +0.388 N 
ATOM     23  C   UNL     1      33.883 -17.079 -23.900  0.00  0.00    -0.030 C 
ATOM     24  C   UNL     1      34.635 -18.561 -22.274  0.00  0.00    -0.057 C 
ATOM     25  C   UNL     1      33.850 -18.463 -24.549  0.00  0.00    -0.021 C 
ATOM     26  C   UNL     1      34.518 -19.393 -23.543  0.00  0.00    -0.023 C 
ATOM     27  H   UNL     1      34.618 -16.508 -22.057  0.00  0.00    -0.084 HD
ATOM     28  H   UNL     1      35.793 -17.021 -23.069  0.00  0.00    -0.084 HD
BRANCH  23  29
ATOM     29  C   UNL     1      34.288 -15.978 -24.870  0.00  0.00    +0.113 C 
BRANCH  29  30
ATOM     30  C   UNL     1      34.044 -14.598 -24.303  0.00  0.00    +0.002 C 
ATOM     31  C   UNL     1      33.478 -13.604 -25.102  0.00  0.00    -0.002 C 
ATOM     32  C   UNL     1      34.386 -14.318 -22.980  0.00  0.00    -0.002 C 
ATOM     33  C   UNL     1      33.255 -12.332 -24.578  0.00  0.00    -0.000 C 
ATOM     34  C   UNL     1      34.163 -13.045 -22.455  0.00  0.00    -0.000 C 
ATOM     35  C   UNL     1      33.597 -12.052 -23.255  0.00  0.00    -0.000 C 
ENDBRANCH  29  30
BRANCH  29  36
ATOM     36  O   UNL     1      35.671 -16.109 -25.198  0.00  0.00    -0.382 OA
ATOM     37  H   UNL     1      35.766 -16.227 -26.156  0.00  0.00    +0.211 HD
ENDBRANCH  29  36
ENDBRANCH  23  29
ENDBRANCH  21  24
ENDBRANCH   1  21
TORSDOF 7
ENDMDL
MODEL 2
REMARK VINA RESULT:     -12.4      4.025     12.089
REMARK  Name = 44472635
REMARK  7 active torsions:
REMARK  status: ('A' for Active; 'I' for Inactive)
REMARK    1  A    between atoms: C_1  and  C_21
REMARK    2  A    between atoms: C_4  and  N_8
REMARK    3  A    between atoms: C_9  and  C_14
REMARK    4  A    between atoms: C_21  and  C_24
REMARK    5  A    between atoms: C_23  and  C_29
REMARK    6  A    between atoms: C_29  and  C_30
REMARK    7  A    between atoms: C_29  and  O_36
REMARK                            x       y       z     vdW  Elec       q    Type
REMARK                         _______ _______ _______ _____ _____    ______ ____
ROOT
ATOM      1  C   UNL     1      34.688 -15.420 -23.117  0.00  0.00    -0.024 C 
ATOM      2  C   UNL     1      33.978 -14.907 -24.203  0.00  0.00    -0.003 C 
ATOM      3  C   UNL     1      34.795 -14.677 -21.941  0.00  0.00    -0.003 C 
ATOM      4  C   UNL     1      33.484 -12.909 -22.936  0.00  0.00    +0.050 C 
ATOM      5  C   UNL     1      33.377 -13.652 -24.113  0.00  0.00    +0.014 C 
ATOM      6  C   UNL     1      34.193 -13.423 -21.850  0.00  0.00    +0.014 C 
ENDROOT
BRANCH   4   8
ATOM      7  O   UNL     1      34.560 -10.174 -23.587  0.00  0.00    -0.273 OA
ATOM      8  N   UNL     1      32.874 -11.636 -22.844  0.00  0.00    -0.283 N 
ATOM      9  C   UNL     1      33.433 -10.406 -23.162  0.00  0.00    +0.245 C 
ATOM     10  H   UNL     1      31.945 -11.622 -22.517  0.00  0.00    +0.155 HD
BRANCH   9  14
ATOM     11  O   UNL     1      30.669 -10.916 -21.208  0.00  0.00    -0.269 OA
ATOM     12  N   UNL     1      32.233  -9.216 -21.499  0.00  0.00    -0.237 N 
ATOM     13  N   UNL     1      32.974  -7.888 -19.662  0.00  0.00    -0.233 NA
ATOM     14  C   UNL     1      32.458  -9.292 -22.926  0.00  0.00    +0.158 C 
ATOM     15  C   UNL     1      33.060  -7.936 -23.266  0.00  0.00    +0.037 C 
ATOM     16  C   UNL     1      33.768  -7.496 -21.982  0.00  0.00    +0.064 C 
ATOM     17  C   UNL     1      32.971  -8.188 -20.919  0.00  0.00    +0.115 C 
ATOM     18  C   UNL     1      31.374 -10.015 -20.769  0.00  0.00    +0.256 C 
ATOM     19  C   UNL     1      31.375  -9.677 -19.322  0.00  0.00    +0.079 C 
ATOM     20  C   UNL     1      32.151  -8.672 -18.888  0.00  0.00    +0.105 C 
ENDBRANCH   9  14
ENDBRANCH   4   8
BRANCH   1  21
ATOM     21  C   UNL     1      35.333 -16.761 -23.213  0.00  0.00    +0.005 C 
BRANCH  21  24
ATOM     22  N   UNL     1      34.431 -18.392 -21.578  0.00  0.00    +0.388 N 
ATOM     23  C   UNL     1      34.943 -19.193 -20.455  0.00  0.00    -0.030 C 
ATOM     24  C   UNL     1      35.500 -17.421 -21.854  0.00  0.00    -0.057 C 
ATOM     25  C   UNL     1      36.450 -19.303 -20.690  0.00  0.00    -0.021 C 
ATOM     26  C   UNL     1      36.768 -18.256 -21.751  0.00  0.00    -0.023 C 
ATOM     27  H   UNL     1      33.570 -17.914 -21.316  0.00  0.00    -0.084 HD
ATOM     28  H   UNL     1      34.206 -18.964 -22.391  0.00  0.00    -0.084 HD
BRANCH  23  29
ATOM     29  C   UNL     1      34.255 -20.548 -20.369  0.00  0.00    +0.113 C 
BRANCH  29  30
ATOM     30  C   UNL     1      34.610 -21.290 -19.101  0.00  0.00    +0.002 C 
ATOM     31  C   UNL     1      35.912 -21.234 -18.601  0.00  0.00    -0.002 C 
ATOM     32  C   UNL     1      33.637 -22.031 -18.430  0.00  0.00    -0.002 C 
ATOM     33  C   UNL     1      36.239 -21.919 -17.432  0.00  0.00    -0.000 C 
ATOM     34  C   UNL     1      33.965 -22.716 -17.261  0.00  0.00    -0.000 C 
ATOM     35  C   UNL     1      35.266 -22.660 -16.761  0.00  0.00    -0.000 C 
ENDBRANCH  29  30
BRANCH  29  36
ATOM     36  O   UNL     1      32.839 -20.374 -20.425  0.00  0.00    -0.382 OA
ATOM     37  H   UNL     1      32.626 -19.431 -20.347  0.00  0.00    +0.211 HD
ENDBRANCH  29  36
ENDBRANCH  23  29
ENDBRANCH  21  24
ENDBRANCH   1  21
TORSDOF 7
ENDMDL
MODEL 3
REMARK VINA RESULT:     -12.3      1.298      1.940
REMARK  Name = 44472635
REMARK  7 active torsions:
REMARK  status: ('A' for Active; 'I' for Inactive)
REMARK    1  A    between atoms: C_1  and  C_21
REMARK    2  A    between atoms: C_4  and  N_8
REMARK    3  A    between atoms: C_9  and  C_14
REMARK    4  A    between atoms: C_21  and  C_24
REMARK    5  A    between atoms: C_23  and  C_29
REMARK    6  A    between atoms: C_29  and  C_30
REMARK    7  A    between atoms: C_29  and  O_36
REMARK                            x       y       z     vdW  Elec       q    Type
REMARK                         _______ _______ _______ _____ _____    ______ ____
ROOT
ATOM      1  C   UNL     1      35.921 -20.459 -19.623  0.00  0.00    -0.024 C 
ATOM      2  C   UNL     1      34.601 -20.906 -19.573  0.00  0.00    -0.003 C 
ATOM      3  C   UNL     1      36.841 -20.894 -18.667  0.00  0.00    -0.003 C 
ATOM      4  C   UNL     1      35.119 -22.222 -17.614  0.00  0.00    +0.050 C 
ATOM      5  C   UNL     1      34.199 -21.787 -18.568  0.00  0.00    +0.014 C 
ATOM      6  C   UNL     1      36.440 -21.776 -17.664  0.00  0.00    +0.014 C 
ENDROOT
BRANCH   4   8
ATOM      7  O   UNL     1      36.271 -22.721 -14.877  0.00  0.00    -0.273 OA
ATOM      8  N   UNL     1      34.713 -23.116 -16.595  0.00  0.00    -0.283 N 
ATOM      9  C   UNL     1      35.295 -23.297 -15.348  0.00  0.00    +0.245 C 
ATOM     10  H   UNL     1      33.926 -23.674 -16.795  0.00  0.00    +0.155 HD
BRANCH   9  14
ATOM     11  O   UNL     1      36.262 -26.576 -15.514  0.00  0.00    -0.269 OA
ATOM     12  N   UNL     1      35.562 -25.112 -13.846  0.00  0.00    -0.237 N 
ATOM     13  N   UNL     1      36.470 -25.219 -11.643  0.00  0.00    -0.233 NA
ATOM     14  C   UNL     1      34.566 -24.341 -14.558  0.00  0.00    +0.158 C 
ATOM     15  C   UNL     1      33.729 -23.724 -13.446  0.00  0.00    +0.037 C 
ATOM     16  C   UNL     1      34.693 -23.599 -12.263  0.00  0.00    +0.064 C 
ATOM     17  C   UNL     1      35.662 -24.713 -12.516  0.00  0.00    +0.115 C 
ATOM     18  C   UNL     1      36.314 -26.146 -14.368  0.00  0.00    +0.256 C 
ATOM     19  C   UNL     1      37.247 -26.731 -13.371  0.00  0.00    +0.079 C 
ATOM     20  C   UNL     1      37.259 -26.239 -12.122  0.00  0.00    +0.105 C 
ENDBRANCH   9  14
ENDBRANCH   4   8
BRANCH   1  21
ATOM     21  C   UNL     1      36.350 -19.515 -20.694  0.00  0.00    +0.005 C 
BRANCH  21  24
ATOM     22  N   UNL     1      35.336 -17.439 -21.593  0.00  0.00    +0.388 N 
ATOM     23  C   UNL     1      34.345 -17.075 -22.617  0.00  0.00    -0.030 C 
ATOM     24  C   UNL     1      35.170 -18.889 -21.419  0.00  0.00    -0.057 C 
ATOM     25  C   UNL     1      34.296 -18.266 -23.575  0.00  0.00    -0.021 C 
ATOM     26  C   UNL     1      35.009 -19.397 -22.844  0.00  0.00    -0.023 C 
ATOM     27  H   UNL     1      35.148 -16.948 -20.719  0.00  0.00    -0.084 HD
ATOM     28  H   UNL     1      36.286 -17.187 -21.866  0.00  0.00    -0.084 HD
BRANCH  23  29
ATOM     29  C   UNL     1      34.705 -15.769 -23.311  0.00  0.00    +0.113 C 
BRANCH  29  30
ATOM     30  C   UNL     1      34.000 -14.582 -22.695  0.00  0.00    +0.002 C 
ATOM     31  C   UNL     1      33.870 -14.489 -21.309  0.00  0.00    -0.002 C 
ATOM     32  C   UNL     1      33.479 -13.579 -23.512  0.00  0.00    -0.002 C 
ATOM     33  C   UNL     1      33.220 -13.394 -20.741  0.00  0.00    -0.000 C 
ATOM     34  C   UNL     1      32.828 -12.484 -22.945  0.00  0.00    -0.000 C 
ATOM     35  C   UNL     1      32.699 -12.391 -21.559  0.00  0.00    -0.000 C 
ENDBRANCH  29  30
BRANCH  29  36
ATOM     36  O   UNL     1      36.115 -15.560 -23.244  0.00  0.00    -0.382 OA
ATOM     37  H   UNL     1      36.538 -16.337 -22.848  0.00  0.00    +0.211 HD
ENDBRANCH  29  36
ENDBRANCH  23  29
ENDBRANCH  21  24
ENDBRANCH   1  21
TORSDOF 7
ENDMDL
MODEL 4
REMARK VINA RESULT:     -12.2      1.578      2.043
REMARK  Name = 44472635
REMARK  7 active torsions:
REMARK  status: ('A' for Active; 'I' for Inactive)
REMARK    1  A    between atoms: C_1  and  C_21
REMARK    2  A    between atoms: C_4  and  N_8
REMARK    3  A    between atoms: C_9  and  C_14
REMARK    4  A    between atoms: C_21  and  C_24
REMARK    5  A    between atoms: C_23  and  C_29
REMARK    6  A    between atoms: C_29  and  C_30
REMARK    7  A    between atoms: C_29  and  O_36
REMARK                            x       y       z     vdW  Elec       q    Type
REMARK                         _______ _______ _______ _____ _____    ______ ____
ROOT
ATOM      1  C   UNL     1      35.591 -19.774 -20.501  0.00  0.00    -0.024 C 
ATOM      2  C   UNL     1      36.470 -20.517 -19.714  0.00  0.00    -0.003 C 
ATOM      3  C   UNL     1      34.214 -19.970 -20.384  0.00  0.00    -0.003 C 
ATOM      4  C   UNL     1      34.597 -21.650 -18.692  0.00  0.00    +0.050 C 
ATOM      5  C   UNL     1      35.974 -21.456 -18.809  0.00  0.00    +0.014 C 
ATOM      6  C   UNL     1      33.717 -20.907 -19.479  0.00  0.00    +0.014 C 
ENDROOT
BRANCH   4   8
ATOM      7  O   UNL     1      35.500 -22.349 -15.905  0.00  0.00    -0.273 OA
ATOM      8  N   UNL     1      34.093 -22.602 -17.774  0.00  0.00    -0.283 N 
ATOM      9  C   UNL     1      34.562 -22.875 -16.496  0.00  0.00    +0.245 C 
ATOM     10  H   UNL     1      33.319 -23.132 -18.077  0.00  0.00    +0.155 HD
BRANCH   9  14
ATOM     11  O   UNL     1      36.111 -25.617 -15.157  0.00  0.00    -0.269 OA
ATOM     12  N   UNL     1      34.354 -24.216 -14.552  0.00  0.00    -0.237 N 
ATOM     13  N   UNL     1      33.956 -23.642 -12.272  0.00  0.00    -0.233 NA
ATOM     14  C   UNL     1      33.754 -23.955 -15.843  0.00  0.00    +0.158 C 
ATOM     15  C   UNL     1      32.351 -23.478 -15.496  0.00  0.00    +0.037 C 
ATOM     16  C   UNL     1      32.492 -22.841 -14.111  0.00  0.00    +0.064 C 
ATOM     17  C   UNL     1      33.650 -23.590 -13.526  0.00  0.00    +0.115 C 
ATOM     18  C   UNL     1      35.459 -25.010 -14.316  0.00  0.00    +0.256 C 
ATOM     19  C   UNL     1      35.818 -25.071 -12.875  0.00  0.00    +0.079 C 
ATOM     20  C   UNL     1      35.066 -24.402 -11.988  0.00  0.00    +0.105 C 
ENDBRANCH   9  14
ENDBRANCH   4   8
BRANCH   1  21
ATOM     21  C   UNL     1      36.121 -18.772 -21.470  0.00  0.00    +0.005 C 
BRANCH  21  24
ATOM     22  N   UNL     1      35.168 -16.536 -20.982  0.00  0.00    +0.388 N 
ATOM     23  C   UNL     1      34.405 -15.505 -21.702  0.00  0.00    -0.030 C 
ATOM     24  C   UNL     1      35.085 -17.724 -21.843  0.00  0.00    -0.057 C 
ATOM     25  C   UNL     1      34.667 -15.769 -23.185  0.00  0.00    -0.021 C 
ATOM     26  C   UNL     1      35.288 -17.159 -23.242  0.00  0.00    -0.023 C 
ATOM     27  H   UNL     1      34.752 -16.722 -20.071  0.00  0.00    -0.084 HD
ATOM     28  H   UNL     1      36.131 -16.251 -20.805  0.00  0.00    -0.084 HD
BRANCH  23  29
ATOM     29  C   UNL     1      34.803 -14.102 -21.269  0.00  0.00    +0.113 C 
BRANCH  29  30
ATOM     30  C   UNL     1      33.644 -13.134 -21.331  0.00  0.00    +0.002 C 
ATOM     31  C   UNL     1      33.544 -12.230 -22.390  0.00  0.00    -0.002 C 
ATOM     32  C   UNL     1      32.673 -13.143 -20.330  0.00  0.00    -0.002 C 
ATOM     33  C   UNL     1      32.475 -11.337 -22.447  0.00  0.00    -0.000 C 
ATOM     34  C   UNL     1      31.603 -12.250 -20.386  0.00  0.00    -0.000 C 
ATOM     35  C   UNL     1      31.504 -11.347 -21.445  0.00  0.00    -0.000 C 
ENDBRANCH  29  30
BRANCH  29  36
ATOM     36  O   UNL     1      35.311 -14.135 -19.935  0.00  0.00    -0.382 OA
ATOM     37  H   UNL     1      36.273 -14.013 -19.952  0.00  0.00    +0.211 HD
ENDBRANCH  29  36
ENDBRANCH  23  29
ENDBRANCH  21  24
ENDBRANCH   1  21
TORSDOF 7
ENDMDL
MODEL 5
REMARK VINA RESULT:     -12.1      1.234      1.598
REMARK  Name = 44472635
REMARK  7 active torsions:
REMARK  status: ('A' for Active; 'I' for Inactive)
REMARK    1  A    between atoms: C_1  and  C_21
REMARK    2  A    between atoms: C_4  and  N_8
REMARK    3  A    between atoms: C_9  and  C_14
REMARK    4  A    between atoms: C_21  and  C_24
REMARK    5  A    between atoms: C_23  and  C_29
REMARK    6  A    between atoms: C_29  and  C_30
REMARK    7  A    between atoms: C_29  and  O_36
REMARK                            x       y       z     vdW  Elec       q    Type
REMARK                         _______ _______ _______ _____ _____    ______ ____
ROOT
ATOM      1  C   UNL     1      35.716 -19.681 -20.443  0.00  0.00    -0.024 C 
ATOM      2  C   UNL     1      36.588 -20.426 -19.649  0.00  0.00    -0.003 C 
ATOM      3  C   UNL     1      34.340 -19.895 -20.358  0.00  0.00    -0.003 C 
ATOM      4  C   UNL     1      34.708 -21.597 -18.683  0.00  0.00    +0.050 C 
ATOM      5  C   UNL     1      36.084 -21.384 -18.769  0.00  0.00    +0.014 C 
ATOM      6  C   UNL     1      33.836 -20.852 -19.478  0.00  0.00    +0.014 C 
ENDROOT
BRANCH   4   8
ATOM      7  O   UNL     1      35.519 -22.284 -15.866  0.00  0.00    -0.273 OA
ATOM      8  N   UNL     1      34.196 -22.568 -17.791  0.00  0.00    -0.283 N 
ATOM      9  C   UNL     1      34.621 -22.835 -16.497  0.00  0.00    +0.245 C 
ATOM     10  H   UNL     1      33.451 -23.119 -18.128  0.00  0.00    +0.155 HD
BRANCH   9  14
ATOM     11  O   UNL     1      36.195 -25.561 -15.155  0.00  0.00    -0.269 OA
ATOM     12  N   UNL     1      34.391 -24.208 -14.578  0.00  0.00    -0.237 N 
ATOM     13  N   UNL     1      33.919 -23.678 -12.302  0.00  0.00    -0.233 NA
ATOM     14  C   UNL     1      33.820 -23.942 -15.881  0.00  0.00    +0.158 C 
ATOM     15  C   UNL     1      32.398 -23.501 -15.566  0.00  0.00    +0.037 C 
ATOM     16  C   UNL     1      32.487 -22.882 -14.169  0.00  0.00    +0.064 C 
ATOM     17  C   UNL     1      33.646 -23.614 -13.564  0.00  0.00    +0.115 C 
ATOM     18  C   UNL     1      35.507 -24.981 -14.323  0.00  0.00    +0.256 C 
ATOM     19  C   UNL     1      35.828 -25.056 -12.875  0.00  0.00    +0.079 C 
ATOM     20  C   UNL     1      35.037 -24.418 -11.999  0.00  0.00    +0.105 C 
ENDBRANCH   9  14
ENDBRANCH   4   8
BRANCH   1  21
ATOM     21  C   UNL     1      36.255 -18.658 -21.386  0.00  0.00    +0.005 C 
BRANCH  21  24
ATOM     22  N   UNL     1      35.189 -16.420 -21.398  0.00  0.00    +0.388 N 
ATOM     23  C   UNL     1      34.366 -15.619 -22.317  0.00  0.00    -0.030 C 
ATOM     24  C   UNL     1      35.162 -17.776 -21.966  0.00  0.00    -0.057 C 
ATOM     25  C   UNL     1      34.631 -16.199 -23.707  0.00  0.00    -0.021 C 
ATOM     26  C   UNL     1      35.325 -17.533 -23.460  0.00  0.00    -0.023 C 
ATOM     27  H   UNL     1      34.789 -16.415 -20.460  0.00  0.00    -0.084 HD
ATOM     28  H   UNL     1      36.136 -16.055 -21.308  0.00  0.00    -0.084 HD
BRANCH  23  29
ATOM     29  C   UNL     1      34.693 -14.136 -22.220  0.00  0.00    +0.113 C 
BRANCH  29  30
ATOM     30  C   UNL     1      34.146 -13.352 -23.392  0.00  0.00    +0.002 C 
ATOM     31  C   UNL     1      33.475 -14.013 -24.421  0.00  0.00    -0.002 C 
ATOM     32  C   UNL     1      34.313 -11.969 -23.445  0.00  0.00    -0.002 C 
ATOM     33  C   UNL     1      32.971 -13.290 -25.502  0.00  0.00    -0.000 C 
ATOM     34  C   UNL     1      33.810 -11.245 -24.526  0.00  0.00    -0.000 C 
ATOM     35  C   UNL     1      33.138 -11.906 -25.554  0.00  0.00    -0.000 C 
ENDBRANCH  29  30
BRANCH  29  36
ATOM     36  O   UNL     1      34.154 -13.602 -21.011  0.00  0.00    -0.382 OA
ATOM     37  H   UNL     1      34.567 -14.042 -20.252  0.00  0.00    +0.211 HD
ENDBRANCH  29  36
ENDBRANCH  23  29
ENDBRANCH  21  24
ENDBRANCH   1  21
TORSDOF 7
ENDMDL
MODEL 6
REMARK VINA RESULT:     -11.9      1.732      3.025
REMARK  Name = 44472635
REMARK  7 active torsions:
REMARK  status: ('A' for Active; 'I' for Inactive)
REMARK    1  A    between atoms: C_1  and  C_21
REMARK    2  A    between atoms: C_4  and  N_8
REMARK    3  A    between atoms: C_9  and  C_14
REMARK    4  A    between atoms: C_21  and  C_24
REMARK    5  A    between atoms: C_23  and  C_29
REMARK    6  A    between atoms: C_29  and  C_30
REMARK    7  A    between atoms: C_29  and  O_36
REMARK                            x       y       z     vdW  Elec       q    Type
REMARK                         _______ _______ _______ _____ _____    ______ ____
ROOT
ATOM      1  C   UNL     1      33.372 -21.350 -19.080  0.00  0.00    -0.024 C 
ATOM      2  C   UNL     1      32.323 -21.733 -18.244  0.00  0.00    -0.003 C 
ATOM      3  C   UNL     1      34.677 -21.746 -18.787  0.00  0.00    -0.003 C 
ATOM      4  C   UNL     1      33.884 -22.908 -16.823  0.00  0.00    +0.050 C 
ATOM      5  C   UNL     1      32.579 -22.511 -17.115  0.00  0.00    +0.014 C 
ATOM      6  C   UNL     1      34.934 -22.525 -17.659  0.00  0.00    +0.014 C 
ENDROOT
BRANCH   4   8
ATOM      7  O   UNL     1      35.582 -22.342 -14.401  0.00  0.00    -0.273 OA
ATOM      8  N   UNL     1      34.145 -23.698 -15.678  0.00  0.00    -0.283 N 
ATOM      9  C   UNL     1      34.945 -23.374 -14.592  0.00  0.00    +0.245 C 
ATOM     10  H   UNL     1      33.707 -24.580 -15.650  0.00  0.00    +0.155 HD
BRANCH   9  14
ATOM     11  O   UNL     1      36.204 -26.446 -15.424  0.00  0.00    -0.269 OA
ATOM     12  N   UNL     1      36.299 -25.033 -13.576  0.00  0.00    -0.237 N 
ATOM     13  N   UNL     1      38.272 -24.867 -12.246  0.00  0.00    -0.233 NA
ATOM     14  C   UNL     1      34.962 -24.482 -13.583  0.00  0.00    +0.158 C 
ATOM     15  C   UNL     1      34.784 -23.956 -12.165  0.00  0.00    +0.037 C 
ATOM     16  C   UNL     1      36.201 -23.607 -11.703  0.00  0.00    +0.064 C 
ATOM     17  C   UNL     1      37.045 -24.553 -12.503  0.00  0.00    +0.115 C 
ATOM     18  C   UNL     1      36.803 -25.952 -14.475  0.00  0.00    +0.256 C 
ATOM     19  C   UNL     1      38.215 -26.316 -14.187  0.00  0.00    +0.079 C 
ATOM     20  C   UNL     1      38.826 -25.763 -13.129  0.00  0.00    +0.105 C 
ENDBRANCH   9  14
ENDBRANCH   4   8
BRANCH   1  21
ATOM     21  C   UNL     1      33.099 -20.516 -20.286  0.00  0.00    +0.005 C 
BRANCH  21  24
ATOM     22  N   UNL     1      34.241 -18.660 -21.468  0.00  0.00    +0.388 N 
ATOM     23  C   UNL     1      35.623 -18.219 -21.710  0.00  0.00    -0.030 C 
ATOM     24  C   UNL     1      34.376 -20.030 -20.953  0.00  0.00    -0.057 C 
ATOM     25  C   UNL     1      36.454 -18.865 -20.601  0.00  0.00    -0.021 C 
ATOM     26  C   UNL     1      35.549 -19.928 -19.989  0.00  0.00    -0.023 C 
ATOM     27  H   UNL     1      33.704 -18.653 -22.335  0.00  0.00    -0.084 HD
ATOM     28  H   UNL     1      33.747 -18.048 -20.820  0.00  0.00    -0.084 HD
BRANCH  23  29
ATOM     29  C   UNL     1      35.737 -16.702 -21.731  0.00  0.00    +0.113 C 
BRANCH  29  30
ATOM     30  C   UNL     1      34.931 -16.084 -22.851  0.00  0.00    +0.002 C 
ATOM     31  C   UNL     1      34.318 -14.844 -22.668  0.00  0.00    -0.002 C 
ATOM     32  C   UNL     1      34.801 -16.753 -24.067  0.00  0.00    -0.002 C 
ATOM     33  C   UNL     1      33.574 -14.275 -23.701  0.00  0.00    -0.000 C 
ATOM     34  C   UNL     1      34.057 -16.185 -25.101  0.00  0.00    -0.000 C 
ATOM     35  C   UNL     1      33.444 -14.945 -24.918  0.00  0.00    -0.000 C 
ENDBRANCH  29  30
BRANCH  29  36
ATOM     36  O   UNL     1      35.288 -16.168 -20.485  0.00  0.00    -0.382 OA
ATOM     37  H   UNL     1      34.368 -16.433 -20.333  0.00  0.00    +0.211 HD
ENDBRANCH  29  36
ENDBRANCH  23  29
ENDBRANCH  21  24
ENDBRANCH   1  21
TORSDOF 7
ENDMDL
MODEL 7
REMARK VINA RESULT:     -11.9      1.774      3.005
REMARK  Name = 44472635
REMARK  7 active torsions:
REMARK  status: ('A' for Active; 'I' for Inactive)
REMARK    1  A    between atoms: C_1  and  C_21
REMARK    2  A    between atoms: C_4  and  N_8
REMARK    3  A    between atoms: C_9  and  C_14
REMARK    4  A    between atoms: C_21  and  C_24
REMARK    5  A    between atoms: C_23  and  C_29
REMARK    6  A    between atoms: C_29  and  C_30
REMARK    7  A    between atoms: C_29  and  O_36
REMARK                            x       y       z     vdW  Elec       q    Type
REMARK                         _______ _______ _______ _____ _____    ______ ____
ROOT
ATOM      1  C   UNL     1      33.400 -21.432 -18.953  0.00  0.00    -0.024 C 
ATOM      2  C   UNL     1      34.721 -21.773 -18.662  0.00  0.00    -0.003 C 
ATOM      3  C   UNL     1      32.369 -21.863 -18.118  0.00  0.00    -0.003 C 
ATOM      4  C   UNL     1      33.979 -22.971 -16.699  0.00  0.00    +0.050 C 
ATOM      5  C   UNL     1      35.011 -22.542 -17.535  0.00  0.00    +0.014 C 
ATOM      6  C   UNL     1      32.658 -22.631 -16.991  0.00  0.00    +0.014 C 
ENDROOT
BRANCH   4   8
ATOM      7  O   UNL     1      35.528 -22.287 -14.210  0.00  0.00    -0.273 OA
ATOM      8  N   UNL     1      34.272 -23.752 -15.556  0.00  0.00    -0.283 N 
ATOM      9  C   UNL     1      34.999 -23.371 -14.437  0.00  0.00    +0.245 C 
ATOM     10  H   UNL     1      33.920 -24.672 -15.555  0.00  0.00    +0.155 HD
BRANCH   9  14
ATOM     11  O   UNL     1      36.191 -26.436 -15.384  0.00  0.00    -0.269 OA
ATOM     12  N   UNL     1      36.420 -25.041 -13.535  0.00  0.00    -0.237 N 
ATOM     13  N   UNL     1      38.481 -24.889 -12.346  0.00  0.00    -0.233 NA
ATOM     14  C   UNL     1      35.086 -24.489 -13.442  0.00  0.00    +0.158 C 
ATOM     15  C   UNL     1      35.010 -23.976 -12.010  0.00  0.00    +0.037 C 
ATOM     16  C   UNL     1      36.457 -23.632 -11.647  0.00  0.00    +0.064 C 
ATOM     17  C   UNL     1      37.240 -24.572 -12.513  0.00  0.00    +0.115 C 
ATOM     18  C   UNL     1      36.857 -25.952 -14.476  0.00  0.00    +0.256 C 
ATOM     19  C   UNL     1      38.285 -26.320 -14.293  0.00  0.00    +0.079 C 
ATOM     20  C   UNL     1      38.971 -25.777 -13.275  0.00  0.00    +0.105 C 
ENDBRANCH   9  14
ENDBRANCH   4   8
BRANCH   1  21
ATOM     21  C   UNL     1      33.090 -20.612 -20.159  0.00  0.00    +0.005 C 
BRANCH  21  24
ATOM     22  N   UNL     1      34.203 -18.741 -21.346  0.00  0.00    +0.388 N 
ATOM     23  C   UNL     1      35.579 -18.307 -21.630  0.00  0.00    -0.030 C 
ATOM     24  C   UNL     1      34.344 -20.123 -20.864  0.00  0.00    -0.057 C 
ATOM     25  C   UNL     1      36.445 -18.982 -20.566  0.00  0.00    -0.021 C 
ATOM     26  C   UNL     1      35.554 -20.050 -19.942  0.00  0.00    -0.023 C 
ATOM     27  H   UNL     1      33.634 -18.712 -22.191  0.00  0.00    -0.084 HD
ATOM     28  H   UNL     1      33.739 -18.139 -20.667  0.00  0.00    -0.084 HD
BRANCH  23  29
ATOM     29  C   UNL     1      35.705 -16.790 -21.624  0.00  0.00    +0.113 C 
BRANCH  29  30
ATOM     30  C   UNL     1      34.963 -16.151 -22.775  0.00  0.00    +0.002 C 
ATOM     31  C   UNL     1      34.794 -16.849 -23.971  0.00  0.00    -0.002 C 
ATOM     32  C   UNL     1      34.447 -14.861 -22.642  0.00  0.00    -0.002 C 
ATOM     33  C   UNL     1      34.110 -16.258 -25.033  0.00  0.00    -0.000 C 
ATOM     34  C   UNL     1      33.764 -14.270 -23.704  0.00  0.00    -0.000 C 
ATOM     35  C   UNL     1      33.595 -14.968 -24.899  0.00  0.00    -0.000 C 
ENDBRANCH  29  30
BRANCH  29  36
ATOM     36  O   UNL     1      35.197 -16.270 -20.396  0.00  0.00    -0.382 OA
ATOM     37  H   UNL     1      35.778 -16.538 -19.666  0.00  0.00    +0.211 HD
ENDBRANCH  29  36
ENDBRANCH  23  29
ENDBRANCH  21  24
ENDBRANCH   1  21
TORSDOF 7
ENDMDL
MODEL 8
REMARK VINA RESULT:     -11.8      6.039     14.677
REMARK  Name = 44472635
REMARK  7 active torsions:
REMARK  status: ('A' for Active; 'I' for Inactive)
REMARK    1  A    between atoms: C_1  and  C_21
REMARK    2  A    between atoms: C_4  and  N_8
REMARK    3  A    between atoms: C_9  and  C_14
REMARK    4  A    between atoms: C_21  and  C_24
REMARK    5  A    between atoms: C_23  and  C_29
REMARK    6  A    between atoms: C_29  and  C_30
REMARK    7  A    between atoms: C_29  and  O_36
REMARK                            x       y       z     vdW  Elec       q    Type
REMARK                         _______ _______ _______ _____ _____    ______ ____
ROOT
ATOM      1  C   UNL     1      33.709 -12.186 -23.469  0.00  0.00    -0.024 C 
ATOM      2  C   UNL     1      32.753 -11.791 -22.532  0.00  0.00    -0.003 C 
ATOM      3  C   UNL     1      34.553 -11.237 -24.045  0.00  0.00    -0.003 C 
ATOM      4  C   UNL     1      33.489  -9.500 -22.747  0.00  0.00    +0.050 C 
ATOM      5  C   UNL     1      32.643 -10.448 -22.171  0.00  0.00    +0.014 C 
ATOM      6  C   UNL     1      34.445  -9.895 -23.684  0.00  0.00    +0.014 C 
ENDROOT
BRANCH   4   8
ATOM      7  O   UNL     1      31.501  -7.404 -23.594  0.00  0.00    -0.273 OA
ATOM      8  N   UNL     1      33.379  -8.137 -22.381  0.00  0.00    -0.283 N 
ATOM      9  C   UNL     1      32.431  -7.221 -22.814  0.00  0.00    +0.245 C 
ATOM     10  H   UNL     1      34.052  -7.802 -21.746  0.00  0.00    +0.155 HD
BRANCH   9  14
ATOM     11  O   UNL     1      34.174  -4.808 -24.505  0.00  0.00    -0.269 OA
ATOM     12  N   UNL     1      32.268  -4.882 -23.171  0.00  0.00    -0.237 N 
ATOM     13  N   UNL     1      30.392  -3.478 -23.613  0.00  0.00    -0.233 NA
ATOM     14  C   UNL     1      32.656  -5.875 -22.193  0.00  0.00    +0.158 C 
ATOM     15  C   UNL     1      31.705  -5.625 -21.031  0.00  0.00    +0.037 C 
ATOM     16  C   UNL     1      30.449  -5.038 -21.682  0.00  0.00    +0.064 C 
ATOM     17  C   UNL     1      30.999  -4.374 -22.907  0.00  0.00    +0.115 C 
ATOM     18  C   UNL     1      33.040  -4.436 -24.225  0.00  0.00    +0.256 C 
ATOM     19  C   UNL     1      32.347  -3.408 -25.043  0.00  0.00    +0.079 C 
ATOM     20  C   UNL     1      31.112  -3.019 -24.690  0.00  0.00    +0.105 C 
ENDBRANCH   9  14
ENDBRANCH   4   8
BRANCH   1  21
ATOM     21  C   UNL     1      33.825 -13.621 -23.856  0.00  0.00    +0.005 C 
BRANCH  21  24
ATOM     22  N   UNL     1      34.558 -15.791 -22.906  0.00  0.00    +0.388 N 
ATOM     23  C   UNL     1      34.783 -16.366 -21.571  0.00  0.00    -0.030 C 
ATOM     24  C   UNL     1      33.816 -14.548 -22.651  0.00  0.00    -0.057 C 
ATOM     25  C   UNL     1      34.993 -15.169 -20.644  0.00  0.00    -0.021 C 
ATOM     26  C   UNL     1      34.526 -13.957 -21.441  0.00  0.00    -0.023 C 
ATOM     27  H   UNL     1      34.009 -16.426 -23.484  0.00  0.00    -0.084 HD
ATOM     28  H   UNL     1      35.430 -15.626 -23.408  0.00  0.00    -0.084 HD
BRANCH  23  29
ATOM     29  C   UNL     1      35.956 -17.336 -21.564  0.00  0.00    +0.113 C 
BRANCH  29  30
ATOM     30  C   UNL     1      35.631 -18.620 -20.835  0.00  0.00    +0.002 C 
ATOM     31  C   UNL     1      36.652 -19.366 -20.246  0.00  0.00    -0.002 C 
ATOM     32  C   UNL     1      34.310 -19.060 -20.753  0.00  0.00    -0.002 C 
ATOM     33  C   UNL     1      36.353 -20.550 -19.575  0.00  0.00    -0.000 C 
ATOM     34  C   UNL     1      34.010 -20.245 -20.082  0.00  0.00    -0.000 C 
ATOM     35  C   UNL     1      35.031 -20.990 -19.492  0.00  0.00    -0.000 C 
ENDBRANCH  29  30
BRANCH  29  36
ATOM     36  O   UNL     1      36.334 -17.644 -22.906  0.00  0.00    -0.382 OA
ATOM     37  H   UNL     1      36.147 -16.883 -23.477  0.00  0.00    +0.211 HD
ENDBRANCH  29  36
ENDBRANCH  23  29
ENDBRANCH  21  24
ENDBRANCH   1  21
TORSDOF 7
ENDMDL
MODEL 9
REMARK VINA RESULT:     -11.7      2.253     11.230
REMARK  Name = 44472635
REMARK  7 active torsions:
REMARK  status: ('A' for Active; 'I' for Inactive)
REMARK    1  A    between atoms: C_1  and  C_21
REMARK    2  A    between atoms: C_4  and  N_8
REMARK    3  A    between atoms: C_9  and  C_14
REMARK    4  A    between atoms: C_21  and  C_24
REMARK    5  A    between atoms: C_23  and  C_29
REMARK    6  A    between atoms: C_29  and  C_30
REMARK    7  A    between atoms: C_29  and  O_36
REMARK                            x       y       z     vdW  Elec       q    Type
REMARK                         _______ _______ _______ _____ _____    ______ ____
ROOT
ATOM      1  C   UNL     1      34.216 -22.029 -18.811  0.00  0.00    -0.024 C 
ATOM      2  C   UNL     1      35.574 -21.723 -18.907  0.00  0.00    -0.003 C 
ATOM      3  C   UNL     1      33.273 -21.214 -19.437  0.00  0.00    -0.003 C 
ATOM      4  C   UNL     1      35.044 -19.790 -20.255  0.00  0.00    +0.050 C 
ATOM      5  C   UNL     1      35.988 -20.604 -19.629  0.00  0.00    +0.014 C 
ATOM      6  C   UNL     1      33.686 -20.095 -20.159  0.00  0.00    +0.014 C 
ENDROOT
BRANCH   4   8
ATOM      7  O   UNL     1      33.953 -18.586 -22.791  0.00  0.00    -0.273 OA
ATOM      8  N   UNL     1      35.463 -18.654 -20.988  0.00  0.00    -0.283 N 
ATOM      9  C   UNL     1      34.912 -18.153 -22.159  0.00  0.00    +0.245 C 
ATOM     10  H   UNL     1      36.236 -18.163 -20.625  0.00  0.00    +0.155 HD
BRANCH   9  14
ATOM     11  O   UNL     1      34.761 -17.192 -25.440  0.00  0.00    -0.269 OA
ATOM     12  N   UNL     1      34.704 -16.126 -23.371  0.00  0.00    -0.237 N 
ATOM     13  N   UNL     1      33.347 -14.199 -23.008  0.00  0.00    -0.233 NA
ATOM     14  C   UNL     1      35.645 -16.931 -22.623  0.00  0.00    +0.158 C 
ATOM     15  C   UNL     1      36.037 -16.033 -21.458  0.00  0.00    +0.037 C 
ATOM     16  C   UNL     1      34.817 -15.133 -21.238  0.00  0.00    +0.064 C 
ATOM     17  C   UNL     1      34.206 -15.076 -22.605  0.00  0.00    +0.115 C 
ATOM     18  C   UNL     1      34.346 -16.314 -24.692  0.00  0.00    +0.256 C 
ATOM     19  C   UNL     1      33.355 -15.311 -25.161  0.00  0.00    +0.079 C 
ATOM     20  C   UNL     1      32.941 -14.359 -24.312  0.00  0.00    +0.105 C 
ENDBRANCH   9  14
ENDBRANCH   4   8
BRANCH   1  21
ATOM     21  C   UNL     1      33.773 -23.224 -18.037  0.00  0.00    +0.005 C 
BRANCH  21  24
ATOM     22  N   UNL     1      32.563 -23.147 -15.875  0.00  0.00    +0.388 N 
ATOM     23  C   UNL     1      32.887 -23.301 -14.448  0.00  0.00    -0.030 C 
ATOM     24  C   UNL     1      33.868 -23.008 -16.536  0.00  0.00    -0.057 C 
ATOM     25  C   UNL     1      34.191 -24.098 -14.412  0.00  0.00    -0.021 C 
ATOM     26  C   UNL     1      34.728 -24.052 -15.838  0.00  0.00    -0.023 C 
ATOM     27  H   UNL     1      31.992 -22.316 -16.027  0.00  0.00    -0.084 HD
ATOM     28  H   UNL     1      32.026 -23.935 -16.237  0.00  0.00    -0.084 HD
BRANCH  23  29
ATOM     29  C   UNL     1      31.757 -23.976 -13.683  0.00  0.00    +0.113 C 
BRANCH  29  30
ATOM     30  C   UNL     1      30.425 -23.828 -14.382  0.00  0.00    +0.002 C 
ATOM     31  C   UNL     1      29.862 -24.917 -15.048  0.00  0.00    -0.002 C 
ATOM     32  C   UNL     1      29.759 -22.603 -14.361  0.00  0.00    -0.002 C 
ATOM     33  C   UNL     1      28.633 -24.779 -15.694  0.00  0.00    -0.000 C 
ATOM     34  C   UNL     1      28.531 -22.465 -15.007  0.00  0.00    -0.000 C 
ATOM     35  C   UNL     1      27.967 -23.554 -15.673  0.00  0.00    -0.000 C 
ENDBRANCH  29  30
BRANCH  29  36
ATOM     36  O   UNL     1      32.047 -25.364 -13.521  0.00  0.00    -0.382 OA
ATOM     37  H   UNL     1      32.354 -25.527 -12.616  0.00  0.00    +0.211 HD
ENDBRANCH  29  36
ENDBRANCH  23  29
ENDBRANCH  21  24
ENDBRANCH   1  21
TORSDOF 7
ENDMDL
