MODEL 1
REMARK VINA RESULT:     -11.6      0.000      0.000
REMARK  Name = 11979006
REMARK  7 active torsions:
REMARK  status: ('A' for Active; 'I' for Inactive)
REMARK    1  A    between atoms: C_1  and  N_2
REMARK    2  A    between atoms: C_1  and  C_22
REMARK    3  A    between atoms: C_3  and  N_9
REMARK    4  A    between atoms: C_4  and  O_18
REMARK    5  A    between atoms: C_10  and  C_14
REMARK    6  A    between atoms: N_21  and  C_25
REMARK    7  A    between atoms: C_28  and  N_32
REMARK                            x       y       z     vdW  Elec       q    Type
REMARK                         _______ _______ _______ _____ _____    ______ ____
ROOT
ATOM      1  C   UNL     1      35.688 -21.068 -19.957  0.00  0.00    +0.010 C 
ENDROOT
BRANCH   1   2
ATOM      2  N   UNL     1      35.282 -21.386 -18.596  0.00  0.00    +0.396 N 
ATOM      3  C   UNL     1      35.723 -22.261 -16.502  0.00  0.00    +0.076 C 
ATOM      4  C   UNL     1      34.536 -23.037 -17.079  0.00  0.00    +0.106 C 
ATOM      5  C   UNL     1      36.421 -21.690 -17.728  0.00  0.00    -0.054 C 
ATOM      6  C   UNL     1      34.414 -22.567 -18.530  0.00  0.00    -0.045 C 
ATOM      7  H   UNL     1      34.792 -20.549 -18.282  0.00  0.00    -0.079 HD
BRANCH   3   9
ATOM      8  O   UNL     1      35.210 -23.160 -13.879  0.00  0.00    -0.270 OA
ATOM      9  N   UNL     1      36.592 -23.091 -15.714  0.00  0.00    -0.302 N 
ATOM     10  C   UNL     1      36.267 -23.496 -14.417  0.00  0.00    +0.252 C 
ATOM     11  H   UNL     1      37.448 -23.384 -16.101  0.00  0.00    +0.150 HD
BRANCH  10  14
ATOM     12 CL   UNL     1      40.753 -26.435 -13.311  0.00  0.00    -0.075 Cl
ATOM     13  S   UNL     1      38.699 -24.687 -14.553  0.00  0.00    -0.071 S 
ATOM     14  C   UNL     1      37.243 -24.369 -13.750  0.00  0.00    +0.084 C 
ATOM     15  C   UNL     1      37.121 -24.967 -12.544  0.00  0.00    +0.012 C 
ATOM     16  C   UNL     1      38.282 -25.736 -12.245  0.00  0.00    +0.019 C 
ATOM     17  C   UNL     1      39.219 -25.671 -13.252  0.00  0.00    +0.087 C 
ENDBRANCH  10  14
ENDBRANCH   3   9
BRANCH   4  18
ATOM     18  O   UNL     1      33.363 -22.716 -16.343  0.00  0.00    -0.385 OA
ATOM     19  H   UNL     1      32.938 -21.938 -16.735  0.00  0.00    +0.210 HD
ENDBRANCH   4  18
ENDBRANCH   1   2
BRANCH   1  22
ATOM     20  O   UNL     1      33.694 -19.727 -20.173  0.00  0.00    -0.277 OA
ATOM     21  N   UNL     1      35.665 -19.067 -21.264  0.00  0.00    -0.284 N 
ATOM     22  C   UNL     1      34.875 -19.889 -20.463  0.00  0.00    +0.205 C 
ATOM     23  H   UNL     1      36.600 -19.350 -21.387  0.00  0.00    +0.155 HD
BRANCH  21  25
ATOM     24  F   UNL     1      34.746 -19.099 -23.884  0.00  0.00    -0.203 F 
ATOM     25  C   UNL     1      35.281 -17.874 -21.921  0.00  0.00    +0.078 C 
ATOM     26  C   UNL     1      34.828 -17.932 -23.228  0.00  0.00    +0.155 C 
ATOM     27  C   UNL     1      35.368 -16.671 -21.239  0.00  0.00    +0.018 C 
ATOM     28  C   UNL     1      34.533 -15.534 -23.201  0.00  0.00    +0.061 C 
ATOM     29  C   UNL     1      34.451 -16.754 -23.873  0.00  0.00    +0.046 C 
ATOM     30  C   UNL     1      34.992 -15.493 -21.884  0.00  0.00    +0.017 C 
BRANCH  28  32
ATOM     31  O   UNL     1      33.661 -15.340 -25.952  0.00  0.00    -0.269 OA
ATOM     32  N   UNL     1      34.142 -14.309 -23.872  0.00  0.00    -0.233 N 
ATOM     33  C   UNL     1      33.693 -14.353 -25.218  0.00  0.00    +0.257 C 
ATOM     34  C   UNL     1      34.224 -13.082 -23.211  0.00  0.00    +0.072 C 
ATOM     35  C   UNL     1      33.264 -13.052 -25.818  0.00  0.00    +0.059 C 
ATOM     36  C   UNL     1      33.865 -11.928 -23.782  0.00  0.00    +0.017 C 
ATOM     37  C   UNL     1      33.364 -11.917 -25.124  0.00  0.00    +0.006 C 
ENDBRANCH  28  32
ENDBRANCH  21  25
ENDBRANCH   1  22
TORSDOF 7
ENDMDL
MODEL 2
REMARK VINA RESULT:     -11.6      1.558      1.856
REMARK  Name = 11979006
REMARK  7 active torsions:
REMARK  status: ('A' for Active; 'I' for Inactive)
REMARK    1  A    between atoms: C_1  and  N_2
REMARK    2  A    between atoms: C_1  and  C_22
REMARK    3  A    between atoms: C_3  and  N_9
REMARK    4  A    between atoms: C_4  and  O_18
REMARK    5  A    between atoms: C_10  and  C_14
REMARK    6  A    between atoms: N_21  and  C_25
REMARK    7  A    between atoms: C_28  and  N_32
REMARK                            x       y       z     vdW  Elec       q    Type
REMARK                         _______ _______ _______ _____ _____    ______ ____
ROOT
ATOM      1  C   UNL     1      36.057 -20.514 -20.023  0.00  0.00    +0.010 C 
ENDROOT
BRANCH   1   2
ATOM      2  N   UNL     1      35.547 -20.990 -18.746  0.00  0.00    +0.396 N 
ATOM      3  C   UNL     1      35.836 -22.082 -16.730  0.00  0.00    +0.076 C 
ATOM      4  C   UNL     1      34.727 -22.815 -17.489  0.00  0.00    +0.106 C 
ATOM      5  C   UNL     1      36.617 -21.363 -17.820  0.00  0.00    -0.054 C 
ATOM      6  C   UNL     1      34.714 -22.190 -18.885  0.00  0.00    -0.045 C 
ATOM      7  H   UNL     1      35.007 -20.203 -18.387  0.00  0.00    -0.079 HD
BRANCH   3   9
ATOM      8  O   UNL     1      35.285 -23.006 -14.123  0.00  0.00    -0.270 OA
ATOM      9  N   UNL     1      36.661 -22.975 -15.963  0.00  0.00    -0.302 N 
ATOM     10  C   UNL     1      36.319 -23.389 -14.673  0.00  0.00    +0.252 C 
ATOM     11  H   UNL     1      37.498 -23.308 -16.360  0.00  0.00    +0.150 HD
BRANCH  10  14
ATOM     12 CL   UNL     1      40.780 -26.321 -13.456  0.00  0.00    -0.075 Cl
ATOM     13  S   UNL     1      38.810 -24.459 -14.667  0.00  0.00    -0.071 S 
ATOM     14  C   UNL     1      37.248 -24.329 -14.029  0.00  0.00    +0.084 C 
ATOM     15  C   UNL     1      37.004 -25.124 -12.965  0.00  0.00    +0.012 C 
ATOM     16  C   UNL     1      38.158 -25.894 -12.638  0.00  0.00    +0.019 C 
ATOM     17  C   UNL     1      39.212 -25.629 -13.484  0.00  0.00    +0.087 C 
ENDBRANCH  10  14
ENDBRANCH   3   9
BRANCH   4  18
ATOM     18  O   UNL     1      33.487 -22.603 -16.828  0.00  0.00    -0.385 OA
ATOM     19  H   UNL     1      32.769 -22.604 -17.480  0.00  0.00    +0.210 HD
ENDBRANCH   4  18
ENDBRANCH   1   2
BRANCH   1  22
ATOM     20  O   UNL     1      34.006 -19.629 -20.936  0.00  0.00    -0.277 OA
ATOM     21  N   UNL     1      35.810 -18.187 -20.511  0.00  0.00    -0.284 N 
ATOM     22  C   UNL     1      35.151 -19.414 -20.550  0.00  0.00    +0.205 C 
ATOM     23  H   UNL     1      36.731 -18.200 -20.163  0.00  0.00    +0.155 HD
BRANCH  21  25
ATOM     24  F   UNL     1      35.571 -17.521 -23.195  0.00  0.00    -0.203 F 
ATOM     25  C   UNL     1      35.310 -16.924 -20.911  0.00  0.00    +0.078 C 
ATOM     26  C   UNL     1      35.207 -16.631 -22.260  0.00  0.00    +0.155 C 
ATOM     27  C   UNL     1      34.936 -16.009 -19.941  0.00  0.00    +0.018 C 
ATOM     28  C   UNL     1      34.333 -14.452 -21.688  0.00  0.00    +0.061 C 
ATOM     29  C   UNL     1      34.714 -15.386 -22.652  0.00  0.00    +0.046 C 
ATOM     30  C   UNL     1      34.445 -14.764 -20.333  0.00  0.00    +0.017 C 
BRANCH  28  32
ATOM     31  O   UNL     1      32.053 -13.111 -20.518  0.00  0.00    -0.269 OA
ATOM     32  N   UNL     1      33.822 -13.158 -22.096  0.00  0.00    -0.233 N 
ATOM     33  C   UNL     1      32.716 -12.587 -21.413  0.00  0.00    +0.257 C 
ATOM     34  C   UNL     1      34.396 -12.476 -23.171  0.00  0.00    +0.072 C 
ATOM     35  C   UNL     1      32.283 -11.229 -21.866  0.00  0.00    +0.059 C 
ATOM     36  C   UNL     1      33.969 -11.276 -23.578  0.00  0.00    +0.017 C 
ATOM     37  C   UNL     1      32.884 -10.633 -22.898  0.00  0.00    +0.006 C 
ENDBRANCH  28  32
ENDBRANCH  21  25
ENDBRANCH   1  22
TORSDOF 7
ENDMDL
MODEL 3
REMARK VINA RESULT:     -11.3      7.381     13.671
REMARK  Name = 11979006
REMARK  7 active torsions:
REMARK  status: ('A' for Active; 'I' for Inactive)
REMARK    1  A    between atoms: C_1  and  N_2
REMARK    2  A    between atoms: C_1  and  C_22
REMARK    3  A    between atoms: C_3  and  N_9
REMARK    4  A    between atoms: C_4  and  O_18
REMARK    5  A    between atoms: C_10  and  C_14
REMARK    6  A    between atoms: N_21  and  C_25
REMARK    7  A    between atoms: C_28  and  N_32
REMARK                            x       y       z     vdW  Elec       q    Type
REMARK                         _______ _______ _______ _____ _____    ______ ____
ROOT
ATOM      1  C   UNL     1      33.431 -12.929 -25.686  0.00  0.00    +0.010 C 
ENDROOT
BRANCH   1   2
ATOM      2  N   UNL     1      33.838 -11.961 -24.679  0.00  0.00    +0.396 N 
ATOM      3  C   UNL     1      33.448 -10.065 -23.416  0.00  0.00    +0.076 C 
ATOM      4  C   UNL     1      34.724  -9.818 -24.225  0.00  0.00    +0.106 C 
ATOM      5  C   UNL     1      32.720 -11.150 -24.197  0.00  0.00    -0.054 C 
ATOM      6  C   UNL     1      34.827 -11.003 -25.187  0.00  0.00    -0.045 C 
ATOM      7  H   UNL     1      34.228 -12.533 -23.930  0.00  0.00    -0.079 HD
BRANCH   3   9
ATOM      8  O   UNL     1      34.134  -7.820 -21.854  0.00  0.00    -0.270 OA
ATOM      9  N   UNL     1      32.656  -8.876 -23.261  0.00  0.00    -0.302 N 
ATOM     10  C   UNL     1      33.066  -7.802 -22.467  0.00  0.00    +0.252 C 
ATOM     11  H   UNL     1      31.793  -8.815 -23.731  0.00  0.00    +0.150 HD
BRANCH  10  14
ATOM     12 CL   UNL     1      30.468  -3.158 -23.762  0.00  0.00    -0.075 Cl
ATOM     13  S   UNL     1      32.242  -5.538 -23.713  0.00  0.00    -0.071 S 
ATOM     14  C   UNL     1      32.161  -6.643 -22.433  0.00  0.00    +0.084 C 
ATOM     15  C   UNL     1      31.249  -6.341 -21.483  0.00  0.00    +0.012 C 
ATOM     16  C   UNL     1      30.567  -5.133 -21.808  0.00  0.00    +0.019 C 
ATOM     17  C   UNL     1      31.009  -4.593 -22.995  0.00  0.00    +0.087 C 
ENDBRANCH  10  14
ENDBRANCH   3   9
BRANCH   4  18
ATOM     18  O   UNL     1      35.839  -9.783 -23.344  0.00  0.00    -0.385 OA
ATOM     19  H   UNL     1      36.200 -10.678 -23.244  0.00  0.00    +0.210 HD
ENDBRANCH   4  18
ENDBRANCH   1   2
BRANCH   1  22
ATOM     20  O   UNL     1      32.633 -15.194 -25.455  0.00  0.00    -0.277 OA
ATOM     21  N   UNL     1      34.345 -14.414 -24.051  0.00  0.00    -0.284 N 
ATOM     22  C   UNL     1      33.399 -14.317 -25.069  0.00  0.00    +0.205 C 
ATOM     23  H   UNL     1      34.880 -13.605 -23.877  0.00  0.00    +0.155 HD
BRANCH  21  25
ATOM     24  F   UNL     1      34.818 -14.134 -21.329  0.00  0.00    -0.203 F 
ATOM     25  C   UNL     1      34.627 -15.536 -23.236  0.00  0.00    +0.078 C 
ATOM     26  C   UNL     1      34.857 -15.355 -21.883  0.00  0.00    +0.155 C 
ATOM     27  C   UNL     1      34.666 -16.795 -23.814  0.00  0.00    +0.018 C 
ATOM     28  C   UNL     1      35.178 -17.738 -21.649  0.00  0.00    +0.061 C 
ATOM     29  C   UNL     1      35.134 -16.464 -21.083  0.00  0.00    +0.046 C 
ATOM     30  C   UNL     1      34.944 -17.903 -23.014  0.00  0.00    +0.017 C 
BRANCH  28  32
ATOM     31  O   UNL     1      37.821 -18.615 -20.869  0.00  0.00    -0.269 OA
ATOM     32  N   UNL     1      35.467 -18.890 -20.817  0.00  0.00    -0.233 N 
ATOM     33  C   UNL     1      36.810 -19.193 -20.472  0.00  0.00    +0.257 C 
ATOM     34  C   UNL     1      34.436 -19.718 -20.371  0.00  0.00    +0.072 C 
ATOM     35  C   UNL     1      37.016 -20.371 -19.573  0.00  0.00    +0.059 C 
ATOM     36  C   UNL     1      34.649 -20.785 -19.594  0.00  0.00    +0.017 C 
ATOM     37  C   UNL     1      35.980 -21.114 -19.178  0.00  0.00    +0.006 C 
ENDBRANCH  28  32
ENDBRANCH  21  25
ENDBRANCH   1  22
TORSDOF 7
ENDMDL
MODEL 4
REMARK VINA RESULT:     -11.3      7.475     14.240
REMARK  Name = 11979006
REMARK  7 active torsions:
REMARK  status: ('A' for Active; 'I' for Inactive)
REMARK    1  A    between atoms: C_1  and  N_2
REMARK    2  A    between atoms: C_1  and  C_22
REMARK    3  A    between atoms: C_3  and  N_9
REMARK    4  A    between atoms: C_4  and  O_18
REMARK    5  A    between atoms: C_10  and  C_14
REMARK    6  A    between atoms: N_21  and  C_25
REMARK    7  A    between atoms: C_28  and  N_32
REMARK                            x       y       z     vdW  Elec       q    Type
REMARK                         _______ _______ _______ _____ _____    ______ ____
ROOT
ATOM      1  C   UNL     1      34.166 -11.873 -23.899  0.00  0.00    +0.010 C 
ENDROOT
BRANCH   1   2
ATOM      2  N   UNL     1      33.047 -11.071 -23.428  0.00  0.00    +0.396 N 
ATOM      3  C   UNL     1      32.022  -9.028 -23.083  0.00  0.00    +0.076 C 
ATOM      4  C   UNL     1      32.165  -9.702 -21.716  0.00  0.00    +0.106 C 
ATOM      5  C   UNL     1      33.086  -9.701 -23.939  0.00  0.00    -0.054 C 
ATOM      6  C   UNL     1      33.023 -10.944 -21.966  0.00  0.00    -0.045 C 
ATOM      7  H   UNL     1      32.225 -11.569 -23.769  0.00  0.00    -0.079 HD
BRANCH   3   9
ATOM      8  O   UNL     1      30.380  -7.110 -24.338  0.00  0.00    -0.270 OA
ATOM      9  N   UNL     1      32.193  -7.603 -23.015  0.00  0.00    -0.302 N 
ATOM     10  C   UNL     1      31.334  -6.714 -23.667  0.00  0.00    +0.252 C 
ATOM     11  H   UNL     1      32.942  -7.239 -22.491  0.00  0.00    +0.150 HD
BRANCH  10  14
ATOM     12 CL   UNL     1      32.064  -1.786 -21.394  0.00  0.00    -0.075 Cl
ATOM     13  S   UNL     1      31.509  -4.657 -21.909  0.00  0.00    -0.071 S 
ATOM     14  C   UNL     1      31.620  -5.285 -23.477  0.00  0.00    +0.084 C 
ATOM     15  C   UNL     1      31.970  -4.385 -24.423  0.00  0.00    +0.012 C 
ATOM     16  C   UNL     1      32.162  -3.097 -23.843  0.00  0.00    +0.019 C 
ATOM     17  C   UNL     1      31.944  -3.104 -22.484  0.00  0.00    +0.087 C 
ENDBRANCH  10  14
ENDBRANCH   3   9
BRANCH   4  18
ATOM     18  O   UNL     1      30.877 -10.065 -21.234  0.00  0.00    -0.385 OA
ATOM     19  H   UNL     1      30.603 -10.900 -21.644  0.00  0.00    +0.210 HD
ENDBRANCH   4  18
ENDBRANCH   1   2
BRANCH   1  22
ATOM     20  O   UNL     1      32.987 -13.971 -24.087  0.00  0.00    -0.277 OA
ATOM     21  N   UNL     1      34.852 -13.805 -22.669  0.00  0.00    -0.284 N 
ATOM     22  C   UNL     1      33.908 -13.336 -23.580  0.00  0.00    +0.205 C 
ATOM     23  H   UNL     1      35.527 -13.154 -22.369  0.00  0.00    +0.155 HD
BRANCH  21  25
ATOM     24  F   UNL     1      35.231 -16.021 -24.299  0.00  0.00    -0.203 F 
ATOM     25  C   UNL     1      34.955 -15.107 -22.124  0.00  0.00    +0.078 C 
ATOM     26  C   UNL     1      35.144 -16.187 -22.971  0.00  0.00    +0.155 C 
ATOM     27  C   UNL     1      34.864 -15.273 -20.752  0.00  0.00    +0.018 C 
ATOM     28  C   UNL     1      35.154 -17.653 -21.051  0.00  0.00    +0.061 C 
ATOM     29  C   UNL     1      35.244 -17.469 -22.431  0.00  0.00    +0.046 C 
ATOM     30  C   UNL     1      34.963 -16.555 -20.212  0.00  0.00    +0.017 C 
BRANCH  28  32
ATOM     31  O   UNL     1      37.623 -18.977 -20.334  0.00  0.00    -0.269 OA
ATOM     32  N   UNL     1      35.258 -18.986 -20.490  0.00  0.00    -0.233 N 
ATOM     33  C   UNL     1      36.531 -19.510 -20.143  0.00  0.00    +0.257 C 
ATOM     34  C   UNL     1      34.116 -19.769 -20.309  0.00  0.00    +0.072 C 
ATOM     35  C   UNL     1      36.543 -20.872 -19.527  0.00  0.00    +0.059 C 
ATOM     36  C   UNL     1      34.158 -20.999 -19.786  0.00  0.00    +0.017 C 
ATOM     37  C   UNL     1      35.410 -21.562 -19.377  0.00  0.00    +0.006 C 
ENDBRANCH  28  32
ENDBRANCH  21  25
ENDBRANCH   1  22
TORSDOF 7
ENDMDL
MODEL 5
REMARK VINA RESULT:     -11.3      5.232     12.162
REMARK  Name = 11979006
REMARK  7 active torsions:
REMARK  status: ('A' for Active; 'I' for Inactive)
REMARK    1  A    between atoms: C_1  and  N_2
REMARK    2  A    between atoms: C_1  and  C_22
REMARK    3  A    between atoms: C_3  and  N_9
REMARK    4  A    between atoms: C_4  and  O_18
REMARK    5  A    between atoms: C_10  and  C_14
REMARK    6  A    between atoms: N_21  and  C_25
REMARK    7  A    between atoms: C_28  and  N_32
REMARK                            x       y       z     vdW  Elec       q    Type
REMARK                         _______ _______ _______ _____ _____    ______ ____
ROOT
ATOM      1  C   UNL     1      34.897 -20.096 -20.961  0.00  0.00    +0.010 C 
ENDROOT
BRANCH   1   2
ATOM      2  N   UNL     1      35.271 -18.784 -21.469  0.00  0.00    +0.396 N 
ATOM      3  C   UNL     1      35.032 -16.485 -21.513  0.00  0.00    +0.076 C 
ATOM      4  C   UNL     1      34.758 -16.998 -22.929  0.00  0.00    +0.106 C 
ATOM      5  C   UNL     1      34.775 -17.695 -20.626  0.00  0.00    -0.054 C 
ATOM      6  C   UNL     1      34.726 -18.523 -22.806  0.00  0.00    -0.045 C 
ATOM      7  H   UNL     1      36.290 -18.806 -21.483  0.00  0.00    -0.079 HD
BRANCH   3   9
ATOM      8  O   UNL     1      34.975 -14.001 -22.845  0.00  0.00    -0.270 OA
ATOM      9  N   UNL     1      34.204 -15.364 -21.164  0.00  0.00    -0.302 N 
ATOM     10  C   UNL     1      34.232 -14.162 -21.875  0.00  0.00    +0.252 C 
ATOM     11  H   UNL     1      33.595 -15.445 -20.395  0.00  0.00    +0.150 HD
BRANCH  10  14
ATOM     12 CL   UNL     1      31.220  -9.597 -21.597  0.00  0.00    -0.075 Cl
ATOM     13  S   UNL     1      33.071 -11.771 -22.412  0.00  0.00    -0.071 S 
ATOM     14  C   UNL     1      33.304 -13.119 -21.416  0.00  0.00    +0.084 C 
ATOM     15  C   UNL     1      32.594 -13.101 -20.266  0.00  0.00    +0.012 C 
ATOM     16  C   UNL     1      31.806 -11.917 -20.181  0.00  0.00    +0.019 C 
ATOM     17  C   UNL     1      31.970 -11.106 -21.282  0.00  0.00    +0.087 C 
ENDBRANCH  10  14
ENDBRANCH   3   9
BRANCH   4  18
ATOM     18  O   UNL     1      35.809 -16.582 -23.791  0.00  0.00    -0.385 OA
ATOM     19  H   UNL     1      36.595 -16.371 -23.264  0.00  0.00    +0.210 HD
ENDBRANCH   4  18
ENDBRANCH   1   2
BRANCH   1  22
ATOM     20  O   UNL     1      36.812 -19.885 -19.508  0.00  0.00    -0.277 OA
ATOM     21  N   UNL     1      35.074 -21.357 -18.938  0.00  0.00    -0.284 N 
ATOM     22  C   UNL     1      35.728 -20.415 -19.730  0.00  0.00    +0.205 C 
ATOM     23  H   UNL     1      34.202 -21.673 -19.270  0.00  0.00    +0.155 HD
BRANCH  21  25
ATOM     24  F   UNL     1      33.368 -22.857 -17.342  0.00  0.00    -0.203 F 
ATOM     25  C   UNL     1      35.515 -21.913 -17.713  0.00  0.00    +0.078 C 
ATOM     26  C   UNL     1      34.633 -22.655 -16.946  0.00  0.00    +0.155 C 
ATOM     27  C   UNL     1      36.823 -21.700 -17.309  0.00  0.00    +0.018 C 
ATOM     28  C   UNL     1      36.385 -22.996 -15.317  0.00  0.00    +0.061 C 
ATOM     29  C   UNL     1      35.071 -23.201 -15.739  0.00  0.00    +0.046 C 
ATOM     30  C   UNL     1      37.261 -22.245 -16.103  0.00  0.00    +0.017 C 
BRANCH  28  32
ATOM     31  O   UNL     1      37.037 -25.780 -14.880  0.00  0.00    -0.269 OA
ATOM     32  N   UNL     1      36.839 -23.563 -14.063  0.00  0.00    -0.233 N 
ATOM     33  C   UNL     1      37.166 -24.942 -13.988  0.00  0.00    +0.257 C 
ATOM     34  C   UNL     1      36.937 -22.767 -12.920  0.00  0.00    +0.072 C 
ATOM     35  C   UNL     1      37.672 -25.435 -12.669  0.00  0.00    +0.059 C 
ATOM     36  C   UNL     1      37.361 -23.239 -11.743  0.00  0.00    +0.017 C 
ATOM     37  C   UNL     1      37.746 -24.614 -11.619  0.00  0.00    +0.006 C 
ENDBRANCH  28  32
ENDBRANCH  21  25
ENDBRANCH   1  22
TORSDOF 7
ENDMDL
MODEL 6
REMARK VINA RESULT:     -11.1      3.541      6.036
REMARK  Name = 11979006
REMARK  7 active torsions:
REMARK  status: ('A' for Active; 'I' for Inactive)
REMARK    1  A    between atoms: C_1  and  N_2
REMARK    2  A    between atoms: C_1  and  C_22
REMARK    3  A    between atoms: C_3  and  N_9
REMARK    4  A    between atoms: C_4  and  O_18
REMARK    5  A    between atoms: C_10  and  C_14
REMARK    6  A    between atoms: N_21  and  C_25
REMARK    7  A    between atoms: C_28  and  N_32
REMARK                            x       y       z     vdW  Elec       q    Type
REMARK                         _______ _______ _______ _____ _____    ______ ____
ROOT
ATOM      1  C   UNL     1      34.387 -17.039 -23.736  0.00  0.00    +0.010 C 
ENDROOT
BRANCH   1   2
ATOM      2  N   UNL     1      35.201 -17.922 -22.916  0.00  0.00    +0.396 N 
ATOM      3  C   UNL     1      35.414 -19.597 -21.337  0.00  0.00    +0.076 C 
ATOM      4  C   UNL     1      36.131 -18.361 -20.788  0.00  0.00    +0.106 C 
ATOM      5  C   UNL     1      34.432 -19.032 -22.354  0.00  0.00    -0.054 C 
ATOM      6  C   UNL     1      35.792 -17.232 -21.763  0.00  0.00    -0.045 C 
ATOM      7  H   UNL     1      35.921 -18.258 -23.554  0.00  0.00    -0.079 HD
BRANCH   3   9
ATOM      8  O   UNL     1      36.693 -21.257 -19.451  0.00  0.00    -0.270 OA
ATOM      9  N   UNL     1      34.760 -20.356 -20.307  0.00  0.00    -0.302 N 
ATOM     10  C   UNL     1      35.466 -21.159 -19.407  0.00  0.00    +0.252 C 
ATOM     11  H   UNL     1      33.780 -20.310 -20.233  0.00  0.00    +0.150 HD
BRANCH  10  14
ATOM     12 CL   UNL     1      33.916 -23.764 -14.846  0.00  0.00    -0.075 Cl
ATOM     13  S   UNL     1      35.435 -22.360 -16.975  0.00  0.00    -0.071 S 
ATOM     14  C   UNL     1      34.659 -21.850 -18.390  0.00  0.00    +0.084 C 
ATOM     15  C   UNL     1      33.340 -22.137 -18.446  0.00  0.00    +0.012 C 
ATOM     16  C   UNL     1      32.924 -22.817 -17.264  0.00  0.00    +0.019 C 
ATOM     17  C   UNL     1      33.964 -23.002 -16.381  0.00  0.00    +0.087 C 
ENDBRANCH  10  14
ENDBRANCH   3   9
BRANCH   4  18
ATOM     18  O   UNL     1      37.532 -18.604 -20.763  0.00  0.00    -0.385 OA
ATOM     19  H   UNL     1      37.887 -18.355 -19.896  0.00  0.00    +0.210 HD
ENDBRANCH   4  18
ENDBRANCH   1   2
BRANCH   1  22
ATOM     20  O   UNL     1      35.760 -15.208 -22.971  0.00  0.00    -0.277 OA
ATOM     21  N   UNL     1      33.502 -14.831 -23.494  0.00  0.00    -0.284 N 
ATOM     22  C   UNL     1      34.658 -15.595 -23.347  0.00  0.00    +0.205 C 
ATOM     23  H   UNL     1      32.703 -15.309 -23.814  0.00  0.00    +0.155 HD
BRANCH  21  25
ATOM     24  F   UNL     1      32.531 -13.926 -21.055  0.00  0.00    -0.203 F 
ATOM     25  C   UNL     1      33.342 -13.449 -23.236  0.00  0.00    +0.078 C 
ATOM     26  C   UNL     1      32.854 -13.038 -22.006  0.00  0.00    +0.155 C 
ATOM     27  C   UNL     1      33.677 -12.536 -24.222  0.00  0.00    +0.018 C 
ATOM     28  C   UNL     1      33.030 -10.742 -22.738  0.00  0.00    +0.061 C 
ATOM     29  C   UNL     1      32.697 -11.675 -21.756  0.00  0.00    +0.046 C 
ATOM     30  C   UNL     1      33.520 -11.173 -23.972  0.00  0.00    +0.017 C 
BRANCH  28  32
ATOM     31  O   UNL     1      30.628  -9.498 -21.713  0.00  0.00    -0.269 OA
ATOM     32  N   UNL     1      32.866  -9.325 -22.477  0.00  0.00    -0.233 N 
ATOM     33  C   UNL     1      31.646  -8.843 -21.935  0.00  0.00    +0.257 C 
ATOM     34  C   UNL     1      33.891  -8.426 -22.777  0.00  0.00    +0.072 C 
ATOM     35  C   UNL     1      31.578  -7.376 -21.652  0.00  0.00    +0.059 C 
ATOM     36  C   UNL     1      33.793  -7.113 -22.545  0.00  0.00    +0.017 C 
ATOM     37  C   UNL     1      32.601  -6.576 -21.958  0.00  0.00    +0.006 C 
ENDBRANCH  28  32
ENDBRANCH  21  25
ENDBRANCH   1  22
TORSDOF 7
ENDMDL
MODEL 7
REMARK VINA RESULT:     -10.9      1.380      1.682
REMARK  Name = 11979006
REMARK  7 active torsions:
REMARK  status: ('A' for Active; 'I' for Inactive)
REMARK    1  A    between atoms: C_1  and  N_2
REMARK    2  A    between atoms: C_1  and  C_22
REMARK    3  A    between atoms: C_3  and  N_9
REMARK    4  A    between atoms: C_4  and  O_18
REMARK    5  A    between atoms: C_10  and  C_14
REMARK    6  A    between atoms: N_21  and  C_25
REMARK    7  A    between atoms: C_28  and  N_32
REMARK                            x       y       z     vdW  Elec       q    Type
REMARK                         _______ _______ _______ _____ _____    ______ ____
ROOT
ATOM      1  C   UNL     1      35.451 -20.969 -20.050  0.00  0.00    +0.010 C 
ENDROOT
BRANCH   1   2
ATOM      2  N   UNL     1      34.826 -21.362 -18.797  0.00  0.00    +0.396 N 
ATOM      3  C   UNL     1      34.902 -22.401 -16.733  0.00  0.00    +0.076 C 
ATOM      4  C   UNL     1      33.795 -23.080 -17.543  0.00  0.00    +0.106 C 
ATOM      5  C   UNL     1      35.803 -21.777 -17.789  0.00  0.00    -0.054 C 
ATOM      6  C   UNL     1      33.919 -22.505 -18.955  0.00  0.00    -0.045 C 
ATOM      7  H   UNL     1      34.321 -20.528 -18.499  0.00  0.00    -0.079 HD
BRANCH   3   9
ATOM      8  O   UNL     1      37.066 -21.759 -15.044  0.00  0.00    -0.270 OA
ATOM      9  N   UNL     1      35.608 -23.322 -15.885  0.00  0.00    -0.302 N 
ATOM     10  C   UNL     1      36.674 -22.926 -15.074  0.00  0.00    +0.252 C 
ATOM     11  H   UNL     1      35.331 -24.267 -15.876  0.00  0.00    +0.150 HD
BRANCH  10  14
ATOM     12 CL   UNL     1      37.528 -26.598 -11.102  0.00  0.00    -0.075 Cl
ATOM     13  S   UNL     1      36.423 -24.481 -12.867  0.00  0.00    -0.071 S 
ATOM     14  C   UNL     1      37.275 -23.977 -14.240  0.00  0.00    +0.084 C 
ATOM     15  C   UNL     1      38.454 -24.608 -14.437  0.00  0.00    +0.012 C 
ATOM     16  C   UNL     1      38.688 -25.566 -13.408  0.00  0.00    +0.019 C 
ATOM     17  C   UNL     1      37.662 -25.600 -12.490  0.00  0.00    +0.087 C 
ENDBRANCH  10  14
ENDBRANCH   3   9
BRANCH   4  18
ATOM     18  O   UNL     1      32.532 -22.759 -16.975  0.00  0.00    -0.385 OA
ATOM     19  H   UNL     1      32.166 -23.544 -16.539  0.00  0.00    +0.210 HD
ENDBRANCH   4  18
ENDBRANCH   1   2
BRANCH   1  22
ATOM     20  O   UNL     1      33.433 -19.782 -20.634  0.00  0.00    -0.277 OA
ATOM     21  N   UNL     1      35.521 -18.908 -21.260  0.00  0.00    -0.284 N 
ATOM     22  C   UNL     1      34.659 -19.833 -20.674  0.00  0.00    +0.205 C 
ATOM     23  H   UNL     1      36.483 -19.109 -21.193  0.00  0.00    +0.155 HD
BRANCH  21  25
ATOM     24  F   UNL     1      35.398 -16.476 -19.926  0.00  0.00    -0.203 F 
ATOM     25  C   UNL     1      35.177 -17.716 -21.940  0.00  0.00    +0.078 C 
ATOM     26  C   UNL     1      35.126 -16.523 -21.239  0.00  0.00    +0.155 C 
ATOM     27  C   UNL     1      34.898 -17.769 -23.296  0.00  0.00    +0.018 C 
ATOM     28  C   UNL     1      34.502 -15.386 -23.277  0.00  0.00    +0.061 C 
ATOM     29  C   UNL     1      34.787 -15.349 -21.912  0.00  0.00    +0.046 C 
ATOM     30  C   UNL     1      34.557 -16.596 -23.969  0.00  0.00    +0.017 C 
BRANCH  28  32
ATOM     31  O   UNL     1      33.685 -15.223 -26.047  0.00  0.00    -0.269 OA
ATOM     32  N   UNL     1      34.148 -14.166 -23.976  0.00  0.00    -0.233 N 
ATOM     33  C   UNL     1      33.723 -14.224 -25.329  0.00  0.00    +0.257 C 
ATOM     34  C   UNL     1      34.243 -12.929 -23.335  0.00  0.00    +0.072 C 
ATOM     35  C   UNL     1      33.332 -12.926 -25.960  0.00  0.00    +0.059 C 
ATOM     36  C   UNL     1      33.918 -11.778 -23.932  0.00  0.00    +0.017 C 
ATOM     37  C   UNL     1      33.442 -11.780 -25.283  0.00  0.00    +0.006 C 
ENDBRANCH  28  32
ENDBRANCH  21  25
ENDBRANCH   1  22
TORSDOF 7
ENDMDL
MODEL 8
REMARK VINA RESULT:     -10.8      2.954      4.660
REMARK  Name = 11979006
REMARK  7 active torsions:
REMARK  status: ('A' for Active; 'I' for Inactive)
REMARK    1  A    between atoms: C_1  and  N_2
REMARK    2  A    between atoms: C_1  and  C_22
REMARK    3  A    between atoms: C_3  and  N_9
REMARK    4  A    between atoms: C_4  and  O_18
REMARK    5  A    between atoms: C_10  and  C_14
REMARK    6  A    between atoms: N_21  and  C_25
REMARK    7  A    between atoms: C_28  and  N_32
REMARK                            x       y       z     vdW  Elec       q    Type
REMARK                         _______ _______ _______ _____ _____    ______ ____
ROOT
ATOM      1  C   UNL     1      32.213 -23.831 -15.916  0.00  0.00    +0.010 C 
ENDROOT
BRANCH   1   2
ATOM      2  N   UNL     1      33.050 -23.410 -14.802  0.00  0.00    +0.396 N 
ATOM      3  C   UNL     1      35.112 -23.231 -13.773  0.00  0.00    +0.076 C 
ATOM      4  C   UNL     1      34.206 -24.035 -12.838  0.00  0.00    +0.106 C 
ATOM      5  C   UNL     1      34.473 -23.402 -15.144  0.00  0.00    -0.054 C 
ATOM      6  C   UNL     1      32.932 -24.301 -13.642  0.00  0.00    -0.045 C 
ATOM      7  H   UNL     1      32.718 -22.472 -14.584  0.00  0.00    -0.079 HD
BRANCH   3   9
ATOM      8  O   UNL     1      36.092 -25.581 -14.985  0.00  0.00    -0.270 OA
ATOM      9  N   UNL     1      36.475 -23.685 -13.744  0.00  0.00    -0.302 N 
ATOM     10  C   UNL     1      36.885 -24.865 -14.371  0.00  0.00    +0.252 C 
ATOM     11  H   UNL     1      37.145 -23.147 -13.264  0.00  0.00    +0.150 HD
BRANCH  10  14
ATOM     12 CL   UNL     1      41.637 -27.290 -13.136  0.00  0.00    -0.075 Cl
ATOM     13  S   UNL     1      38.774 -26.548 -13.395  0.00  0.00    -0.071 S 
ATOM     14  C   UNL     1      38.318 -25.179 -14.280  0.00  0.00    +0.084 C 
ATOM     15  C   UNL     1      39.345 -24.493 -14.828  0.00  0.00    +0.012 C 
ATOM     16  C   UNL     1      40.589 -25.114 -14.512  0.00  0.00    +0.019 C 
ATOM     17  C   UNL     1      40.422 -26.241 -13.739  0.00  0.00    +0.087 C 
ENDBRANCH  10  14
ENDBRANCH   3   9
BRANCH   4  18
ATOM     18  O   UNL     1      33.921 -23.262 -11.680  0.00  0.00    -0.385 OA
ATOM     19  H   UNL     1      34.744 -23.090 -11.196  0.00  0.00    +0.210 HD
ENDBRANCH   4  18
ENDBRANCH   1   2
BRANCH   1  22
ATOM     20  O   UNL     1      31.082 -22.030 -17.057  0.00  0.00    -0.277 OA
ATOM     21  N   UNL     1      33.303 -22.551 -17.616  0.00  0.00    -0.284 N 
ATOM     22  C   UNL     1      32.104 -22.697 -16.921  0.00  0.00    +0.205 C 
ATOM     23  H   UNL     1      34.024 -23.175 -17.372  0.00  0.00    +0.155 HD
BRANCH  21  25
ATOM     24  F   UNL     1      35.918 -22.112 -18.437  0.00  0.00    -0.203 F 
ATOM     25  C   UNL     1      33.605 -21.612 -18.630  0.00  0.00    +0.078 C 
ATOM     26  C   UNL     1      34.923 -21.422 -19.011  0.00  0.00    +0.155 C 
ATOM     27  C   UNL     1      32.573 -20.902 -19.221  0.00  0.00    +0.018 C 
ATOM     28  C   UNL     1      34.189 -19.772 -20.616  0.00  0.00    +0.061 C 
ATOM     29  C   UNL     1      35.217 -20.496 -20.012  0.00  0.00    +0.046 C 
ATOM     30  C   UNL     1      32.867 -19.975 -20.220  0.00  0.00    +0.017 C 
BRANCH  28  32
ATOM     31  O   UNL     1      35.456 -17.206 -20.195  0.00  0.00    -0.269 OA
ATOM     32  N   UNL     1      34.496 -18.808 -21.655  0.00  0.00    -0.233 N 
ATOM     33  C   UNL     1      35.158 -17.597 -21.323  0.00  0.00    +0.257 C 
ATOM     34  C   UNL     1      34.125 -19.052 -22.979  0.00  0.00    +0.072 C 
ATOM     35  C   UNL     1      35.478 -16.681 -22.461  0.00  0.00    +0.059 C 
ATOM     36  C   UNL     1      34.395 -18.201 -23.974  0.00  0.00    +0.017 C 
ATOM     37  C   UNL     1      35.099 -16.983 -23.705  0.00  0.00    +0.006 C 
ENDBRANCH  28  32
ENDBRANCH  21  25
ENDBRANCH   1  22
TORSDOF 7
ENDMDL
MODEL 9
REMARK VINA RESULT:     -10.7      4.774      8.127
REMARK  Name = 11979006
REMARK  7 active torsions:
REMARK  status: ('A' for Active; 'I' for Inactive)
REMARK    1  A    between atoms: C_1  and  N_2
REMARK    2  A    between atoms: C_1  and  C_22
REMARK    3  A    between atoms: C_3  and  N_9
REMARK    4  A    between atoms: C_4  and  O_18
REMARK    5  A    between atoms: C_10  and  C_14
REMARK    6  A    between atoms: N_21  and  C_25
REMARK    7  A    between atoms: C_28  and  N_32
REMARK                            x       y       z     vdW  Elec       q    Type
REMARK                         _______ _______ _______ _____ _____    ______ ____
ROOT
ATOM      1  C   UNL     1      34.138 -14.721 -24.454  0.00  0.00    +0.010 C 
ENDROOT
BRANCH   1   2
ATOM      2  N   UNL     1      34.741 -14.891 -23.141  0.00  0.00    +0.396 N 
ATOM      3  C   UNL     1      35.373 -16.220 -21.358  0.00  0.00    +0.076 C 
ATOM      4  C   UNL     1      34.401 -15.167 -20.819  0.00  0.00    +0.106 C 
ATOM      5  C   UNL     1      35.053 -16.290 -22.845  0.00  0.00    -0.054 C 
ATOM      6  C   UNL     1      33.858 -14.449 -22.055  0.00  0.00    -0.045 C 
ATOM      7  H   UNL     1      35.588 -14.325 -23.183  0.00  0.00    -0.079 HD
BRANCH   3   9
ATOM      8  O   UNL     1      37.156 -18.395 -21.562  0.00  0.00    -0.270 OA
ATOM      9  N   UNL     1      35.224 -17.492 -20.705  0.00  0.00    -0.302 N 
ATOM     10  C   UNL     1      36.154 -18.524 -20.857  0.00  0.00    +0.252 C 
ATOM     11  H   UNL     1      34.439 -17.642 -20.132  0.00  0.00    +0.150 HD
BRANCH  10  14
ATOM     12 CL   UNL     1      33.599 -22.775 -18.537  0.00  0.00    -0.075 Cl
ATOM     13  S   UNL     1      34.281 -20.302 -20.032  0.00  0.00    -0.071 S 
ATOM     14  C   UNL     1      35.880 -19.754 -20.100  0.00  0.00    +0.084 C 
ATOM     15  C   UNL     1      36.770 -20.522 -19.432  0.00  0.00    +0.012 C 
ATOM     16  C   UNL     1      36.117 -21.632 -18.823  0.00  0.00    +0.019 C 
ATOM     17  C   UNL     1      34.762 -21.634 -19.070  0.00  0.00    +0.087 C 
ENDBRANCH  10  14
ENDBRANCH   3   9
BRANCH   4  18
ATOM     18  O   UNL     1      35.107 -14.263 -19.978  0.00  0.00    -0.385 OA
ATOM     19  H   UNL     1      34.505 -13.915 -19.302  0.00  0.00    +0.210 HD
ENDBRANCH   4  18
ENDBRANCH   1   2
BRANCH   1  22
ATOM     20  O   UNL     1      32.703 -13.040 -25.421  0.00  0.00    -0.277 OA
ATOM     21  N   UNL     1      33.972 -12.530 -23.512  0.00  0.00    -0.284 N 
ATOM     22  C   UNL     1      33.508 -13.342 -24.545  0.00  0.00    +0.205 C 
ATOM     23  H   UNL     1      34.617 -12.942 -22.893  0.00  0.00    +0.155 HD
BRANCH  21  25
ATOM     24  F   UNL     1      35.369 -10.432 -24.676  0.00  0.00    -0.203 F 
ATOM     25  C   UNL     1      33.626 -11.183 -23.249  0.00  0.00    +0.078 C 
ATOM     26  C   UNL     1      34.347 -10.165 -23.850  0.00  0.00    +0.155 C 
ATOM     27  C   UNL     1      32.569 -10.914 -22.395  0.00  0.00    +0.018 C 
ATOM     28  C   UNL     1      32.943  -8.550 -22.730  0.00  0.00    +0.061 C 
ATOM     29  C   UNL     1      34.004  -8.839 -23.588  0.00  0.00    +0.046 C 
ATOM     30  C   UNL     1      32.226  -9.587 -22.133  0.00  0.00    +0.017 C 
BRANCH  28  32
ATOM     31  O   UNL     1      33.427  -7.158 -20.241  0.00  0.00    -0.269 OA
ATOM     32  N   UNL     1      32.586  -7.171 -22.458  0.00  0.00    -0.233 N 
ATOM     33  C   UNL     1      32.916  -6.590 -21.205  0.00  0.00    +0.257 C 
ATOM     34  C   UNL     1      31.901  -6.415 -23.411  0.00  0.00    +0.072 C 
ATOM     35  C   UNL     1      32.554  -5.150 -21.025  0.00  0.00    +0.059 C 
ATOM     36  C   UNL     1      31.560  -5.138 -23.212  0.00  0.00    +0.017 C 
ATOM     37  C   UNL     1      31.905  -4.486 -21.984  0.00  0.00    +0.006 C 
ENDBRANCH  28  32
ENDBRANCH  21  25
ENDBRANCH   1  22
TORSDOF 7
ENDMDL
