MODEL 1
REMARK VINA RESULT:     -11.9      0.000      0.000
REMARK  Name = 446805
REMARK  6 active torsions:
REMARK  status: ('A' for Active; 'I' for Inactive)
REMARK    1  A    between atoms: C_4  and  C_22
REMARK    2  A    between atoms: C_7  and  N_11
REMARK    3  A    between atoms: N_11  and  S_13
REMARK    4  A    between atoms: S_13  and  C_16
REMARK    5  A    between atoms: C_22  and  C_23
REMARK    6  A    between atoms: C_28  and  C_31
REMARK                            x       y       z     vdW  Elec       q    Type
REMARK                         _______ _______ _______ _____ _____    ______ ____
ROOT
ATOM      1  N   UNL     1      34.813 -16.844 -23.508  0.00  0.00    -0.262 N 
ATOM      2  N   UNL     1      35.499 -15.961 -21.587  0.00  0.00    -0.394 NA
ATOM      3  C   UNL     1      34.233 -15.603 -23.448  0.00  0.00    +0.079 C 
ATOM      4  C   UNL     1      35.558 -17.011 -22.375  0.00  0.00    +0.168 C 
ATOM      5  C   UNL     1      34.678 -15.071 -22.241  0.00  0.00    +0.129 C 
ATOM      6  C   UNL     1      34.262 -13.783 -21.865  0.00  0.00    +0.103 C 
ATOM      7  C   UNL     1      33.410 -13.078 -22.725  0.00  0.00    +0.050 C 
ATOM      8  C   UNL     1      33.386 -14.919 -24.321  0.00  0.00    +0.018 C 
ATOM      9  C   UNL     1      34.658 -17.802 -24.579  0.00  0.00    +0.119 C 
ATOM     10  C   UNL     1      32.982 -13.638 -23.931  0.00  0.00    +0.013 C 
ENDROOT
BRANCH   7  11
ATOM     11  N   UNL     1      32.974 -11.767 -22.362  0.00  0.00    -0.219 N 
ATOM     12  H   UNL     1      32.392 -11.614 -21.582  0.00  0.00    +0.173 HD
BRANCH  11  13
ATOM     13  S   UNL     1      33.522 -10.457 -23.361  0.00  0.00    +0.073 S 
ATOM     14  O   UNL     1      32.705 -10.392 -24.558  0.00  0.00    -0.150 OA
ATOM     15  O   UNL     1      34.969 -10.505 -23.460  0.00  0.00    -0.150 OA
BRANCH  13  16
ATOM     16  C   UNL     1      33.124  -9.052 -22.363  0.00  0.00    +0.125 C 
ATOM     17  C   UNL     1      32.155  -9.175 -21.382  0.00  0.00    +0.020 C 
ATOM     18  C   UNL     1      33.788  -7.859 -22.582  0.00  0.00    +0.020 C 
ATOM     19  C   UNL     1      31.842  -8.067 -20.595  0.00  0.00    +0.001 C 
ATOM     20  C   UNL     1      33.475  -6.751 -21.794  0.00  0.00    +0.001 C 
ATOM     21  C   UNL     1      32.502  -6.855 -20.801  0.00  0.00    +0.000 C 
ENDBRANCH  13  16
ENDBRANCH  11  13
ENDBRANCH   7  11
BRANCH   4  22
ATOM     22  C   UNL     1      36.322 -18.249 -22.112  0.00  0.00    +0.101 C 
BRANCH  22  23
ATOM     23  C   UNL     1      35.633 -19.207 -21.148  0.00  0.00    -0.014 C 
ATOM     24  C   UNL     1      36.403 -19.917 -20.251  0.00  0.00    -0.004 C 
ATOM     25  C   UNL     1      34.261 -19.334 -21.204  0.00  0.00    -0.004 C 
ATOM     26  C   UNL     1      35.772 -20.794 -19.368  0.00  0.00    +0.002 C 
ATOM     27  C   UNL     1      33.630 -20.211 -20.322  0.00  0.00    +0.002 C 
ATOM     28  C   UNL     1      34.385 -20.941 -19.404  0.00  0.00    +0.031 C 
BRANCH  28  31
ATOM     29  N   UNL     1      32.349 -21.813 -18.282  0.00  0.00    -0.343 N 
ATOM     30  N   UNL     1      34.441 -22.747 -17.820  0.00  0.00    -0.285 NA
ATOM     31  C   UNL     1      33.727 -21.856 -18.485  0.00  0.00    +0.117 C 
ATOM     32  H   UNL     1      31.925 -22.443 -17.655  0.00  0.00    +0.144 HD
ATOM     33  H   UNL     1      31.800 -21.155 -18.766  0.00  0.00    +0.144 HD
ATOM     34  H   UNL     1      33.998 -23.367 -17.197  0.00  0.00    +0.188 HD
ENDBRANCH  28  31
ENDBRANCH  22  23
ENDBRANCH   4  22
TORSDOF 6
ENDMDL
MODEL 2
REMARK VINA RESULT:     -11.8      3.462     10.029
REMARK  Name = 446805
REMARK  6 active torsions:
REMARK  status: ('A' for Active; 'I' for Inactive)
REMARK    1  A    between atoms: C_4  and  C_22
REMARK    2  A    between atoms: C_7  and  N_11
REMARK    3  A    between atoms: N_11  and  S_13
REMARK    4  A    between atoms: S_13  and  C_16
REMARK    5  A    between atoms: C_22  and  C_23
REMARK    6  A    between atoms: C_28  and  C_31
REMARK                            x       y       z     vdW  Elec       q    Type
REMARK                         _______ _______ _______ _____ _____    ______ ____
ROOT
ATOM      1  N   UNL     1      33.852 -13.693 -24.636  0.00  0.00    -0.262 N 
ATOM      2  N   UNL     1      34.310 -12.811 -22.647  0.00  0.00    -0.394 NA
ATOM      3  C   UNL     1      34.228 -14.748 -23.845  0.00  0.00    +0.079 C 
ATOM      4  C   UNL     1      33.917 -12.559 -23.876  0.00  0.00    +0.168 C 
ATOM      5  C   UNL     1      34.508 -14.173 -22.609  0.00  0.00    +0.129 C 
ATOM      6  C   UNL     1      34.929 -14.994 -21.550  0.00  0.00    +0.103 C 
ATOM      7  C   UNL     1      35.052 -16.370 -21.780  0.00  0.00    +0.050 C 
ATOM      8  C   UNL     1      34.342 -16.116 -24.097  0.00  0.00    +0.018 C 
ATOM      9  C   UNL     1      33.459 -13.770 -26.025  0.00  0.00    +0.119 C 
ATOM     10  C   UNL     1      34.762 -16.919 -23.032  0.00  0.00    +0.013 C 
ENDROOT
BRANCH   7  11
ATOM     11  N   UNL     1      35.479 -17.224 -20.718  0.00  0.00    -0.219 N 
ATOM     12  H   UNL     1      35.351 -16.977 -19.773  0.00  0.00    +0.173 HD
BRANCH  11  13
ATOM     13  S   UNL     1      36.234 -18.721 -21.174  0.00  0.00    +0.073 S 
ATOM     14  O   UNL     1      37.584 -18.757 -20.646  0.00  0.00    -0.150 OA
ATOM     15  O   UNL     1      35.987 -18.970 -22.582  0.00  0.00    -0.150 OA
BRANCH  13  16
ATOM     16  C   UNL     1      35.273 -19.899 -20.270  0.00  0.00    +0.125 C 
ATOM     17  C   UNL     1      35.921 -20.861 -19.516  0.00  0.00    +0.020 C 
ATOM     18  C   UNL     1      33.893 -19.834 -20.333  0.00  0.00    +0.020 C 
ATOM     19  C   UNL     1      35.163 -21.789 -18.802  0.00  0.00    +0.001 C 
ATOM     20  C   UNL     1      33.134 -20.762 -19.620  0.00  0.00    +0.001 C 
ATOM     21  C   UNL     1      33.769 -21.740 -18.854  0.00  0.00    +0.000 C 
ENDBRANCH  13  16
ENDBRANCH  11  13
ENDBRANCH   7  11
BRANCH   4  22
ATOM     22  C   UNL     1      33.576 -11.228 -24.420  0.00  0.00    +0.101 C 
BRANCH  22  23
ATOM     23  C   UNL     1      33.315 -10.173 -23.351  0.00  0.00    -0.014 C 
ATOM     24  C   UNL     1      34.081  -9.026 -23.346  0.00  0.00    -0.004 C 
ATOM     25  C   UNL     1      32.321 -10.400 -22.422  0.00  0.00    -0.004 C 
ATOM     26  C   UNL     1      33.841  -8.060 -22.368  0.00  0.00    +0.002 C 
ATOM     27  C   UNL     1      32.082  -9.435 -21.443  0.00  0.00    +0.002 C 
ATOM     28  C   UNL     1      32.843  -8.265 -21.417  0.00  0.00    +0.031 C 
BRANCH  28  31
ATOM     29  N   UNL     1      33.400  -7.161 -19.263  0.00  0.00    -0.343 N 
ATOM     30  N   UNL     1      31.584  -6.418 -20.533  0.00  0.00    -0.285 NA
ATOM     31  C   UNL     1      32.594  -7.260 -20.396  0.00  0.00    +0.117 C 
ATOM     32  H   UNL     1      33.212  -6.473 -18.584  0.00  0.00    +0.144 HD
ATOM     33  H   UNL     1      34.155  -7.780 -19.141  0.00  0.00    +0.144 HD
ATOM     34  H   UNL     1      31.413  -5.737 -19.844  0.00  0.00    +0.188 HD
ENDBRANCH  28  31
ENDBRANCH  22  23
ENDBRANCH   4  22
TORSDOF 6
ENDMDL
MODEL 3
REMARK VINA RESULT:     -11.8      1.431      1.730
REMARK  Name = 446805
REMARK  6 active torsions:
REMARK  status: ('A' for Active; 'I' for Inactive)
REMARK    1  A    between atoms: C_4  and  C_22
REMARK    2  A    between atoms: C_7  and  N_11
REMARK    3  A    between atoms: N_11  and  S_13
REMARK    4  A    between atoms: S_13  and  C_16
REMARK    5  A    between atoms: C_22  and  C_23
REMARK    6  A    between atoms: C_28  and  C_31
REMARK                            x       y       z     vdW  Elec       q    Type
REMARK                         _______ _______ _______ _____ _____    ______ ____
ROOT
ATOM      1  N   UNL     1      34.771 -16.864 -23.472  0.00  0.00    -0.262 N 
ATOM      2  N   UNL     1      35.609 -15.966 -21.620  0.00  0.00    -0.394 NA
ATOM      3  C   UNL     1      34.230 -15.606 -23.398  0.00  0.00    +0.079 C 
ATOM      4  C   UNL     1      35.586 -17.031 -22.388  0.00  0.00    +0.168 C 
ATOM      5  C   UNL     1      34.769 -15.065 -22.234  0.00  0.00    +0.129 C 
ATOM      6  C   UNL     1      34.414 -13.759 -21.856  0.00  0.00    +0.103 C 
ATOM      7  C   UNL     1      33.525 -13.047 -22.671  0.00  0.00    +0.050 C 
ATOM      8  C   UNL     1      33.344 -14.914 -24.225  0.00  0.00    +0.018 C 
ATOM      9  C   UNL     1      34.519 -17.836 -24.512  0.00  0.00    +0.119 C 
ATOM     10  C   UNL     1      33.001 -13.616 -23.834  0.00  0.00    +0.013 C 
ENDROOT
BRANCH   7  11
ATOM     11  N   UNL     1      33.149 -11.718 -22.305  0.00  0.00    -0.219 N 
ATOM     12  H   UNL     1      33.535 -10.930 -22.752  0.00  0.00    +0.173 HD
BRANCH  11  13
ATOM     13  S   UNL     1      31.975 -11.560 -21.034  0.00  0.00    +0.073 S 
ATOM     14  O   UNL     1      32.525 -12.097 -19.804  0.00  0.00    -0.150 OA
ATOM     15  O   UNL     1      30.683 -12.007 -21.519  0.00  0.00    -0.150 OA
BRANCH  13  16
ATOM     16  C   UNL     1      31.875  -9.803 -20.854  0.00  0.00    +0.125 C 
ATOM     17  C   UNL     1      31.671  -9.022 -21.978  0.00  0.00    +0.020 C 
ATOM     18  C   UNL     1      32.002  -9.246 -19.595  0.00  0.00    +0.020 C 
ATOM     19  C   UNL     1      31.590  -7.636 -21.836  0.00  0.00    +0.001 C 
ATOM     20  C   UNL     1      31.921  -7.860 -19.453  0.00  0.00    +0.001 C 
ATOM     21  C   UNL     1      31.716  -7.055 -20.573  0.00  0.00    +0.000 C 
ENDBRANCH  13  16
ENDBRANCH  11  13
ENDBRANCH   7  11
BRANCH   4  22
ATOM     22  C   UNL     1      36.334 -18.285 -22.154  0.00  0.00    +0.101 C 
BRANCH  22  23
ATOM     23  C   UNL     1      35.657 -19.232 -21.171  0.00  0.00    -0.014 C 
ATOM     24  C   UNL     1      36.437 -19.932 -20.275  0.00  0.00    -0.004 C 
ATOM     25  C   UNL     1      34.283 -19.359 -21.208  0.00  0.00    -0.004 C 
ATOM     26  C   UNL     1      35.817 -20.799 -19.375  0.00  0.00    +0.002 C 
ATOM     27  C   UNL     1      33.663 -20.227 -20.309  0.00  0.00    +0.002 C 
ATOM     28  C   UNL     1      34.430 -20.946 -19.393  0.00  0.00    +0.031 C 
BRANCH  28  31
ATOM     29  N   UNL     1      32.399 -21.860 -18.295  0.00  0.00    -0.343 N 
ATOM     30  N   UNL     1      34.514 -22.683 -17.734  0.00  0.00    -0.285 NA
ATOM     31  C   UNL     1      33.784 -21.851 -18.455  0.00  0.00    +0.117 C 
ATOM     32  H   UNL     1      31.983 -22.482 -17.654  0.00  0.00    +0.144 HD
ATOM     33  H   UNL     1      31.838 -21.247 -18.821  0.00  0.00    +0.144 HD
ATOM     34  H   UNL     1      34.078 -23.296 -17.098  0.00  0.00    +0.188 HD
ENDBRANCH  28  31
ENDBRANCH  22  23
ENDBRANCH   4  22
TORSDOF 6
ENDMDL
MODEL 4
REMARK VINA RESULT:     -11.8      5.313      8.982
REMARK  Name = 446805
REMARK  6 active torsions:
REMARK  status: ('A' for Active; 'I' for Inactive)
REMARK    1  A    between atoms: C_4  and  C_22
REMARK    2  A    between atoms: C_7  and  N_11
REMARK    3  A    between atoms: N_11  and  S_13
REMARK    4  A    between atoms: S_13  and  C_16
REMARK    5  A    between atoms: C_22  and  C_23
REMARK    6  A    between atoms: C_28  and  C_31
REMARK                            x       y       z     vdW  Elec       q    Type
REMARK                         _______ _______ _______ _____ _____    ______ ____
ROOT
ATOM      1  N   UNL     1      34.052 -22.951 -16.420  0.00  0.00    -0.262 N 
ATOM      2  N   UNL     1      32.291 -22.419 -17.666  0.00  0.00    -0.394 NA
ATOM      3  C   UNL     1      34.560 -22.289 -17.507  0.00  0.00    +0.079 C 
ATOM      4  C   UNL     1      32.694 -23.003 -16.560  0.00  0.00    +0.168 C 
ATOM      5  C   UNL     1      33.442 -21.966 -18.270  0.00  0.00    +0.129 C 
ATOM      6  C   UNL     1      33.613 -21.268 -19.477  0.00  0.00    +0.103 C 
ATOM      7  C   UNL     1      34.912 -20.921 -19.870  0.00  0.00    +0.050 C 
ATOM      8  C   UNL     1      35.863 -21.952 -17.878  0.00  0.00    +0.018 C 
ATOM      9  C   UNL     1      34.821 -23.496 -15.323  0.00  0.00    +0.119 C 
ATOM     10  C   UNL     1      36.016 -21.258 -19.083  0.00  0.00    +0.013 C 
ENDROOT
BRANCH   7  11
ATOM     11  N   UNL     1      35.109 -20.212 -21.094  0.00  0.00    -0.219 N 
ATOM     12  H   UNL     1      34.895 -20.617 -21.966  0.00  0.00    +0.173 HD
BRANCH  11  13
ATOM     13  S   UNL     1      35.743 -18.600 -20.970  0.00  0.00    +0.073 S 
ATOM     14  O   UNL     1      37.189 -18.644 -21.068  0.00  0.00    -0.150 OA
ATOM     15  O   UNL     1      35.101 -17.919 -19.860  0.00  0.00    -0.150 OA
BRANCH  13  16
ATOM     16  C   UNL     1      35.127 -17.856 -22.452  0.00  0.00    +0.125 C 
ATOM     17  C   UNL     1      34.423 -18.634 -23.354  0.00  0.00    +0.020 C 
ATOM     18  C   UNL     1      35.360 -16.512 -22.679  0.00  0.00    +0.020 C 
ATOM     19  C   UNL     1      33.937 -18.047 -24.523  0.00  0.00    +0.001 C 
ATOM     20  C   UNL     1      34.874 -15.925 -23.847  0.00  0.00    +0.001 C 
ATOM     21  C   UNL     1      34.162 -16.693 -24.769  0.00  0.00    +0.000 C 
ENDBRANCH  13  16
ENDBRANCH  11  13
ENDBRANCH   7  11
BRANCH   4  22
ATOM     22  C   UNL     1      31.825 -23.653 -15.557  0.00  0.00    +0.101 C 
BRANCH  22  23
ATOM     23  C   UNL     1      30.372 -23.199 -15.614  0.00  0.00    -0.014 C 
ATOM     24  C   UNL     1      29.602 -23.559 -16.700  0.00  0.00    -0.004 C 
ATOM     25  C   UNL     1      29.871 -22.440 -14.576  0.00  0.00    -0.004 C 
ATOM     26  C   UNL     1      28.271 -23.143 -16.751  0.00  0.00    +0.002 C 
ATOM     27  C   UNL     1      28.541 -22.023 -14.627  0.00  0.00    +0.002 C 
ATOM     28  C   UNL     1      27.741 -22.375 -15.715  0.00  0.00    +0.031 C 
BRANCH  28  31
ATOM     29  N   UNL     1      25.828 -21.336 -16.908  0.00  0.00    -0.343 N 
ATOM     30  N   UNL     1      25.570 -22.112 -14.719  0.00  0.00    -0.285 NA
ATOM     31  C   UNL     1      26.354 -21.940 -15.768  0.00  0.00    +0.117 C 
ATOM     32  H   UNL     1      24.885 -21.049 -16.922  0.00  0.00    +0.144 HD
ATOM     33  H   UNL     1      26.396 -21.196 -17.699  0.00  0.00    +0.144 HD
ATOM     34  H   UNL     1      24.631 -21.819 -14.753  0.00  0.00    +0.188 HD
ENDBRANCH  28  31
ENDBRANCH  22  23
ENDBRANCH   4  22
TORSDOF 6
ENDMDL
MODEL 5
REMARK VINA RESULT:     -11.7      5.085     10.720
REMARK  Name = 446805
REMARK  6 active torsions:
REMARK  status: ('A' for Active; 'I' for Inactive)
REMARK    1  A    between atoms: C_4  and  C_22
REMARK    2  A    between atoms: C_7  and  N_11
REMARK    3  A    between atoms: N_11  and  S_13
REMARK    4  A    between atoms: S_13  and  C_16
REMARK    5  A    between atoms: C_22  and  C_23
REMARK    6  A    between atoms: C_28  and  C_31
REMARK                            x       y       z     vdW  Elec       q    Type
REMARK                         _______ _______ _______ _____ _____    ______ ____
ROOT
ATOM      1  N   UNL     1      36.055 -18.840 -21.569  0.00  0.00    -0.262 N 
ATOM      2  N   UNL     1      33.874 -18.795 -21.994  0.00  0.00    -0.394 NA
ATOM      3  C   UNL     1      35.486 -19.688 -20.654  0.00  0.00    +0.079 C 
ATOM      4  C   UNL     1      35.052 -18.332 -22.346  0.00  0.00    +0.168 C 
ATOM      5  C   UNL     1      34.125 -19.644 -20.940  0.00  0.00    +0.129 C 
ATOM      6  C   UNL     1      33.237 -20.416 -20.172  0.00  0.00    +0.103 C 
ATOM      7  C   UNL     1      33.760 -21.206 -19.140  0.00  0.00    +0.050 C 
ATOM      8  C   UNL     1      36.029 -20.469 -19.633  0.00  0.00    +0.018 C 
ATOM      9  C   UNL     1      37.464 -18.539 -21.686  0.00  0.00    +0.119 C 
ATOM     10  C   UNL     1      35.132 -21.231 -18.878  0.00  0.00    +0.013 C 
ENDROOT
BRANCH   7  11
ATOM     11  N   UNL     1      32.876 -21.998 -18.346  0.00  0.00    -0.219 N 
ATOM     12  H   UNL     1      31.899 -21.876 -18.382  0.00  0.00    +0.173 HD
BRANCH  11  13
ATOM     13  S   UNL     1      33.607 -23.189 -17.315  0.00  0.00    +0.073 S 
ATOM     14  O   UNL     1      34.886 -22.694 -16.843  0.00  0.00    -0.150 OA
ATOM     15  O   UNL     1      33.510 -24.492 -17.947  0.00  0.00    -0.150 OA
BRANCH  13  16
ATOM     16  C   UNL     1      32.496 -23.204 -15.938  0.00  0.00    +0.125 C 
ATOM     17  C   UNL     1      33.007 -23.369 -14.662  0.00  0.00    +0.020 C 
ATOM     18  C   UNL     1      31.141 -23.050 -16.164  0.00  0.00    +0.020 C 
ATOM     19  C   UNL     1      32.131 -23.380 -13.577  0.00  0.00    +0.001 C 
ATOM     20  C   UNL     1      30.264 -23.061 -15.078  0.00  0.00    +0.001 C 
ATOM     21  C   UNL     1      30.759 -23.226 -13.785  0.00  0.00    +0.000 C 
ENDBRANCH  13  16
ENDBRANCH  11  13
ENDBRANCH   7  11
BRANCH   4  22
ATOM     22  C   UNL     1      35.315 -17.375 -23.441  0.00  0.00    +0.101 C 
BRANCH  22  23
ATOM     23  C   UNL     1      34.732 -15.988 -23.201  0.00  0.00    -0.014 C 
ATOM     24  C   UNL     1      34.959 -15.370 -21.989  0.00  0.00    -0.004 C 
ATOM     25  C   UNL     1      33.995 -15.393 -24.205  0.00  0.00    -0.004 C 
ATOM     26  C   UNL     1      34.425 -14.100 -21.770  0.00  0.00    +0.002 C 
ATOM     27  C   UNL     1      33.461 -14.123 -23.985  0.00  0.00    +0.002 C 
ATOM     28  C   UNL     1      33.677 -13.477 -22.768  0.00  0.00    +0.031 C 
BRANCH  28  31
ATOM     29  N   UNL     1      33.492 -11.064 -23.324  0.00  0.00    -0.343 N 
ATOM     30  N   UNL     1      32.243 -11.966 -21.568  0.00  0.00    -0.285 NA
ATOM     31  C   UNL     1      33.119 -12.153 -22.539  0.00  0.00    +0.117 C 
ATOM     32  H   UNL     1      33.102 -10.176 -23.151  0.00  0.00    +0.144 HD
ATOM     33  H   UNL     1      34.145 -11.181 -24.051  0.00  0.00    +0.144 HD
ATOM     34  H   UNL     1      31.865 -11.072 -21.411  0.00  0.00    +0.188 HD
ENDBRANCH  28  31
ENDBRANCH  22  23
ENDBRANCH   4  22
TORSDOF 6
ENDMDL
MODEL 6
REMARK VINA RESULT:     -11.3      1.396      2.153
REMARK  Name = 446805
REMARK  6 active torsions:
REMARK  status: ('A' for Active; 'I' for Inactive)
REMARK    1  A    between atoms: C_4  and  C_22
REMARK    2  A    between atoms: C_7  and  N_11
REMARK    3  A    between atoms: N_11  and  S_13
REMARK    4  A    between atoms: S_13  and  C_16
REMARK    5  A    between atoms: C_22  and  C_23
REMARK    6  A    between atoms: C_28  and  C_31
REMARK                            x       y       z     vdW  Elec       q    Type
REMARK                         _______ _______ _______ _____ _____    ______ ____
ROOT
ATOM      1  N   UNL     1      35.290 -18.028 -23.069  0.00  0.00    -0.262 N 
ATOM      2  N   UNL     1      35.409 -16.491 -21.468  0.00  0.00    -0.394 NA
ATOM      3  C   UNL     1      34.610 -16.941 -23.554  0.00  0.00    +0.079 C 
ATOM      4  C   UNL     1      35.747 -17.711 -21.821  0.00  0.00    +0.168 C 
ATOM      5  C   UNL     1      34.700 -15.994 -22.538  0.00  0.00    +0.129 C 
ATOM      6  C   UNL     1      34.096 -14.738 -22.715  0.00  0.00    +0.103 C 
ATOM      7  C   UNL     1      33.424 -14.484 -23.917  0.00  0.00    +0.050 C 
ATOM      8  C   UNL     1      33.947 -16.709 -24.760  0.00  0.00    +0.018 C 
ATOM      9  C   UNL     1      35.483 -19.284 -23.757  0.00  0.00    +0.119 C 
ATOM     10  C   UNL     1      33.352 -15.453 -24.921  0.00  0.00    +0.013 C 
ENDROOT
BRANCH   7  11
ATOM     11  N   UNL     1      32.803 -13.213 -24.119  0.00  0.00    -0.219 N 
ATOM     12  H   UNL     1      31.905 -13.134 -24.517  0.00  0.00    +0.173 HD
BRANCH  11  13
ATOM     13  S   UNL     1      33.706 -11.814 -23.626  0.00  0.00    +0.073 S 
ATOM     14  O   UNL     1      33.703 -10.839 -24.698  0.00  0.00    -0.150 OA
ATOM     15  O   UNL     1      34.956 -12.242 -23.023  0.00  0.00    -0.150 OA
BRANCH  13  16
ATOM     16  C   UNL     1      32.699 -11.178 -22.319  0.00  0.00    +0.125 C 
ATOM     17  C   UNL     1      32.427  -9.822 -22.277  0.00  0.00    +0.020 C 
ATOM     18  C   UNL     1      32.203 -12.048 -21.365  0.00  0.00    +0.020 C 
ATOM     19  C   UNL     1      31.631  -9.320 -21.246  0.00  0.00    +0.001 C 
ATOM     20  C   UNL     1      31.407 -11.546 -20.334  0.00  0.00    +0.001 C 
ATOM     21  C   UNL     1      31.122 -10.182 -20.275  0.00  0.00    +0.000 C 
ENDBRANCH  13  16
ENDBRANCH  11  13
ENDBRANCH   7  11
BRANCH   4  22
ATOM     22  C   UNL     1      36.526 -18.664 -21.004  0.00  0.00    +0.101 C 
BRANCH  22  23
ATOM     23  C   UNL     1      35.673 -19.703 -20.287  0.00  0.00    -0.014 C 
ATOM     24  C   UNL     1      34.302 -19.653 -20.429  0.00  0.00    -0.004 C 
ATOM     25  C   UNL     1      36.299 -20.663 -19.518  0.00  0.00    -0.004 C 
ATOM     26  C   UNL     1      33.521 -20.605 -19.773  0.00  0.00    +0.002 C 
ATOM     27  C   UNL     1      35.519 -21.614 -18.861  0.00  0.00    +0.002 C 
ATOM     28  C   UNL     1      34.130 -21.585 -18.989  0.00  0.00    +0.031 C 
BRANCH  28  31
ATOM     29  N   UNL     1      32.160 -22.215 -17.614  0.00  0.00    -0.343 N 
ATOM     30  N   UNL     1      33.671 -23.849 -18.326  0.00  0.00    -0.285 NA
ATOM     31  C   UNL     1      33.316 -22.577 -18.304  0.00  0.00    +0.117 C 
ATOM     32  H   UNL     1      31.624 -22.903 -17.158  0.00  0.00    +0.144 HD
ATOM     33  H   UNL     1      31.879 -21.272 -17.584  0.00  0.00    +0.144 HD
ATOM     34  H   UNL     1      33.122 -24.522 -17.863  0.00  0.00    +0.188 HD
ENDBRANCH  28  31
ENDBRANCH  22  23
ENDBRANCH   4  22
TORSDOF 6
ENDMDL
MODEL 7
REMARK VINA RESULT:     -11.1      3.386      9.470
REMARK  Name = 446805
REMARK  6 active torsions:
REMARK  status: ('A' for Active; 'I' for Inactive)
REMARK    1  A    between atoms: C_4  and  C_22
REMARK    2  A    between atoms: C_7  and  N_11
REMARK    3  A    between atoms: N_11  and  S_13
REMARK    4  A    between atoms: S_13  and  C_16
REMARK    5  A    between atoms: C_22  and  C_23
REMARK    6  A    between atoms: C_28  and  C_31
REMARK                            x       y       z     vdW  Elec       q    Type
REMARK                         _______ _______ _______ _____ _____    ______ ____
ROOT
ATOM      1  N   UNL     1      33.527 -14.064 -24.816  0.00  0.00    -0.262 N 
ATOM      2  N   UNL     1      34.920 -13.779 -23.108  0.00  0.00    -0.394 NA
ATOM      3  C   UNL     1      33.891 -15.327 -24.427  0.00  0.00    +0.079 C 
ATOM      4  C   UNL     1      34.166 -13.174 -23.999  0.00  0.00    +0.168 C 
ATOM      5  C   UNL     1      34.760 -15.123 -23.359  0.00  0.00    +0.129 C 
ATOM      6  C   UNL     1      35.328 -16.235 -22.715  0.00  0.00    +0.103 C 
ATOM      7  C   UNL     1      34.996 -17.515 -23.175  0.00  0.00    +0.050 C 
ATOM      8  C   UNL     1      33.545 -16.592 -24.902  0.00  0.00    +0.018 C 
ATOM      9  C   UNL     1      32.627 -13.736 -25.899  0.00  0.00    +0.119 C 
ATOM     10  C   UNL     1      34.119 -17.689 -24.249  0.00  0.00    +0.013 C 
ENDROOT
BRANCH   7  11
ATOM     11  N   UNL     1      35.562 -18.660 -22.536  0.00  0.00    -0.219 N 
ATOM     12  H   UNL     1      35.676 -19.514 -23.013  0.00  0.00    +0.173 HD
BRANCH  11  13
ATOM     13  S   UNL     1      36.041 -18.471 -20.877  0.00  0.00    +0.073 S 
ATOM     14  O   UNL     1      35.436 -17.270 -20.337  0.00  0.00    -0.150 OA
ATOM     15  O   UNL     1      37.471 -18.689 -20.766  0.00  0.00    -0.150 OA
BRANCH  13  16
ATOM     16  C   UNL     1      35.251 -19.858 -20.115  0.00  0.00    +0.125 C 
ATOM     17  C   UNL     1      33.873 -19.968 -20.178  0.00  0.00    +0.020 C 
ATOM     18  C   UNL     1      36.026 -20.806 -19.471  0.00  0.00    +0.020 C 
ATOM     19  C   UNL     1      33.250 -21.062 -19.578  0.00  0.00    +0.001 C 
ATOM     20  C   UNL     1      35.404 -21.900 -18.870  0.00  0.00    +0.001 C 
ATOM     21  C   UNL     1      34.016 -22.029 -18.924  0.00  0.00    +0.000 C 
ENDBRANCH  13  16
ENDBRANCH  11  13
ENDBRANCH   7  11
BRANCH   4  22
ATOM     22  C   UNL     1      33.998 -11.713 -24.142  0.00  0.00    +0.101 C 
BRANCH  22  23
ATOM     23  C   UNL     1      33.317 -11.051 -22.951  0.00  0.00    -0.014 C 
ATOM     24  C   UNL     1      32.660 -11.844 -22.033  0.00  0.00    -0.004 C 
ATOM     25  C   UNL     1      33.380  -9.678 -22.827  0.00  0.00    -0.004 C 
ATOM     26  C   UNL     1      32.037 -11.237 -20.942  0.00  0.00    +0.002 C 
ATOM     27  C   UNL     1      32.757  -9.072 -21.736  0.00  0.00    +0.002 C 
ATOM     28  C   UNL     1      32.086  -9.852 -20.794  0.00  0.00    +0.031 C 
BRANCH  28  31
ATOM     29  N   UNL     1      31.591  -7.858 -19.399  0.00  0.00    -0.343 N 
ATOM     30  N   UNL     1      30.684  -9.939 -18.844  0.00  0.00    -0.285 NA
ATOM     31  C   UNL     1      31.436  -9.219 -19.657  0.00  0.00    +0.117 C 
ATOM     32  H   UNL     1      31.141  -7.451 -18.623  0.00  0.00    +0.144 HD
ATOM     33  H   UNL     1      32.149  -7.304 -19.990  0.00  0.00    +0.144 HD
ATOM     34  H   UNL     1      30.243  -9.514 -18.074  0.00  0.00    +0.188 HD
ENDBRANCH  28  31
ENDBRANCH  22  23
ENDBRANCH   4  22
TORSDOF 6
ENDMDL
MODEL 8
REMARK VINA RESULT:     -11.0      1.670      2.033
REMARK  Name = 446805
REMARK  6 active torsions:
REMARK  status: ('A' for Active; 'I' for Inactive)
REMARK    1  A    between atoms: C_4  and  C_22
REMARK    2  A    between atoms: C_7  and  N_11
REMARK    3  A    between atoms: N_11  and  S_13
REMARK    4  A    between atoms: S_13  and  C_16
REMARK    5  A    between atoms: C_22  and  C_23
REMARK    6  A    between atoms: C_28  and  C_31
REMARK                            x       y       z     vdW  Elec       q    Type
REMARK                         _______ _______ _______ _____ _____    ______ ____
ROOT
ATOM      1  N   UNL     1      34.773 -15.675 -22.958  0.00  0.00    -0.262 N 
ATOM      2  N   UNL     1      35.007 -15.891 -20.758  0.00  0.00    -0.394 NA
ATOM      3  C   UNL     1      34.158 -14.577 -22.415  0.00  0.00    +0.079 C 
ATOM      4  C   UNL     1      35.264 -16.429 -21.929  0.00  0.00    +0.168 C 
ATOM      5  C   UNL     1      34.318 -14.734 -21.042  0.00  0.00    +0.129 C 
ATOM      6  C   UNL     1      33.792 -13.761 -20.174  0.00  0.00    +0.103 C 
ATOM      7  C   UNL     1      33.123 -12.663 -20.729  0.00  0.00    +0.050 C 
ATOM      8  C   UNL     1      33.496 -13.491 -22.990  0.00  0.00    +0.018 C 
ATOM      9  C   UNL     1      34.880 -15.978 -24.367  0.00  0.00    +0.119 C 
ATOM     10  C   UNL     1      32.979 -12.532 -22.113  0.00  0.00    +0.013 C 
ENDROOT
BRANCH   7  11
ATOM     11  N   UNL     1      32.580 -11.663 -19.866  0.00  0.00    -0.219 N 
ATOM     12  H   UNL     1      32.890 -11.558 -18.937  0.00  0.00    +0.173 HD
BRANCH  11  13
ATOM     13  S   UNL     1      31.347 -10.638 -20.536  0.00  0.00    +0.073 S 
ATOM     14  O   UNL     1      30.446 -10.219 -19.480  0.00  0.00    -0.150 OA
ATOM     15  O   UNL     1      30.829 -11.246 -21.748  0.00  0.00    -0.150 OA
BRANCH  13  16
ATOM     16  C   UNL     1      32.286  -9.224 -21.034  0.00  0.00    +0.125 C 
ATOM     17  C   UNL     1      32.663  -9.099 -22.359  0.00  0.00    +0.020 C 
ATOM     18  C   UNL     1      32.623  -8.272 -20.089  0.00  0.00    +0.020 C 
ATOM     19  C   UNL     1      33.402  -7.982 -22.752  0.00  0.00    +0.001 C 
ATOM     20  C   UNL     1      33.363  -7.156 -20.481  0.00  0.00    +0.001 C 
ATOM     21  C   UNL     1      33.752  -7.011 -21.813  0.00  0.00    +0.000 C 
ENDBRANCH  13  16
ENDBRANCH  11  13
ENDBRANCH   7  11
BRANCH   4  22
ATOM     22  C   UNL     1      35.992 -17.694 -22.160  0.00  0.00    +0.101 C 
BRANCH  22  23
ATOM     23  C   UNL     1      35.577 -18.824 -21.226  0.00  0.00    -0.014 C 
ATOM     24  C   UNL     1      36.536 -19.421 -20.435  0.00  0.00    -0.004 C 
ATOM     25  C   UNL     1      34.254 -19.214 -21.201  0.00  0.00    -0.004 C 
ATOM     26  C   UNL     1      36.156 -20.455 -19.579  0.00  0.00    +0.002 C 
ATOM     27  C   UNL     1      33.873 -20.248 -20.346  0.00  0.00    +0.002 C 
ATOM     28  C   UNL     1      34.824 -20.869 -19.535  0.00  0.00    +0.031 C 
BRANCH  28  31
ATOM     29  N   UNL     1      33.153 -22.507 -18.706  0.00  0.00    -0.343 N 
ATOM     30  N   UNL     1      35.284 -22.412 -17.751  0.00  0.00    -0.285 NA
ATOM     31  C   UNL     1      34.428 -21.947 -18.644  0.00  0.00    +0.117 C 
ATOM     32  H   UNL     1      32.906 -23.237 -18.093  0.00  0.00    +0.144 HD
ATOM     33  H   UNL     1      32.499 -22.173 -19.362  0.00  0.00    +0.144 HD
ATOM     34  H   UNL     1      35.018 -23.142 -17.147  0.00  0.00    +0.188 HD
ENDBRANCH  28  31
ENDBRANCH  22  23
ENDBRANCH   4  22
TORSDOF 6
ENDMDL
MODEL 9
REMARK VINA RESULT:     -11.0      3.486     10.282
REMARK  Name = 446805
REMARK  6 active torsions:
REMARK  status: ('A' for Active; 'I' for Inactive)
REMARK    1  A    between atoms: C_4  and  C_22
REMARK    2  A    between atoms: C_7  and  N_11
REMARK    3  A    between atoms: N_11  and  S_13
REMARK    4  A    between atoms: S_13  and  C_16
REMARK    5  A    between atoms: C_22  and  C_23
REMARK    6  A    between atoms: C_28  and  C_31
REMARK                            x       y       z     vdW  Elec       q    Type
REMARK                         _______ _______ _______ _____ _____    ______ ____
ROOT
ATOM      1  N   UNL     1      32.899 -13.133 -22.418  0.00  0.00    -0.262 N 
ATOM      2  N   UNL     1      32.391 -13.606 -20.306  0.00  0.00    -0.394 NA
ATOM      3  C   UNL     1      33.745 -14.150 -22.057  0.00  0.00    +0.079 C 
ATOM      4  C   UNL     1      32.111 -12.844 -21.339  0.00  0.00    +0.168 C 
ATOM      5  C   UNL     1      33.407 -14.429 -20.735  0.00  0.00    +0.129 C 
ATOM      6  C   UNL     1      34.098 -15.442 -20.050  0.00  0.00    +0.103 C 
ATOM      7  C   UNL     1      35.106 -16.139 -20.727  0.00  0.00    +0.050 C 
ATOM      8  C   UNL     1      34.744 -14.833 -22.751  0.00  0.00    +0.018 C 
ATOM      9  C   UNL     1      32.854 -12.485 -23.709  0.00  0.00    +0.119 C 
ATOM     10  C   UNL     1      35.422 -15.838 -22.055  0.00  0.00    +0.013 C 
ENDROOT
BRANCH   7  11
ATOM     11  N   UNL     1      35.822 -17.173 -20.050  0.00  0.00    -0.219 N 
ATOM     12  H   UNL     1      36.045 -17.106 -19.093  0.00  0.00    +0.173 HD
BRANCH  11  13
ATOM     13  S   UNL     1      36.278 -18.557 -20.996  0.00  0.00    +0.073 S 
ATOM     14  O   UNL     1      37.702 -18.787 -20.852  0.00  0.00    -0.150 OA
ATOM     15  O   UNL     1      35.680 -18.451 -22.314  0.00  0.00    -0.150 OA
BRANCH  13  16
ATOM     16  C   UNL     1      35.435 -19.863 -20.153  0.00  0.00    +0.125 C 
ATOM     17  C   UNL     1      34.055 -19.934 -20.230  0.00  0.00    +0.020 C 
ATOM     18  C   UNL     1      36.171 -20.787 -19.435  0.00  0.00    +0.020 C 
ATOM     19  C   UNL     1      33.390 -20.965 -19.566  0.00  0.00    +0.001 C 
ATOM     20  C   UNL     1      35.506 -21.819 -18.771  0.00  0.00    +0.001 C 
ATOM     21  C   UNL     1      34.116 -21.907 -18.836  0.00  0.00    +0.000 C 
ENDBRANCH  13  16
ENDBRANCH  11  13
ENDBRANCH   7  11
BRANCH   4  22
ATOM     22  C   UNL     1      31.079 -11.787 -21.382  0.00  0.00    +0.101 C 
BRANCH  22  23
ATOM     23  C   UNL     1      31.605 -10.397 -21.044  0.00  0.00    -0.014 C 
ATOM     24  C   UNL     1      31.787  -9.487 -22.065  0.00  0.00    -0.004 C 
ATOM     25  C   UNL     1      31.884 -10.093 -19.727  0.00  0.00    -0.004 C 
ATOM     26  C   UNL     1      32.269  -8.215 -21.755  0.00  0.00    +0.002 C 
ATOM     27  C   UNL     1      32.366  -8.821 -19.418  0.00  0.00    +0.002 C 
ATOM     28  C   UNL     1      32.558  -7.882 -20.432  0.00  0.00    +0.031 C 
BRANCH  28  31
ATOM     29  N   UNL     1      32.766  -5.454 -20.909  0.00  0.00    -0.343 N 
ATOM     30  N   UNL     1      33.818  -6.382 -19.040  0.00  0.00    -0.285 NA
ATOM     31  C   UNL     1      33.062  -6.556 -20.109  0.00  0.00    +0.117 C 
ATOM     32  H   UNL     1      33.118  -4.566 -20.672  0.00  0.00    +0.144 HD
ATOM     33  H   UNL     1      32.206  -5.564 -21.712  0.00  0.00    +0.144 HD
ATOM     34  H   UNL     1      34.160  -5.486 -18.820  0.00  0.00    +0.188 HD
ENDBRANCH  28  31
ENDBRANCH  22  23
ENDBRANCH   4  22
TORSDOF 6
ENDMDL
