MODEL 1
REMARK VINA RESULT:     -11.7      0.000      0.000
REMARK  Name = 5326930
REMARK  4 active torsions:
REMARK  status: ('A' for Active; 'I' for Inactive)
REMARK    1  A    between atoms: C_7  and  C_21
REMARK    2  A    between atoms: C_21  and  C_22
REMARK    3  A    between atoms: C_22  and  C_23
REMARK    4  A    between atoms: C_28  and  O_29
REMARK                            x       y       z     vdW  Elec       q    Type
REMARK                         _______ _______ _______ _____ _____    ______ ____
ROOT
ATOM      1  O   UNL     1      34.840 -24.661 -11.612  0.00  0.00    -0.209 OA
ATOM      2  N   UNL     1      34.715 -22.864 -15.190  0.00  0.00    -0.275 N 
ATOM      3  N   UNL     1      29.950 -25.035 -13.500  0.00  0.00    -0.315 N 
ATOM      4  N   UNL     1      29.914 -24.029 -15.481  0.00  0.00    -0.316 N 
ATOM      5  N   UNL     1      35.944 -23.515 -13.259  0.00  0.00    -0.302 NA
ATOM      6  N   UNL     1      36.940 -22.338 -15.023  0.00  0.00    -0.320 N 
ATOM      7  C   UNL     1      32.346 -23.370 -15.469  0.00  0.00    +0.007 C 
ATOM      8  C   UNL     1      33.528 -23.432 -14.715  0.00  0.00    +0.060 C 
ATOM      9  C   UNL     1      31.179 -23.957 -14.947  0.00  0.00    +0.056 C 
ATOM     10  C   UNL     1      31.229 -24.581 -13.704  0.00  0.00    +0.060 C 
ATOM     11  C   UNL     1      33.538 -24.070 -13.465  0.00  0.00    +0.109 C 
ATOM     12  C   UNL     1      32.385 -24.661 -12.927  0.00  0.00    +0.029 C 
ATOM     13  C   UNL     1      34.822 -24.105 -12.707  0.00  0.00    +0.208 C 
ATOM     14  C   UNL     1      29.203 -24.682 -14.589  0.00  0.00    +0.182 C 
ATOM     15  C   UNL     1      35.859 -22.939 -14.429  0.00  0.00    +0.248 C 
ATOM     16  H   UNL     1      34.731 -22.412 -16.064  0.00  0.00    +0.156 HD
ATOM     17  H   UNL     1      29.629 -25.527 -12.711  0.00  0.00    +0.148 HD
ATOM     18  H   UNL     1      29.607 -23.670 -16.345  0.00  0.00    +0.148 HD
ATOM     19  H   UNL     1      36.844 -21.912 -15.905  0.00  0.00    +0.146 HD
ATOM     20  H   UNL     1      37.813 -22.332 -14.566  0.00  0.00    +0.146 HD
ENDROOT
BRANCH   7  21
ATOM     21  C   UNL     1      32.328 -22.692 -16.802  0.00  0.00    +0.034 C 
BRANCH  21  22
ATOM     22  C   UNL     1      33.443 -23.160 -17.755  0.00  0.00    +0.031 C 
BRANCH  22  23
ATOM     23  C   UNL     1      33.970 -22.060 -18.642  0.00  0.00    -0.022 C 
ATOM     24  C   UNL     1      33.076 -21.247 -19.321  0.00  0.00    -0.001 C 
ATOM     25  C   UNL     1      35.339 -21.882 -18.764  0.00  0.00    -0.001 C 
ATOM     26  C   UNL     1      33.562 -20.229 -20.141  0.00  0.00    +0.037 C 
ATOM     27  C   UNL     1      35.826 -20.864 -19.585  0.00  0.00    +0.037 C 
ATOM     28  C   UNL     1      34.937 -20.038 -20.273  0.00  0.00    +0.139 C 
BRANCH  28  29
ATOM     29  O   UNL     1      35.413 -19.046 -21.074  0.00  0.00    -0.471 OA
ATOM     30  C   UNL     1      34.914 -18.994 -22.410  0.00  0.00    +0.252 C 
ENDBRANCH  28  29
ENDBRANCH  22  23
ENDBRANCH  21  22
ENDBRANCH   7  21
TORSDOF 4
ENDMDL
MODEL 2
REMARK VINA RESULT:     -11.2      1.850      2.678
REMARK  Name = 5326930
REMARK  4 active torsions:
REMARK  status: ('A' for Active; 'I' for Inactive)
REMARK    1  A    between atoms: C_7  and  C_21
REMARK    2  A    between atoms: C_21  and  C_22
REMARK    3  A    between atoms: C_22  and  C_23
REMARK    4  A    between atoms: C_28  and  O_29
REMARK                            x       y       z     vdW  Elec       q    Type
REMARK                         _______ _______ _______ _____ _____    ______ ____
ROOT
ATOM      1  O   UNL     1      36.978 -26.056 -11.352  0.00  0.00    -0.209 OA
ATOM      2  N   UNL     1      37.549 -24.254 -14.883  0.00  0.00    -0.275 N 
ATOM      3  N   UNL     1      32.552 -23.558 -12.687  0.00  0.00    -0.315 N 
ATOM      4  N   UNL     1      32.901 -22.570 -14.646  0.00  0.00    -0.316 N 
ATOM      5  N   UNL     1      38.379 -25.599 -13.104  0.00  0.00    -0.302 NA
ATOM      6  N   UNL     1      39.698 -25.049 -14.962  0.00  0.00    -0.320 N 
ATOM      7  C   UNL     1      35.281 -23.357 -14.900  0.00  0.00    +0.007 C 
ATOM      8  C   UNL     1      36.294 -24.108 -14.282  0.00  0.00    +0.060 C 
ATOM      9  C   UNL     1      34.037 -23.239 -14.255  0.00  0.00    +0.056 C 
ATOM     10  C   UNL     1      33.845 -23.869 -13.029  0.00  0.00    +0.060 C 
ATOM     11  C   UNL     1      36.061 -24.727 -13.045  0.00  0.00    +0.109 C 
ATOM     12  C   UNL     1      34.827 -24.622 -12.386  0.00  0.00    +0.029 C 
ATOM     13  C   UNL     1      37.173 -25.512 -12.434  0.00  0.00    +0.208 C 
ATOM     14  C   UNL     1      32.032 -22.782 -13.684  0.00  0.00    +0.182 C 
ATOM     15  C   UNL     1      38.523 -24.996 -14.255  0.00  0.00    +0.248 C 
ATOM     16  H   UNL     1      37.733 -23.828 -15.751  0.00  0.00    +0.156 HD
ATOM     17  H   UNL     1      32.085 -23.845 -11.870  0.00  0.00    +0.148 HD
ATOM     18  H   UNL     1      32.768 -22.045 -15.468  0.00  0.00    +0.148 HD
ATOM     19  H   UNL     1      39.774 -24.583 -15.826  0.00  0.00    +0.146 HD
ATOM     20  H   UNL     1      40.464 -25.554 -14.605  0.00  0.00    +0.146 HD
ENDROOT
BRANCH   7  21
ATOM     21  C   UNL     1      35.522 -22.694 -16.219  0.00  0.00    +0.034 C 
BRANCH  21  22
ATOM     22  C   UNL     1      34.408 -22.939 -17.253  0.00  0.00    +0.031 C 
BRANCH  22  23
ATOM     23  C   UNL     1      34.386 -21.914 -18.361  0.00  0.00    -0.022 C 
ATOM     24  C   UNL     1      35.584 -21.447 -18.877  0.00  0.00    -0.001 C 
ATOM     25  C   UNL     1      33.169 -21.457 -18.840  0.00  0.00    -0.001 C 
ATOM     26  C   UNL     1      35.565 -20.500 -19.901  0.00  0.00    +0.037 C 
ATOM     27  C   UNL     1      33.149 -20.509 -19.864  0.00  0.00    +0.037 C 
ATOM     28  C   UNL     1      34.347 -20.031 -20.394  0.00  0.00    +0.139 C 
BRANCH  28  29
ATOM     29  O   UNL     1      34.328 -19.106 -21.392  0.00  0.00    -0.471 OA
ATOM     30  C   UNL     1      35.562 -18.841 -22.057  0.00  0.00    +0.252 C 
ENDBRANCH  28  29
ENDBRANCH  22  23
ENDBRANCH  21  22
ENDBRANCH   7  21
TORSDOF 4
ENDMDL
MODEL 3
REMARK VINA RESULT:     -11.2      1.270      3.990
REMARK  Name = 5326930
REMARK  4 active torsions:
REMARK  status: ('A' for Active; 'I' for Inactive)
REMARK    1  A    between atoms: C_7  and  C_21
REMARK    2  A    between atoms: C_21  and  C_22
REMARK    3  A    between atoms: C_22  and  C_23
REMARK    4  A    between atoms: C_28  and  O_29
REMARK                            x       y       z     vdW  Elec       q    Type
REMARK                         _______ _______ _______ _____ _____    ______ ____
ROOT
ATOM      1  O   UNL     1      30.848 -25.030 -12.372  0.00  0.00    -0.209 OA
ATOM      2  N   UNL     1      30.571 -23.350 -15.998  0.00  0.00    -0.275 N 
ATOM      3  N   UNL     1      35.672 -23.679 -13.962  0.00  0.00    -0.315 N 
ATOM      4  N   UNL     1      35.484 -22.753 -15.972  0.00  0.00    -0.316 N 
ATOM      5  N   UNL     1      29.524 -24.368 -14.119  0.00  0.00    -0.302 NA
ATOM      6  N   UNL     1      28.297 -23.642 -15.978  0.00  0.00    -0.320 N 
ATOM      7  C   UNL     1      32.980 -22.992 -16.122  0.00  0.00    +0.007 C 
ATOM      8  C   UNL     1      31.847 -23.457 -15.435  0.00  0.00    +0.060 C 
ATOM      9  C   UNL     1      34.241 -23.123 -15.514  0.00  0.00    +0.056 C 
ATOM     10  C   UNL     1      34.331 -23.707 -14.254  0.00  0.00    +0.060 C 
ATOM     11  C   UNL     1      31.979 -24.040 -14.166  0.00  0.00    +0.109 C 
ATOM     12  C   UNL     1      33.228 -24.180 -13.543  0.00  0.00    +0.029 C 
ATOM     13  C   UNL     1      30.742 -24.518 -13.483  0.00  0.00    +0.208 C 
ATOM     14  C   UNL     1      36.317 -23.100 -15.018  0.00  0.00    +0.182 C 
ATOM     15  C   UNL     1      29.478 -23.814 -15.302  0.00  0.00    +0.248 C 
ATOM     16  H   UNL     1      30.455 -22.943 -16.887  0.00  0.00    +0.156 HD
ATOM     17  H   UNL     1      36.092 -24.016 -13.138  0.00  0.00    +0.148 HD
ATOM     18  H   UNL     1      35.702 -22.321 -16.831  0.00  0.00    +0.148 HD
ATOM     19  H   UNL     1      28.296 -23.222 -16.868  0.00  0.00    +0.146 HD
ATOM     20  H   UNL     1      27.450 -23.939 -15.573  0.00  0.00    +0.146 HD
ENDROOT
BRANCH   7  21
ATOM     21  C   UNL     1      32.847 -22.368 -17.476  0.00  0.00    +0.034 C 
BRANCH  21  22
ATOM     22  C   UNL     1      33.982 -22.739 -18.447  0.00  0.00    +0.031 C 
BRANCH  22  23
ATOM     23  C   UNL     1      34.544 -21.550 -19.188  0.00  0.00    -0.022 C 
ATOM     24  C   UNL     1      35.915 -21.355 -19.218  0.00  0.00    -0.001 C 
ATOM     25  C   UNL     1      33.678 -20.675 -19.823  0.00  0.00    -0.001 C 
ATOM     26  C   UNL     1      36.436 -20.257 -19.902  0.00  0.00    +0.037 C 
ATOM     27  C   UNL     1      34.198 -19.575 -20.508  0.00  0.00    +0.037 C 
ATOM     28  C   UNL     1      35.577 -19.367 -20.547  0.00  0.00    +0.139 C 
BRANCH  28  29
ATOM     29  O   UNL     1      36.083 -18.294 -21.214  0.00  0.00    -0.471 OA
ATOM     30  C   UNL     1      35.474 -17.955 -22.459  0.00  0.00    +0.252 C 
ENDBRANCH  28  29
ENDBRANCH  22  23
ENDBRANCH  21  22
ENDBRANCH   7  21
TORSDOF 4
ENDMDL
MODEL 4
REMARK VINA RESULT:     -10.8      1.392      3.923
REMARK  Name = 5326930
REMARK  4 active torsions:
REMARK  status: ('A' for Active; 'I' for Inactive)
REMARK    1  A    between atoms: C_7  and  C_21
REMARK    2  A    between atoms: C_21  and  C_22
REMARK    3  A    between atoms: C_22  and  C_23
REMARK    4  A    between atoms: C_28  and  O_29
REMARK                            x       y       z     vdW  Elec       q    Type
REMARK                         _______ _______ _______ _____ _____    ______ ____
ROOT
ATOM      1  O   UNL     1      31.341 -25.008 -12.578  0.00  0.00    -0.209 OA
ATOM      2  N   UNL     1      32.425 -22.960 -15.845  0.00  0.00    -0.275 N 
ATOM      3  N   UNL     1      36.586 -24.702 -12.695  0.00  0.00    -0.315 N 
ATOM      4  N   UNL     1      37.155 -23.564 -14.516  0.00  0.00    -0.316 N 
ATOM      5  N   UNL     1      30.715 -23.879 -14.469  0.00  0.00    -0.302 NA
ATOM      6  N   UNL     1      30.225 -22.699 -16.433  0.00  0.00    -0.320 N 
ATOM      7  C   UNL     1      34.795 -23.180 -15.314  0.00  0.00    +0.007 C 
ATOM      8  C   UNL     1      33.447 -23.425 -15.010  0.00  0.00    +0.060 C 
ATOM      9  C   UNL     1      35.785 -23.669 -14.442  0.00  0.00    +0.056 C 
ATOM     10  C   UNL     1      35.402 -24.379 -13.309  0.00  0.00    +0.060 C 
ATOM     11  C   UNL     1      33.101 -24.146 -13.857  0.00  0.00    +0.109 C 
ATOM     12  C   UNL     1      34.073 -24.642 -12.976  0.00  0.00    +0.029 C 
ATOM     13  C   UNL     1      31.653 -24.378 -13.584  0.00  0.00    +0.208 C 
ATOM     14  C   UNL     1      37.603 -24.193 -13.454  0.00  0.00    +0.182 C 
ATOM     15  C   UNL     1      31.112 -23.216 -15.523  0.00  0.00    +0.248 C 
ATOM     16  H   UNL     1      32.645 -22.452 -16.659  0.00  0.00    +0.156 HD
ATOM     17  H   UNL     1      36.685 -25.210 -11.858  0.00  0.00    +0.148 HD
ATOM     18  H   UNL     1      37.684 -23.114 -15.214  0.00  0.00    +0.148 HD
ATOM     19  H   UNL     1      30.555 -22.205 -17.217  0.00  0.00    +0.146 HD
ATOM     20  H   UNL     1      29.256 -22.824 -16.301  0.00  0.00    +0.146 HD
ENDROOT
BRANCH   7  21
ATOM     21  C   UNL     1      35.171 -22.412 -16.541  0.00  0.00    +0.034 C 
BRANCH  21  22
ATOM     22  C   UNL     1      34.312 -22.747 -17.775  0.00  0.00    +0.031 C 
BRANCH  22  23
ATOM     23  C   UNL     1      34.347 -21.674 -18.835  0.00  0.00    -0.022 C 
ATOM     24  C   UNL     1      35.569 -21.248 -19.331  0.00  0.00    -0.001 C 
ATOM     25  C   UNL     1      33.157 -21.132 -19.292  0.00  0.00    -0.001 C 
ATOM     26  C   UNL     1      35.602 -20.256 -20.311  0.00  0.00    +0.037 C 
ATOM     27  C   UNL     1      33.189 -20.139 -20.272  0.00  0.00    +0.037 C 
ATOM     28  C   UNL     1      34.412 -19.702 -20.781  0.00  0.00    +0.139 C 
BRANCH  28  29
ATOM     29  O   UNL     1      34.443 -18.733 -21.737  0.00  0.00    -0.471 OA
ATOM     30  C   UNL     1      34.848 -19.125 -23.047  0.00  0.00    +0.252 C 
ENDBRANCH  28  29
ENDBRANCH  22  23
ENDBRANCH  21  22
ENDBRANCH   7  21
TORSDOF 4
ENDMDL
MODEL 5
REMARK VINA RESULT:     -10.7      3.087      6.114
REMARK  Name = 5326930
REMARK  4 active torsions:
REMARK  status: ('A' for Active; 'I' for Inactive)
REMARK    1  A    between atoms: C_7  and  C_21
REMARK    2  A    between atoms: C_21  and  C_22
REMARK    3  A    between atoms: C_22  and  C_23
REMARK    4  A    between atoms: C_28  and  O_29
REMARK                            x       y       z     vdW  Elec       q    Type
REMARK                         _______ _______ _______ _____ _____    ______ ____
ROOT
ATOM      1  O   UNL     1      37.411 -21.594 -16.649  0.00  0.00    -0.209 OA
ATOM      2  N   UNL     1      33.856 -23.387 -16.207  0.00  0.00    -0.275 N 
ATOM      3  N   UNL     1      37.162 -23.642 -11.816  0.00  0.00    -0.315 N 
ATOM      4  N   UNL     1      35.182 -24.626 -11.603  0.00  0.00    -0.316 N 
ATOM      5  N   UNL     1      35.382 -22.153 -17.553  0.00  0.00    -0.302 NA
ATOM      6  N   UNL     1      33.272 -22.795 -18.344  0.00  0.00    -0.320 N 
ATOM      7  C   UNL     1      34.375 -24.065 -13.923  0.00  0.00    +0.007 C 
ATOM      8  C   UNL     1      34.734 -23.424 -15.119  0.00  0.00    +0.060 C 
ATOM      9  C   UNL     1      35.293 -24.074 -12.857  0.00  0.00    +0.056 C 
ATOM     10  C   UNL     1      36.527 -23.451 -13.018  0.00  0.00    +0.060 C 
ATOM     11  C   UNL     1      35.988 -22.805 -15.241  0.00  0.00    +0.109 C 
ATOM     12  C   UNL     1      36.917 -22.803 -14.190  0.00  0.00    +0.029 C 
ATOM     13  C   UNL     1      36.316 -22.137 -16.534  0.00  0.00    +0.208 C 
ATOM     14  C   UNL     1      36.319 -24.349 -11.006  0.00  0.00    +0.182 C 
ATOM     15  C   UNL     1      34.235 -22.750 -17.367  0.00  0.00    +0.248 C 
ATOM     16  H   UNL     1      32.972 -23.814 -16.143  0.00  0.00    +0.156 HD
ATOM     17  H   UNL     1      38.064 -23.327 -11.582  0.00  0.00    +0.148 HD
ATOM     18  H   UNL     1      34.416 -25.122 -11.232  0.00  0.00    +0.148 HD
ATOM     19  H   UNL     1      32.417 -23.252 -18.172  0.00  0.00    +0.146 HD
ATOM     20  H   UNL     1      33.437 -22.370 -19.217  0.00  0.00    +0.146 HD
ENDROOT
BRANCH   7  21
ATOM     21  C   UNL     1      33.040 -24.727 -13.785  0.00  0.00    +0.034 C 
BRANCH  21  22
ATOM     22  C   UNL     1      31.918 -23.779 -13.324  0.00  0.00    +0.031 C 
BRANCH  22  23
ATOM     23  C   UNL     1      30.745 -23.738 -14.271  0.00  0.00    -0.022 C 
ATOM     24  C   UNL     1      30.661 -22.719 -15.206  0.00  0.00    -0.001 C 
ATOM     25  C   UNL     1      29.770 -24.719 -14.187  0.00  0.00    -0.001 C 
ATOM     26  C   UNL     1      29.577 -22.680 -16.082  0.00  0.00    +0.037 C 
ATOM     27  C   UNL     1      28.684 -24.681 -15.064  0.00  0.00    +0.037 C 
ATOM     28  C   UNL     1      28.588 -23.662 -16.011  0.00  0.00    +0.139 C 
BRANCH  28  29
ATOM     29  O   UNL     1      27.529 -23.625 -16.864  0.00  0.00    -0.471 OA
ATOM     30  C   UNL     1      26.902 -22.360 -17.068  0.00  0.00    +0.252 C 
ENDBRANCH  28  29
ENDBRANCH  22  23
ENDBRANCH  21  22
ENDBRANCH   7  21
TORSDOF 4
ENDMDL
MODEL 6
REMARK VINA RESULT:     -10.2      3.078      7.438
REMARK  Name = 5326930
REMARK  4 active torsions:
REMARK  status: ('A' for Active; 'I' for Inactive)
REMARK    1  A    between atoms: C_7  and  C_21
REMARK    2  A    between atoms: C_21  and  C_22
REMARK    3  A    between atoms: C_22  and  C_23
REMARK    4  A    between atoms: C_28  and  O_29
REMARK                            x       y       z     vdW  Elec       q    Type
REMARK                         _______ _______ _______ _____ _____    ______ ____
ROOT
ATOM      1  O   UNL     1      33.420 -19.022 -21.951  0.00  0.00    -0.209 OA
ATOM      2  N   UNL     1      36.818 -19.904 -20.022  0.00  0.00    -0.275 N 
ATOM      3  N   UNL     1      32.317 -22.410 -18.088  0.00  0.00    -0.315 N 
ATOM      4  N   UNL     1      34.218 -22.879 -17.040  0.00  0.00    -0.316 N 
ATOM      5  N   UNL     1      35.681 -18.725 -21.748  0.00  0.00    -0.302 NA
ATOM      6  N   UNL     1      37.992 -18.519 -21.421  0.00  0.00    -0.320 N 
ATOM      7  C   UNL     1      35.666 -21.402 -18.480  0.00  0.00    +0.007 C 
ATOM      8  C   UNL     1      35.644 -20.516 -19.568  0.00  0.00    +0.060 C 
ATOM      9  C   UNL     1      34.459 -21.992 -18.063  0.00  0.00    +0.056 C 
ATOM     10  C   UNL     1      33.282 -21.680 -18.737  0.00  0.00    +0.060 C 
ATOM     11  C   UNL     1      34.436 -20.227 -20.222  0.00  0.00    +0.109 C 
ATOM     12  C   UNL     1      33.222 -20.805 -19.821  0.00  0.00    +0.029 C 
ATOM     13  C   UNL     1      34.472 -19.279 -21.373  0.00  0.00    +0.208 C 
ATOM     14  C   UNL     1      32.925 -23.108 -17.084  0.00  0.00    +0.182 C 
ATOM     15  C   UNL     1      36.766 -19.039 -21.091  0.00  0.00    +0.248 C 
ATOM     16  H   UNL     1      37.676 -20.092 -19.577  0.00  0.00    +0.156 HD
ATOM     17  H   UNL     1      31.358 -22.425 -18.308  0.00  0.00    +0.148 HD
ATOM     18  H   UNL     1      34.874 -23.261 -16.411  0.00  0.00    +0.148 HD
ATOM     19  H   UNL     1      38.791 -18.777 -20.907  0.00  0.00    +0.146 HD
ATOM     20  H   UNL     1      38.073 -17.888 -22.173  0.00  0.00    +0.146 HD
ENDROOT
BRANCH   7  21
ATOM     21  C   UNL     1      36.950 -21.714 -17.778  0.00  0.00    +0.034 C 
BRANCH  21  22
ATOM     22  C   UNL     1      36.998 -21.223 -16.319  0.00  0.00    +0.031 C 
BRANCH  22  23
ATOM     23  C   UNL     1      37.139 -22.344 -15.318  0.00  0.00    -0.022 C 
ATOM     24  C   UNL     1      36.169 -22.509 -14.343  0.00  0.00    -0.001 C 
ATOM     25  C   UNL     1      38.236 -23.186 -15.391  0.00  0.00    -0.001 C 
ATOM     26  C   UNL     1      36.298 -23.544 -13.417  0.00  0.00    +0.037 C 
ATOM     27  C   UNL     1      38.366 -24.222 -14.465  0.00  0.00    +0.037 C 
ATOM     28  C   UNL     1      37.397 -24.400 -13.478  0.00  0.00    +0.139 C 
BRANCH  28  29
ATOM     29  O   UNL     1      37.525 -25.410 -12.575  0.00  0.00    -0.471 OA
ATOM     30  C   UNL     1      37.165 -26.720 -13.008  0.00  0.00    +0.252 C 
ENDBRANCH  28  29
ENDBRANCH  22  23
ENDBRANCH  21  22
ENDBRANCH   7  21
TORSDOF 4
ENDMDL
MODEL 7
REMARK VINA RESULT:     -10.1      3.487      5.956
REMARK  Name = 5326930
REMARK  4 active torsions:
REMARK  status: ('A' for Active; 'I' for Inactive)
REMARK    1  A    between atoms: C_7  and  C_21
REMARK    2  A    between atoms: C_21  and  C_22
REMARK    3  A    between atoms: C_22  and  C_23
REMARK    4  A    between atoms: C_28  and  O_29
REMARK                            x       y       z     vdW  Elec       q    Type
REMARK                         _______ _______ _______ _____ _____    ______ ____
ROOT
ATOM      1  O   UNL     1      38.587 -22.501 -11.464  0.00  0.00    -0.209 OA
ATOM      2  N   UNL     1      35.025 -24.333 -11.412  0.00  0.00    -0.275 N 
ATOM      3  N   UNL     1      36.423 -22.085 -16.235  0.00  0.00    -0.315 N 
ATOM      4  N   UNL     1      34.454 -23.110 -16.174  0.00  0.00    -0.316 N 
ATOM      5  N   UNL     1      37.016 -23.678 -10.285  0.00  0.00    -0.302 NA
ATOM      6  N   UNL     1      35.322 -24.886  -9.207  0.00  0.00    -0.320 N 
ATOM      7  C   UNL     1      34.609 -23.800 -13.755  0.00  0.00    +0.007 C 
ATOM      8  C   UNL     1      35.427 -23.745 -12.616  0.00  0.00    +0.060 C 
ATOM      9  C   UNL     1      35.059 -23.193 -14.941  0.00  0.00    +0.056 C 
ATOM     10  C   UNL     1      36.296 -22.557 -14.953  0.00  0.00    +0.060 C 
ATOM     11  C   UNL     1      36.670 -23.094 -12.667  0.00  0.00    +0.109 C 
ATOM     12  C   UNL     1      37.136 -22.483 -13.841  0.00  0.00    +0.029 C 
ATOM     13  C   UNL     1      37.498 -23.067 -11.428  0.00  0.00    +0.208 C 
ATOM     14  C   UNL     1      35.298 -22.440 -16.924  0.00  0.00    +0.182 C 
ATOM     15  C   UNL     1      35.849 -24.264 -10.311  0.00  0.00    +0.248 C 
ATOM     16  H   UNL     1      34.158 -24.795 -11.353  0.00  0.00    +0.156 HD
ATOM     17  H   UNL     1      37.188 -21.580 -16.593  0.00  0.00    +0.148 HD
ATOM     18  H   UNL     1      33.577 -23.475 -16.436  0.00  0.00    +0.148 HD
ATOM     19  H   UNL     1      34.440 -25.319  -9.259  0.00  0.00    +0.146 HD
ATOM     20  H   UNL     1      35.828 -24.897  -8.361  0.00  0.00    +0.146 HD
ENDROOT
BRANCH   7  21
ATOM     21  C   UNL     1      33.283 -24.492 -13.707  0.00  0.00    +0.034 C 
BRANCH  21  22
ATOM     22  C   UNL     1      32.118 -23.578 -13.285  0.00  0.00    +0.031 C 
BRANCH  22  23
ATOM     23  C   UNL     1      30.948 -23.625 -14.237  0.00  0.00    -0.022 C 
ATOM     24  C   UNL     1      29.887 -24.474 -13.969  0.00  0.00    -0.001 C 
ATOM     25  C   UNL     1      30.958 -22.820 -15.365  0.00  0.00    -0.001 C 
ATOM     26  C   UNL     1      28.806 -24.519 -14.848  0.00  0.00    +0.037 C 
ATOM     27  C   UNL     1      29.877 -22.864 -16.246  0.00  0.00    +0.037 C 
ATOM     28  C   UNL     1      28.801 -23.713 -15.987  0.00  0.00    +0.139 C 
BRANCH  28  29
ATOM     29  O   UNL     1      27.747 -23.757 -16.847  0.00  0.00    -0.471 OA
ATOM     30  C   UNL     1      27.009 -22.550 -17.033  0.00  0.00    +0.252 C 
ENDBRANCH  28  29
ENDBRANCH  22  23
ENDBRANCH  21  22
ENDBRANCH   7  21
TORSDOF 4
ENDMDL
MODEL 8
REMARK VINA RESULT:     -10.1      3.194      5.922
REMARK  Name = 5326930
REMARK  4 active torsions:
REMARK  status: ('A' for Active; 'I' for Inactive)
REMARK    1  A    between atoms: C_7  and  C_21
REMARK    2  A    between atoms: C_21  and  C_22
REMARK    3  A    between atoms: C_22  and  C_23
REMARK    4  A    between atoms: C_28  and  O_29
REMARK                            x       y       z     vdW  Elec       q    Type
REMARK                         _______ _______ _______ _____ _____    ______ ____
ROOT
ATOM      1  O   UNL     1      38.220 -22.715 -15.214  0.00  0.00    -0.209 OA
ATOM      2  N   UNL     1      34.678 -24.225 -14.110  0.00  0.00    -0.275 N 
ATOM      3  N   UNL     1      34.653 -21.446 -18.859  0.00  0.00    -0.315 N 
ATOM      4  N   UNL     1      32.704 -22.297 -18.219  0.00  0.00    -0.316 N 
ATOM      5  N   UNL     1      36.998 -23.908 -13.688  0.00  0.00    -0.302 NA
ATOM      6  N   UNL     1      35.623 -25.106 -12.217  0.00  0.00    -0.320 N 
ATOM      7  C   UNL     1      33.572 -23.332 -16.092  0.00  0.00    +0.007 C 
ATOM      8  C   UNL     1      34.725 -23.509 -15.311  0.00  0.00    +0.060 C 
ATOM      9  C   UNL     1      33.671 -22.605 -17.291  0.00  0.00    +0.056 C 
ATOM     10  C   UNL     1      34.905 -22.082 -17.669  0.00  0.00    +0.060 C 
ATOM     11  C   UNL     1      35.951 -22.967 -15.726  0.00  0.00    +0.109 C 
ATOM     12  C   UNL     1      36.071 -22.238 -16.919  0.00  0.00    +0.029 C 
ATOM     13  C   UNL     1      37.143 -23.186 -14.858  0.00  0.00    +0.208 C 
ATOM     14  C   UNL     1      33.326 -21.603 -19.144  0.00  0.00    +0.182 C 
ATOM     15  C   UNL     1      35.824 -24.383 -13.365  0.00  0.00    +0.248 C 
ATOM     16  H   UNL     1      33.828 -24.614 -13.800  0.00  0.00    +0.156 HD
ATOM     17  H   UNL     1      35.313 -20.963 -19.407  0.00  0.00    +0.148 HD
ATOM     18  H   UNL     1      31.750 -22.544 -18.195  0.00  0.00    +0.148 HD
ATOM     19  H   UNL     1      34.727 -25.451 -12.002  0.00  0.00    +0.146 HD
ATOM     20  H   UNL     1      36.377 -25.281 -11.607  0.00  0.00    +0.146 HD
ENDROOT
BRANCH   7  21
ATOM     21  C   UNL     1      32.261 -23.908 -15.655  0.00  0.00    +0.034 C 
BRANCH  21  22
ATOM     22  C   UNL     1      31.482 -23.012 -14.675  0.00  0.00    +0.031 C 
BRANCH  22  23
ATOM     23  C   UNL     1      30.043 -22.802 -15.074  0.00  0.00    -0.022 C 
ATOM     24  C   UNL     1      29.152 -22.273 -14.154  0.00  0.00    -0.001 C 
ATOM     25  C   UNL     1      29.636 -23.143 -16.354  0.00  0.00    -0.001 C 
ATOM     26  C   UNL     1      27.821 -22.079 -14.522  0.00  0.00    +0.037 C 
ATOM     27  C   UNL     1      28.305 -22.949 -16.724  0.00  0.00    +0.037 C 
ATOM     28  C   UNL     1      27.398 -22.417 -15.808  0.00  0.00    +0.139 C 
BRANCH  28  29
ATOM     29  O   UNL     1      26.099 -22.229 -16.168  0.00  0.00    -0.471 OA
ATOM     30  C   UNL     1      25.839 -21.255 -17.178  0.00  0.00    +0.252 C 
ENDBRANCH  28  29
ENDBRANCH  22  23
ENDBRANCH  21  22
ENDBRANCH   7  21
TORSDOF 4
ENDMDL
MODEL 9
REMARK VINA RESULT:      -9.6      2.577      6.015
REMARK  Name = 5326930
REMARK  4 active torsions:
REMARK  status: ('A' for Active; 'I' for Inactive)
REMARK    1  A    between atoms: C_7  and  C_21
REMARK    2  A    between atoms: C_21  and  C_22
REMARK    3  A    between atoms: C_22  and  C_23
REMARK    4  A    between atoms: C_28  and  O_29
REMARK                            x       y       z     vdW  Elec       q    Type
REMARK                         _______ _______ _______ _____ _____    ______ ____
ROOT
ATOM      1  O   UNL     1      33.357 -22.808 -18.749  0.00  0.00    -0.209 OA
ATOM      2  N   UNL     1      35.263 -22.664 -15.229  0.00  0.00    -0.275 N 
ATOM      3  N   UNL     1      30.005 -24.266 -14.973  0.00  0.00    -0.315 N 
ATOM      4  N   UNL     1      31.090 -24.177 -13.037  0.00  0.00    -0.316 N 
ATOM      5  N   UNL     1      35.283 -22.373 -17.590  0.00  0.00    -0.302 NA
ATOM      6  N   UNL     1      37.179 -21.967 -16.275  0.00  0.00    -0.320 N 
ATOM      7  C   UNL     1      33.280 -23.403 -14.016  0.00  0.00    +0.007 C 
ATOM      8  C   UNL     1      33.922 -23.066 -15.218  0.00  0.00    +0.060 C 
ATOM      9  C   UNL     1      31.931 -23.801 -14.059  0.00  0.00    +0.056 C 
ATOM     10  C   UNL     1      31.274 -23.848 -15.285  0.00  0.00    +0.060 C 
ATOM     11  C   UNL     1      33.226 -23.126 -16.434  0.00  0.00    +0.109 C 
ATOM     12  C   UNL     1      31.881 -23.520 -16.498  0.00  0.00    +0.029 C 
ATOM     13  C   UNL     1      33.958 -22.757 -17.680  0.00  0.00    +0.208 C 
ATOM     14  C   UNL     1      29.945 -24.448 -13.620  0.00  0.00    +0.182 C 
ATOM     15  C   UNL     1      35.867 -22.340 -16.422  0.00  0.00    +0.248 C 
ATOM     16  H   UNL     1      35.770 -22.615 -14.387  0.00  0.00    +0.156 HD
ATOM     17  H   UNL     1      29.269 -24.407 -15.612  0.00  0.00    +0.148 HD
ATOM     18  H   UNL     1      31.302 -24.231 -12.076  0.00  0.00    +0.148 HD
ATOM     19  H   UNL     1      37.591 -21.952 -15.381  0.00  0.00    +0.146 HD
ATOM     20  H   UNL     1      37.710 -21.713 -17.065  0.00  0.00    +0.146 HD
ENDROOT
BRANCH   7  21
ATOM     21  C   UNL     1      34.016 -23.341 -12.716  0.00  0.00    +0.034 C 
BRANCH  21  22
ATOM     22  C   UNL     1      34.640 -24.682 -12.287  0.00  0.00    +0.031 C 
BRANCH  22  23
ATOM     23  C   UNL     1      36.119 -24.769 -12.569  0.00  0.00    -0.022 C 
ATOM     24  C   UNL     1      37.016 -24.210 -11.673  0.00  0.00    -0.001 C 
ATOM     25  C   UNL     1      36.555 -25.405 -13.721  0.00  0.00    -0.001 C 
ATOM     26  C   UNL     1      38.384 -24.289 -11.933  0.00  0.00    +0.037 C 
ATOM     27  C   UNL     1      37.924 -25.485 -13.982  0.00  0.00    +0.037 C 
ATOM     28  C   UNL     1      38.838 -24.927 -13.088  0.00  0.00    +0.139 C 
BRANCH  28  29
ATOM     29  O   UNL     1      40.172 -25.004 -13.343  0.00  0.00    -0.471 OA
ATOM     30  C   UNL     1      40.625 -26.123 -14.103  0.00  0.00    +0.252 C 
ENDBRANCH  28  29
ENDBRANCH  22  23
ENDBRANCH  21  22
ENDBRANCH   7  21
TORSDOF 4
ENDMDL
