MODEL 1
REMARK VINA RESULT:     -12.2      0.000      0.000
REMARK  Name = 5326929
REMARK  3 active torsions:
REMARK  status: ('A' for Active; 'I' for Inactive)
REMARK    1  A    between atoms: C_7  and  C_21
REMARK    2  A    between atoms: C_21  and  C_22
REMARK    3  A    between atoms: C_22  and  C_23
REMARK                            x       y       z     vdW  Elec       q    Type
REMARK                         _______ _______ _______ _____ _____    ______ ____
ROOT
ATOM      1  O   UNL     1      34.510 -23.984 -11.621  0.00  0.00    -0.209 OA
ATOM      2  N   UNL     1      35.547 -23.739 -15.482  0.00  0.00    -0.275 N 
ATOM      3  N   UNL     1      30.193 -23.004 -14.452  0.00  0.00    -0.315 N 
ATOM      4  N   UNL     1      30.800 -22.873 -16.585  0.00  0.00    -0.316 N 
ATOM      5  N   UNL     1      36.159 -24.077 -13.207  0.00  0.00    -0.302 NA
ATOM      6  N   UNL     1      37.738 -24.142 -14.937  0.00  0.00    -0.320 N 
ATOM      7  C   UNL     1      33.248 -23.305 -16.172  0.00  0.00    +0.007 C 
ATOM      8  C   UNL     1      34.196 -23.560 -15.168  0.00  0.00    +0.060 C 
ATOM      9  C   UNL     1      31.902 -23.131 -15.803  0.00  0.00    +0.056 C 
ATOM     10  C   UNL     1      31.548 -23.217 -14.461  0.00  0.00    +0.060 C 
ATOM     11  C   UNL     1      33.800 -23.639 -13.824  0.00  0.00    +0.109 C 
ATOM     12  C   UNL     1      32.462 -23.470 -13.436  0.00  0.00    +0.029 C 
ATOM     13  C   UNL     1      34.848 -23.913 -12.799  0.00  0.00    +0.208 C 
ATOM     14  C   UNL     1      29.794 -22.804 -15.744  0.00  0.00    +0.182 C 
ATOM     15  C   UNL     1      36.453 -23.989 -14.478  0.00  0.00    +0.248 C 
ATOM     16  H   UNL     1      35.847 -23.689 -16.418  0.00  0.00    +0.156 HD
ATOM     17  H   UNL     1      29.612 -22.997 -13.658  0.00  0.00    +0.148 HD
ATOM     18  H   UNL     1      30.772 -22.765 -17.563  0.00  0.00    +0.148 HD
ATOM     19  H   UNL     1      37.928 -24.070 -15.901  0.00  0.00    +0.146 HD
ATOM     20  H   UNL     1      38.468 -24.324 -14.304  0.00  0.00    +0.146 HD
ENDROOT
BRANCH   7  21
ATOM     21  C   UNL     1      33.664 -23.217 -17.606  0.00  0.00    +0.034 C 
BRANCH  21  22
ATOM     22  C   UNL     1      33.031 -22.038 -18.368  0.00  0.00    +0.031 C 
BRANCH  22  23
ATOM     23  C   UNL     1      34.041 -21.190 -19.100  0.00  0.00    -0.022 C 
ATOM     24  C   UNL     1      35.393 -21.372 -18.849  0.00  0.00    -0.005 C 
ATOM     25  C   UNL     1      33.601 -20.245 -20.013  0.00  0.00    -0.005 C 
ATOM     26  C   UNL     1      35.897 -19.632 -20.447  0.00  0.00    -0.022 C 
ATOM     27  C   UNL     1      36.326 -20.587 -19.526  0.00  0.00    -0.005 C 
ATOM     28  C   UNL     1      34.534 -19.461 -20.691  0.00  0.00    -0.005 C 
ATOM     29  C   UNL     1      36.895 -18.795 -21.172  0.00  0.00    +0.031 C 
ENDBRANCH  22  23
ENDBRANCH  21  22
ENDBRANCH   7  21
TORSDOF 3
ENDMDL
MODEL 2
REMARK VINA RESULT:     -11.7      1.675      2.528
REMARK  Name = 5326929
REMARK  3 active torsions:
REMARK  status: ('A' for Active; 'I' for Inactive)
REMARK    1  A    between atoms: C_7  and  C_21
REMARK    2  A    between atoms: C_21  and  C_22
REMARK    3  A    between atoms: C_22  and  C_23
REMARK                            x       y       z     vdW  Elec       q    Type
REMARK                         _______ _______ _______ _____ _____    ______ ____
ROOT
ATOM      1  O   UNL     1      36.976 -26.089 -11.321  0.00  0.00    -0.209 OA
ATOM      2  N   UNL     1      37.564 -24.278 -14.845  0.00  0.00    -0.275 N 
ATOM      3  N   UNL     1      32.568 -23.561 -12.656  0.00  0.00    -0.315 N 
ATOM      4  N   UNL     1      32.925 -22.567 -14.611  0.00  0.00    -0.316 N 
ATOM      5  N   UNL     1      38.383 -25.635 -13.070  0.00  0.00    -0.302 NA
ATOM      6  N   UNL     1      39.709 -25.086 -14.922  0.00  0.00    -0.320 N 
ATOM      7  C   UNL     1      35.301 -23.368 -14.864  0.00  0.00    +0.007 C 
ATOM      8  C   UNL     1      36.309 -24.126 -14.247  0.00  0.00    +0.060 C 
ATOM      9  C   UNL     1      34.057 -23.245 -14.220  0.00  0.00    +0.056 C 
ATOM     10  C   UNL     1      33.859 -23.876 -12.997  0.00  0.00    +0.060 C 
ATOM     11  C   UNL     1      36.071 -24.748 -13.011  0.00  0.00    +0.109 C 
ATOM     12  C   UNL     1      34.835 -24.639 -12.355  0.00  0.00    +0.029 C 
ATOM     13  C   UNL     1      37.176 -25.542 -12.401  0.00  0.00    +0.208 C 
ATOM     14  C   UNL     1      32.053 -22.778 -13.652  0.00  0.00    +0.182 C 
ATOM     15  C   UNL     1      38.532 -25.027 -14.218  0.00  0.00    +0.248 C 
ATOM     16  H   UNL     1      37.753 -23.851 -15.711  0.00  0.00    +0.156 HD
ATOM     17  H   UNL     1      32.096 -23.847 -11.841  0.00  0.00    +0.148 HD
ATOM     18  H   UNL     1      32.797 -22.039 -15.432  0.00  0.00    +0.148 HD
ATOM     19  H   UNL     1      39.790 -24.617 -15.785  0.00  0.00    +0.146 HD
ATOM     20  H   UNL     1      40.471 -25.596 -14.566  0.00  0.00    +0.146 HD
ENDROOT
BRANCH   7  21
ATOM     21  C   UNL     1      35.549 -22.701 -16.180  0.00  0.00    +0.034 C 
BRANCH  21  22
ATOM     22  C   UNL     1      34.412 -22.895 -17.200  0.00  0.00    +0.031 C 
BRANCH  22  23
ATOM     23  C   UNL     1      34.460 -21.909 -18.341  0.00  0.00    -0.022 C 
ATOM     24  C   UNL     1      33.275 -21.427 -18.876  0.00  0.00    -0.005 C 
ATOM     25  C   UNL     1      35.689 -21.501 -18.835  0.00  0.00    -0.005 C 
ATOM     26  C   UNL     1      34.550 -20.098 -20.438  0.00  0.00    -0.022 C 
ATOM     27  C   UNL     1      33.321 -20.516 -19.931  0.00  0.00    -0.005 C 
ATOM     28  C   UNL     1      35.735 -20.590 -19.890  0.00  0.00    -0.005 C 
ATOM     29  C   UNL     1      34.599 -19.123 -21.565  0.00  0.00    +0.031 C 
ENDBRANCH  22  23
ENDBRANCH  21  22
ENDBRANCH   7  21
TORSDOF 3
ENDMDL
MODEL 3
REMARK VINA RESULT:     -11.6      1.292      3.923
REMARK  Name = 5326929
REMARK  3 active torsions:
REMARK  status: ('A' for Active; 'I' for Inactive)
REMARK    1  A    between atoms: C_7  and  C_21
REMARK    2  A    between atoms: C_21  and  C_22
REMARK    3  A    between atoms: C_22  and  C_23
REMARK                            x       y       z     vdW  Elec       q    Type
REMARK                         _______ _______ _______ _____ _____    ______ ____
ROOT
ATOM      1  O   UNL     1      30.818 -25.032 -12.365  0.00  0.00    -0.209 OA
ATOM      2  N   UNL     1      30.544 -23.345 -15.987  0.00  0.00    -0.275 N 
ATOM      3  N   UNL     1      35.644 -23.693 -13.954  0.00  0.00    -0.315 N 
ATOM      4  N   UNL     1      35.459 -22.763 -15.963  0.00  0.00    -0.316 N 
ATOM      5  N   UNL     1      29.494 -24.363 -14.110  0.00  0.00    -0.302 NA
ATOM      6  N   UNL     1      28.269 -23.631 -15.967  0.00  0.00    -0.320 N 
ATOM      7  C   UNL     1      32.954 -22.994 -16.112  0.00  0.00    +0.007 C 
ATOM      8  C   UNL     1      31.820 -23.457 -15.426  0.00  0.00    +0.060 C 
ATOM      9  C   UNL     1      34.215 -23.130 -15.505  0.00  0.00    +0.056 C 
ATOM     10  C   UNL     1      34.304 -23.716 -14.247  0.00  0.00    +0.060 C 
ATOM     11  C   UNL     1      31.951 -24.043 -14.158  0.00  0.00    +0.109 C 
ATOM     12  C   UNL     1      33.200 -24.187 -13.535  0.00  0.00    +0.029 C 
ATOM     13  C   UNL     1      30.713 -24.517 -13.474  0.00  0.00    +0.208 C 
ATOM     14  C   UNL     1      36.291 -23.114 -15.010  0.00  0.00    +0.182 C 
ATOM     15  C   UNL     1      29.450 -23.808 -15.292  0.00  0.00    +0.248 C 
ATOM     16  H   UNL     1      30.429 -22.937 -16.875  0.00  0.00    +0.156 HD
ATOM     17  H   UNL     1      36.064 -24.032 -13.131  0.00  0.00    +0.148 HD
ATOM     18  H   UNL     1      35.678 -22.330 -16.820  0.00  0.00    +0.148 HD
ATOM     19  H   UNL     1      28.268 -23.208 -16.857  0.00  0.00    +0.146 HD
ATOM     20  H   UNL     1      27.422 -23.925 -15.562  0.00  0.00    +0.146 HD
ENDROOT
BRANCH   7  21
ATOM     21  C   UNL     1      32.822 -22.368 -17.465  0.00  0.00    +0.034 C 
BRANCH  21  22
ATOM     22  C   UNL     1      33.953 -22.748 -18.440  0.00  0.00    +0.031 C 
BRANCH  22  23
ATOM     23  C   UNL     1      34.520 -21.565 -19.184  0.00  0.00    -0.022 C 
ATOM     24  C   UNL     1      35.895 -21.384 -19.227  0.00  0.00    -0.005 C 
ATOM     25  C   UNL     1      33.659 -20.680 -19.813  0.00  0.00    -0.005 C 
ATOM     26  C   UNL     1      35.563 -19.391 -20.552  0.00  0.00    -0.022 C 
ATOM     27  C   UNL     1      36.419 -20.290 -19.915  0.00  0.00    -0.005 C 
ATOM     28  C   UNL     1      34.183 -19.586 -20.501  0.00  0.00    -0.005 C 
ATOM     29  C   UNL     1      36.124 -18.222 -21.289  0.00  0.00    +0.031 C 
ENDBRANCH  22  23
ENDBRANCH  21  22
ENDBRANCH   7  21
TORSDOF 3
ENDMDL
MODEL 4
REMARK VINA RESULT:     -11.6      1.069      3.990
REMARK  Name = 5326929
REMARK  3 active torsions:
REMARK  status: ('A' for Active; 'I' for Inactive)
REMARK    1  A    between atoms: C_7  and  C_21
REMARK    2  A    between atoms: C_21  and  C_22
REMARK    3  A    between atoms: C_22  and  C_23
REMARK                            x       y       z     vdW  Elec       q    Type
REMARK                         _______ _______ _______ _____ _____    ______ ____
ROOT
ATOM      1  O   UNL     1      30.812 -23.544 -12.169  0.00  0.00    -0.209 OA
ATOM      2  N   UNL     1      31.346 -23.240 -16.126  0.00  0.00    -0.275 N 
ATOM      3  N   UNL     1      35.966 -23.707 -13.176  0.00  0.00    -0.315 N 
ATOM      4  N   UNL     1      36.229 -23.538 -15.376  0.00  0.00    -0.316 N 
ATOM      5  N   UNL     1      29.884 -23.325 -14.251  0.00  0.00    -0.302 NA
ATOM      6  N   UNL     1      29.078 -23.105 -16.439  0.00  0.00    -0.320 N 
ATOM      7  C   UNL     1      33.771 -23.374 -15.907  0.00  0.00    +0.007 C 
ATOM      8  C   UNL     1      32.490 -23.361 -15.332  0.00  0.00    +0.060 C 
ATOM      9  C   UNL     1      34.890 -23.499 -15.064  0.00  0.00    +0.056 C 
ATOM     10  C   UNL     1      34.698 -23.604 -13.690  0.00  0.00    +0.060 C 
ATOM     11  C   UNL     1      32.338 -23.469 -13.941  0.00  0.00    +0.109 C 
ATOM     12  C   UNL     1      33.441 -23.593 -13.083  0.00  0.00    +0.029 C 
ATOM     13  C   UNL     1      30.954 -23.449 -13.384  0.00  0.00    +0.208 C 
ATOM     14  C   UNL     1      36.845 -23.663 -14.223  0.00  0.00    +0.182 C 
ATOM     15  C   UNL     1      30.103 -23.229 -15.536  0.00  0.00    +0.248 C 
ATOM     16  H   UNL     1      31.429 -23.162 -17.104  0.00  0.00    +0.156 HD
ATOM     17  H   UNL     1      36.201 -23.797 -12.225  0.00  0.00    +0.148 HD
ATOM     18  H   UNL     1      36.637 -23.484 -16.270  0.00  0.00    +0.148 HD
ATOM     19  H   UNL     1      29.276 -23.035 -17.402  0.00  0.00    +0.146 HD
ATOM     20  H   UNL     1      28.145 -23.086 -16.127  0.00  0.00    +0.146 HD
ENDROOT
BRANCH   7  21
ATOM     21  C   UNL     1      33.941 -23.260 -17.389  0.00  0.00    +0.034 C 
BRANCH  21  22
ATOM     22  C   UNL     1      33.068 -22.167 -18.034  0.00  0.00    +0.031 C 
BRANCH  22  23
ATOM     23  C   UNL     1      33.828 -21.288 -18.996  0.00  0.00    -0.022 C 
ATOM     24  C   UNL     1      33.127 -20.479 -19.877  0.00  0.00    -0.005 C 
ATOM     25  C   UNL     1      35.213 -21.303 -18.981  0.00  0.00    -0.005 C 
ATOM     26  C   UNL     1      35.225 -19.672 -20.763  0.00  0.00    -0.022 C 
ATOM     27  C   UNL     1      33.830 -19.666 -20.766  0.00  0.00    -0.005 C 
ATOM     28  C   UNL     1      35.917 -20.490 -19.870  0.00  0.00    -0.005 C 
ATOM     29  C   UNL     1      35.976 -18.802 -21.712  0.00  0.00    +0.031 C 
ENDBRANCH  22  23
ENDBRANCH  21  22
ENDBRANCH   7  21
TORSDOF 3
ENDMDL
MODEL 5
REMARK VINA RESULT:     -10.5      1.965      4.682
REMARK  Name = 5326929
REMARK  3 active torsions:
REMARK  status: ('A' for Active; 'I' for Inactive)
REMARK    1  A    between atoms: C_7  and  C_21
REMARK    2  A    between atoms: C_21  and  C_22
REMARK    3  A    between atoms: C_22  and  C_23
REMARK                            x       y       z     vdW  Elec       q    Type
REMARK                         _______ _______ _______ _____ _____    ______ ____
ROOT
ATOM      1  O   UNL     1      34.937 -25.111 -10.822  0.00  0.00    -0.209 OA
ATOM      2  N   UNL     1      34.518 -22.873 -14.117  0.00  0.00    -0.275 N 
ATOM      3  N   UNL     1      39.467 -25.190 -13.482  0.00  0.00    -0.315 N 
ATOM      4  N   UNL     1      39.203 -23.943 -15.302  0.00  0.00    -0.316 N 
ATOM      5  N   UNL     1      33.600 -23.777 -12.116  0.00  0.00    -0.302 NA
ATOM      6  N   UNL     1      32.350 -22.398 -13.539  0.00  0.00    -0.320 N 
ATOM      7  C   UNL     1      36.809 -23.314 -14.825  0.00  0.00    +0.007 C 
ATOM      8  C   UNL     1      35.758 -23.484 -13.910  0.00  0.00    +0.060 C 
ATOM      9  C   UNL     1      38.037 -23.951 -14.571  0.00  0.00    +0.056 C 
ATOM     10  C   UNL     1      38.177 -24.726 -13.425  0.00  0.00    +0.060 C 
ATOM     11  C   UNL     1      35.938 -24.275 -12.764  0.00  0.00    +0.109 C 
ATOM     12  C   UNL     1      37.156 -24.917 -12.493  0.00  0.00    +0.029 C 
ATOM     13  C   UNL     1      34.789 -24.420 -11.825  0.00  0.00    +0.208 C 
ATOM     14  C   UNL     1      40.038 -24.694 -14.622  0.00  0.00    +0.182 C 
ATOM     15  C   UNL     1      33.506 -23.056 -13.203  0.00  0.00    +0.248 C 
ATOM     16  H   UNL     1      34.370 -22.313 -14.912  0.00  0.00    +0.156 HD
ATOM     17  H   UNL     1      39.904 -25.774 -12.822  0.00  0.00    +0.148 HD
ATOM     18  H   UNL     1      39.374 -23.475 -16.151  0.00  0.00    +0.148 HD
ATOM     19  H   UNL     1      32.311 -21.862 -14.365  0.00  0.00    +0.146 HD
ATOM     20  H   UNL     1      31.560 -22.459 -12.955  0.00  0.00    +0.146 HD
ENDROOT
BRANCH   7  21
ATOM     21  C   UNL     1      36.624 -22.473 -16.048  0.00  0.00    +0.034 C 
BRANCH  21  22
ATOM     22  C   UNL     1      35.365 -22.825 -16.861  0.00  0.00    +0.031 C 
BRANCH  22  23
ATOM     23  C   UNL     1      35.160 -21.931 -18.060  0.00  0.00    -0.022 C 
ATOM     24  C   UNL     1      33.874 -21.699 -18.524  0.00  0.00    -0.005 C 
ATOM     25  C   UNL     1      36.260 -21.357 -18.675  0.00  0.00    -0.005 C 
ATOM     26  C   UNL     1      34.784 -20.289 -20.262  0.00  0.00    -0.022 C 
ATOM     27  C   UNL     1      33.685 -20.873 -19.632  0.00  0.00    -0.005 C 
ATOM     28  C   UNL     1      36.072 -20.531 -19.783  0.00  0.00    -0.005 C 
ATOM     29  C   UNL     1      34.582 -19.405 -21.445  0.00  0.00    +0.031 C 
ENDBRANCH  22  23
ENDBRANCH  21  22
ENDBRANCH   7  21
TORSDOF 3
ENDMDL
MODEL 6
REMARK VINA RESULT:     -10.4      3.655      6.891
REMARK  Name = 5326929
REMARK  3 active torsions:
REMARK  status: ('A' for Active; 'I' for Inactive)
REMARK    1  A    between atoms: C_7  and  C_21
REMARK    2  A    between atoms: C_21  and  C_22
REMARK    3  A    between atoms: C_22  and  C_23
REMARK                            x       y       z     vdW  Elec       q    Type
REMARK                         _______ _______ _______ _____ _____    ______ ____
ROOT
ATOM      1  O   UNL     1      33.264 -19.340 -21.480  0.00  0.00    -0.209 OA
ATOM      2  N   UNL     1      36.705 -20.192 -19.616  0.00  0.00    -0.275 N 
ATOM      3  N   UNL     1      32.266 -22.736 -17.596  0.00  0.00    -0.315 N 
ATOM      4  N   UNL     1      34.191 -23.189 -16.584  0.00  0.00    -0.316 N 
ATOM      5  N   UNL     1      35.526 -19.022 -21.320  0.00  0.00    -0.302 NA
ATOM      6  N   UNL     1      37.841 -18.796 -21.038  0.00  0.00    -0.320 N 
ATOM      7  C   UNL     1      35.598 -21.699 -18.052  0.00  0.00    +0.007 C 
ATOM      8  C   UNL     1      35.547 -20.813 -19.140  0.00  0.00    +0.060 C 
ATOM      9  C   UNL     1      34.404 -22.299 -17.612  0.00  0.00    +0.056 C 
ATOM     10  C   UNL     1      33.212 -22.000 -18.262  0.00  0.00    +0.060 C 
ATOM     11  C   UNL     1      34.324 -20.536 -19.771  0.00  0.00    +0.109 C 
ATOM     12  C   UNL     1      33.123 -21.124 -19.346  0.00  0.00    +0.029 C 
ATOM     13  C   UNL     1      34.329 -19.587 -20.922  0.00  0.00    +0.208 C 
ATOM     14  C   UNL     1      32.901 -23.429 -16.602  0.00  0.00    +0.182 C 
ATOM     15  C   UNL     1      36.626 -19.328 -20.684  0.00  0.00    +0.248 C 
ATOM     16  H   UNL     1      37.573 -20.371 -19.189  0.00  0.00    +0.156 HD
ATOM     17  H   UNL     1      31.303 -22.761 -17.797  0.00  0.00    +0.148 HD
ATOM     18  H   UNL     1      34.862 -23.564 -15.968  0.00  0.00    +0.148 HD
ATOM     19  H   UNL     1      38.652 -19.046 -20.539  0.00  0.00    +0.146 HD
ATOM     20  H   UNL     1      37.901 -18.164 -21.790  0.00  0.00    +0.146 HD
ENDROOT
BRANCH   7  21
ATOM     21  C   UNL     1      36.898 -22.000 -17.375  0.00  0.00    +0.034 C 
BRANCH  21  22
ATOM     22  C   UNL     1      36.957 -21.539 -15.907  0.00  0.00    +0.031 C 
BRANCH  22  23
ATOM     23  C   UNL     1      37.124 -22.678 -14.931  0.00  0.00    -0.022 C 
ATOM     24  C   UNL     1      36.217 -22.823 -13.892  0.00  0.00    -0.005 C 
ATOM     25  C   UNL     1      38.179 -23.562 -15.092  0.00  0.00    -0.005 C 
ATOM     26  C   UNL     1      37.431 -24.772 -13.139  0.00  0.00    -0.022 C 
ATOM     27  C   UNL     1      36.372 -23.876 -12.991  0.00  0.00    -0.005 C 
ATOM     28  C   UNL     1      38.335 -24.615 -14.191  0.00  0.00    -0.005 C 
ATOM     29  C   UNL     1      37.596 -25.898 -12.177  0.00  0.00    +0.031 C 
ENDBRANCH  22  23
ENDBRANCH  21  22
ENDBRANCH   7  21
TORSDOF 3
ENDMDL
MODEL 7
REMARK VINA RESULT:     -10.4      1.632      3.737
REMARK  Name = 5326929
REMARK  3 active torsions:
REMARK  status: ('A' for Active; 'I' for Inactive)
REMARK    1  A    between atoms: C_7  and  C_21
REMARK    2  A    between atoms: C_21  and  C_22
REMARK    3  A    between atoms: C_22  and  C_23
REMARK                            x       y       z     vdW  Elec       q    Type
REMARK                         _______ _______ _______ _____ _____    ______ ____
ROOT
ATOM      1  O   UNL     1      34.223 -23.991 -11.639  0.00  0.00    -0.209 OA
ATOM      2  N   UNL     1      32.382 -24.091 -15.195  0.00  0.00    -0.275 N 
ATOM      3  N   UNL     1      37.474 -22.010 -15.261  0.00  0.00    -0.315 N 
ATOM      4  N   UNL     1      36.426 -22.080 -17.219  0.00  0.00    -0.316 N 
ATOM      5  N   UNL     1      32.358 -24.527 -12.855  0.00  0.00    -0.302 NA
ATOM      6  N   UNL     1      30.524 -25.023 -14.226  0.00  0.00    -0.320 N 
ATOM      7  C   UNL     1      34.303 -23.103 -16.326  0.00  0.00    +0.007 C 
ATOM      8  C   UNL     1      33.679 -23.570 -15.159  0.00  0.00    +0.060 C 
ATOM      9  C   UNL     1      35.609 -22.590 -16.236  0.00  0.00    +0.056 C 
ATOM     10  C   UNL     1      36.244 -22.558 -14.999  0.00  0.00    +0.060 C 
ATOM     11  C   UNL     1      34.352 -23.521 -13.928  0.00  0.00    +0.109 C 
ATOM     12  C   UNL     1      35.655 -23.011 -13.817  0.00  0.00    +0.029 C 
ATOM     13  C   UNL     1      33.642 -24.030 -12.719  0.00  0.00    +0.208 C 
ATOM     14  C   UNL     1      37.534 -21.742 -16.600  0.00  0.00    +0.182 C 
ATOM     15  C   UNL     1      31.795 -24.541 -14.035  0.00  0.00    +0.248 C 
ATOM     16  H   UNL     1      31.891 -24.134 -16.047  0.00  0.00    +0.156 HD
ATOM     17  H   UNL     1      38.185 -21.840 -14.603  0.00  0.00    +0.148 HD
ATOM     18  H   UNL     1      36.224 -21.988 -18.178  0.00  0.00    +0.148 HD
ATOM     19  H   UNL     1      30.127 -25.020 -15.128  0.00  0.00    +0.146 HD
ATOM     20  H   UNL     1      30.009 -25.371 -13.463  0.00  0.00    +0.146 HD
ENDROOT
BRANCH   7  21
ATOM     21  C   UNL     1      33.592 -23.154 -17.641  0.00  0.00    +0.034 C 
BRANCH  21  22
ATOM     22  C   UNL     1      32.823 -21.864 -17.983  0.00  0.00    +0.031 C 
BRANCH  22  23
ATOM     23  C   UNL     1      33.439 -21.086 -19.120  0.00  0.00    -0.022 C 
ATOM     24  C   UNL     1      32.622 -20.343 -19.958  0.00  0.00    -0.005 C 
ATOM     25  C   UNL     1      34.812 -21.128 -19.307  0.00  0.00    -0.005 C 
ATOM     26  C   UNL     1      34.572 -19.658 -21.209  0.00  0.00    -0.022 C 
ATOM     27  C   UNL     1      33.192 -19.624 -21.008  0.00  0.00    -0.005 C 
ATOM     28  C   UNL     1      35.382 -20.410 -20.357  0.00  0.00    -0.005 C 
ATOM     29  C   UNL     1      35.182 -18.889 -22.331  0.00  0.00    +0.031 C 
ENDBRANCH  22  23
ENDBRANCH  21  22
ENDBRANCH   7  21
TORSDOF 3
ENDMDL
MODEL 8
REMARK VINA RESULT:     -10.3      2.963      6.239
REMARK  Name = 5326929
REMARK  3 active torsions:
REMARK  status: ('A' for Active; 'I' for Inactive)
REMARK    1  A    between atoms: C_7  and  C_21
REMARK    2  A    between atoms: C_21  and  C_22
REMARK    3  A    between atoms: C_22  and  C_23
REMARK                            x       y       z     vdW  Elec       q    Type
REMARK                         _______ _______ _______ _____ _____    ______ ____
ROOT
ATOM      1  O   UNL     1      37.434 -21.447 -16.529  0.00  0.00    -0.209 OA
ATOM      2  N   UNL     1      33.973 -23.442 -16.249  0.00  0.00    -0.275 N 
ATOM      3  N   UNL     1      37.109 -23.564 -11.731  0.00  0.00    -0.315 N 
ATOM      4  N   UNL     1      35.181 -24.661 -11.607  0.00  0.00    -0.316 N 
ATOM      5  N   UNL     1      35.480 -22.109 -17.521  0.00  0.00    -0.302 NA
ATOM      6  N   UNL     1      33.443 -22.859 -18.403  0.00  0.00    -0.320 N 
ATOM      7  C   UNL     1      34.437 -24.119 -13.953  0.00  0.00    +0.007 C 
ATOM      8  C   UNL     1      34.807 -23.443 -15.127  0.00  0.00    +0.060 C 
ATOM      9  C   UNL     1      35.311 -24.088 -12.852  0.00  0.00    +0.056 C 
ATOM     10  C   UNL     1      36.511 -23.394 -12.954  0.00  0.00    +0.060 C 
ATOM     11  C   UNL     1      36.027 -22.753 -15.192  0.00  0.00    +0.109 C 
ATOM     12  C   UNL     1      36.912 -22.712 -14.104  0.00  0.00    +0.029 C 
ATOM     13  C   UNL     1      36.370 -22.053 -16.464  0.00  0.00    +0.208 C 
ATOM     14  C   UNL     1      36.275 -24.327 -10.962  0.00  0.00    +0.182 C 
ATOM     15  C   UNL     1      34.361 -22.772 -17.387  0.00  0.00    +0.248 C 
ATOM     16  H   UNL     1      33.113 -23.920 -16.226  0.00  0.00    +0.156 HD
ATOM     17  H   UNL     1      37.982 -23.201 -11.457  0.00  0.00    +0.148 HD
ATOM     18  H   UNL     1      34.431 -25.203 -11.273  0.00  0.00    +0.148 HD
ATOM     19  H   UNL     1      32.609 -23.366 -18.271  0.00  0.00    +0.146 HD
ATOM     20  H   UNL     1      33.618 -22.416 -19.264  0.00  0.00    +0.146 HD
ENDROOT
BRANCH   7  21
ATOM     21  C   UNL     1      33.137 -24.855 -13.876  0.00  0.00    +0.034 C 
BRANCH  21  22
ATOM     22  C   UNL     1      31.992 -24.035 -13.254  0.00  0.00    +0.031 C 
BRANCH  22  23
ATOM     23  C   UNL     1      30.840 -23.807 -14.201  0.00  0.00    -0.022 C 
ATOM     24  C   UNL     1      29.721 -24.622 -14.120  0.00  0.00    -0.005 C 
ATOM     25  C   UNL     1      30.918 -22.786 -15.134  0.00  0.00    -0.005 C 
ATOM     26  C   UNL     1      28.722 -23.387 -15.941  0.00  0.00    -0.022 C 
ATOM     27  C   UNL     1      28.656 -24.410 -14.995  0.00  0.00    -0.005 C 
ATOM     28  C   UNL     1      29.854 -22.574 -16.010  0.00  0.00    -0.005 C 
ATOM     29  C   UNL     1      27.583 -23.161 -16.875  0.00  0.00    +0.031 C 
ENDBRANCH  22  23
ENDBRANCH  21  22
ENDBRANCH   7  21
TORSDOF 3
ENDMDL
MODEL 9
REMARK VINA RESULT:     -10.1      1.452      4.068
REMARK  Name = 5326929
REMARK  3 active torsions:
REMARK  status: ('A' for Active; 'I' for Inactive)
REMARK    1  A    between atoms: C_7  and  C_21
REMARK    2  A    between atoms: C_21  and  C_22
REMARK    3  A    between atoms: C_22  and  C_23
REMARK                            x       y       z     vdW  Elec       q    Type
REMARK                         _______ _______ _______ _____ _____    ______ ____
ROOT
ATOM      1  O   UNL     1      31.805 -24.903 -13.699  0.00  0.00    -0.209 OA
ATOM      2  N   UNL     1      33.275 -22.583 -16.613  0.00  0.00    -0.275 N 
ATOM      3  N   UNL     1      37.041 -24.802 -13.273  0.00  0.00    -0.315 N 
ATOM      4  N   UNL     1      37.826 -23.510 -14.902  0.00  0.00    -0.316 N 
ATOM      5  N   UNL     1      31.407 -23.564 -15.513  0.00  0.00    -0.302 NA
ATOM      6  N   UNL     1      31.154 -22.174 -17.382  0.00  0.00    -0.320 N 
ATOM      7  C   UNL     1      35.572 -22.950 -15.880  0.00  0.00    +0.007 C 
ATOM      8  C   UNL     1      34.193 -23.170 -15.737  0.00  0.00    +0.060 C 
ATOM      9  C   UNL     1      36.453 -23.565 -14.973  0.00  0.00    +0.056 C 
ATOM     10  C   UNL     1      35.937 -24.370 -13.963  0.00  0.00    +0.060 C 
ATOM     11  C   UNL     1      33.710 -23.989 -14.704  0.00  0.00    +0.109 C 
ATOM     12  C   UNL     1      34.573 -24.611 -13.789  0.00  0.00    +0.029 C 
ATOM     13  C   UNL     1      32.236 -24.188 -14.598  0.00  0.00    +0.208 C 
ATOM     14  C   UNL     1      38.145 -24.260 -13.873  0.00  0.00    +0.182 C 
ATOM     15  C   UNL     1      31.929 -22.815 -16.449  0.00  0.00    +0.248 C 
ATOM     16  H   UNL     1      33.591 -22.004 -17.344  0.00  0.00    +0.156 HD
ATOM     17  H   UNL     1      37.040 -25.394 -12.488  0.00  0.00    +0.148 HD
ATOM     18  H   UNL     1      38.437 -23.014 -15.493  0.00  0.00    +0.148 HD
ATOM     19  H   UNL     1      31.577 -21.616 -18.075  0.00  0.00    +0.146 HD
ATOM     20  H   UNL     1      30.175 -22.271 -17.358  0.00  0.00    +0.146 HD
ENDROOT
BRANCH   7  21
ATOM     21  C   UNL     1      36.093 -22.079 -16.979  0.00  0.00    +0.034 C 
BRANCH  21  22
ATOM     22  C   UNL     1      35.378 -22.283 -18.328  0.00  0.00    +0.031 C 
BRANCH  22  23
ATOM     23  C   UNL     1      35.474 -21.085 -19.240  0.00  0.00    -0.022 C 
ATOM     24  C   UNL     1      36.713 -20.511 -19.482  0.00  0.00    -0.005 C 
ATOM     25  C   UNL     1      34.322 -20.580 -19.821  0.00  0.00    -0.005 C 
ATOM     26  C   UNL     1      35.648 -18.883 -20.916  0.00  0.00    -0.022 C 
ATOM     27  C   UNL     1      36.800 -19.403 -20.325  0.00  0.00    -0.005 C 
ATOM     28  C   UNL     1      34.409 -19.472 -20.665  0.00  0.00    -0.005 C 
ATOM     29  C   UNL     1      35.742 -17.701 -21.819  0.00  0.00    +0.031 C 
ENDBRANCH  22  23
ENDBRANCH  21  22
ENDBRANCH   7  21
TORSDOF 3
ENDMDL
