MODEL 1
REMARK VINA RESULT:     -12.1      0.000      0.000
REMARK  Name = 447359
REMARK  5 active torsions:
REMARK  status: ('A' for Active; 'I' for Inactive)
REMARK    1  A    between atoms: N_2  and  S_8
REMARK    2  A    between atoms: N_3  and  C_21
REMARK    3  A    between atoms: S_8  and  C_13
REMARK    4  A    between atoms: C_21  and  C_22
REMARK    5  A    between atoms: C_25  and  C_30
REMARK                            x       y       z     vdW  Elec       q    Type
REMARK                         _______ _______ _______ _____ _____    ______ ____
ROOT
ATOM      1  O   UNL     1      37.408 -20.312 -19.782  0.00  0.00    -0.273 OA
ATOM      2  N   UNL     1      34.152 -21.487 -18.724  0.00  0.00    -0.144 NA
ATOM      3  N   UNL     1      35.305 -19.501 -20.325  0.00  0.00    -0.273 N 
ATOM      4  C   UNL     1      33.354 -20.942 -19.844  0.00  0.00    +0.118 C 
ATOM      5  C   UNL     1      33.862 -19.541 -20.108  0.00  0.00    +0.113 C 
ATOM      6  C   UNL     1      35.572 -21.636 -19.095  0.00  0.00    +0.181 C 
ATOM      7  C   UNL     1      36.178 -20.415 -19.740  0.00  0.00    +0.244 C 
ENDROOT
BRANCH   2   8
ATOM      8  S   UNL     1      33.461 -22.813 -17.891  0.00  0.00    +0.069 S 
ATOM      9  O   UNL     1      33.775 -24.027 -18.616  0.00  0.00    -0.152 OA
ATOM     10  O   UNL     1      32.106 -22.479 -17.506  0.00  0.00    -0.152 OA
BRANCH   8  13
ATOM     11 CL   UNL     1      35.833 -24.089 -10.179  0.00  0.00    -0.082 Cl
ATOM     12  S   UNL     1      33.348 -23.520 -15.062  0.00  0.00    -0.067 S 
ATOM     13  C   UNL     1      34.324 -22.977 -16.331  0.00  0.00    +0.152 C 
ATOM     14  C   UNL     1      35.610 -22.748 -15.979  0.00  0.00    +0.027 C 
ATOM     15  C   UNL     1      35.842 -23.026 -14.590  0.00  0.00    +0.008 C 
ATOM     16  C   UNL     1      34.672 -23.462 -13.959  0.00  0.00    +0.032 C 
ATOM     17  C   UNL     1      37.022 -22.924 -13.815  0.00  0.00    +0.001 C 
ATOM     18  C   UNL     1      34.654 -23.795 -12.591  0.00  0.00    +0.018 C 
ATOM     19  C   UNL     1      37.008 -23.255 -12.458  0.00  0.00    +0.011 C 
ATOM     20  C   UNL     1      35.835 -23.685 -11.854  0.00  0.00    +0.058 C 
ENDBRANCH   8  13
ENDBRANCH   2   8
BRANCH   3  21
ATOM     21  C   UNL     1      35.823 -18.315 -20.993  0.00  0.00    +0.120 C 
BRANCH  21  22
ATOM     22  C   UNL     1      35.159 -18.160 -22.327  0.00  0.00    -0.002 C 
ATOM     23  C   UNL     1      34.903 -16.887 -22.827  0.00  0.00    +0.000 C 
ATOM     24  C   UNL     1      34.801 -19.290 -23.056  0.00  0.00    -0.003 C 
ATOM     25  C   UNL     1      34.284 -16.742 -24.068  0.00  0.00    +0.030 C 
ATOM     26  C   UNL     1      34.181 -19.144 -24.297  0.00  0.00    -0.000 C 
ATOM     27  C   UNL     1      33.922 -17.871 -24.804  0.00  0.00    +0.003 C 
BRANCH  25  30
ATOM     28  N   UNL     1      33.957 -14.299 -23.762  0.00  0.00    -0.343 N 
ATOM     29  N   UNL     1      33.813 -15.250 -25.893  0.00  0.00    -0.285 NA
ATOM     30  C   UNL     1      34.014 -15.414 -24.597  0.00  0.00    +0.117 C 
ATOM     31  H   UNL     1      33.773 -13.410 -24.141  0.00  0.00    +0.144 HD
ATOM     32  H   UNL     1      34.101 -14.401 -22.794  0.00  0.00    +0.144 HD
ATOM     33  H   UNL     1      33.630 -14.352 -26.252  0.00  0.00    +0.188 HD
ENDBRANCH  25  30
ENDBRANCH  21  22
ENDBRANCH   3  21
TORSDOF 5
ENDMDL
MODEL 2
REMARK VINA RESULT:     -12.0      4.494     10.196
REMARK  Name = 447359
REMARK  5 active torsions:
REMARK  status: ('A' for Active; 'I' for Inactive)
REMARK    1  A    between atoms: N_2  and  S_8
REMARK    2  A    between atoms: N_3  and  C_21
REMARK    3  A    between atoms: S_8  and  C_13
REMARK    4  A    between atoms: C_21  and  C_22
REMARK    5  A    between atoms: C_25  and  C_30
REMARK                            x       y       z     vdW  Elec       q    Type
REMARK                         _______ _______ _______ _____ _____    ______ ____
ROOT
ATOM      1  O   UNL     1      33.885 -23.903 -13.573  0.00  0.00    -0.273 OA
ATOM      2  N   UNL     1      34.414 -22.522 -16.877  0.00  0.00    -0.144 NA
ATOM      3  N   UNL     1      35.754 -22.840 -14.439  0.00  0.00    -0.273 N 
ATOM      4  C   UNL     1      35.892 -22.568 -16.893  0.00  0.00    +0.118 C 
ATOM      5  C   UNL     1      36.365 -22.094 -15.535  0.00  0.00    +0.113 C 
ATOM      6  C   UNL     1      33.855 -23.475 -15.899  0.00  0.00    +0.181 C 
ATOM      7  C   UNL     1      34.484 -23.404 -14.531  0.00  0.00    +0.244 C 
ENDROOT
BRANCH   2   8
ATOM      8  S   UNL     1      33.651 -22.499 -18.409  0.00  0.00    +0.069 S 
ATOM      9  O   UNL     1      32.282 -22.058 -18.235  0.00  0.00    -0.152 OA
ATOM     10  O   UNL     1      33.980 -23.715 -19.122  0.00  0.00    -0.152 OA
BRANCH   8  13
ATOM     11 CL   UNL     1      35.544 -16.237 -23.300  0.00  0.00    -0.082 Cl
ATOM     12  S   UNL     1      33.337 -20.265 -20.259  0.00  0.00    -0.067 S 
ATOM     13  C   UNL     1      34.427 -21.209 -19.377  0.00  0.00    +0.152 C 
ATOM     14  C   UNL     1      35.722 -20.849 -19.534  0.00  0.00    +0.027 C 
ATOM     15  C   UNL     1      35.862 -19.733 -20.425  0.00  0.00    +0.008 C 
ATOM     16  C   UNL     1      34.618 -19.307 -20.903  0.00  0.00    +0.032 C 
ATOM     17  C   UNL     1      37.018 -19.044 -20.863  0.00  0.00    +0.001 C 
ATOM     18  C   UNL     1      34.504 -18.223 -21.796  0.00  0.00    +0.018 C 
ATOM     19  C   UNL     1      36.909 -17.968 -21.748  0.00  0.00    +0.011 C 
ATOM     20  C   UNL     1      35.663 -17.565 -22.209  0.00  0.00    +0.058 C 
ENDBRANCH   8  13
ENDBRANCH   2   8
BRANCH   3  21
ATOM     21  C   UNL     1      36.434 -22.767 -13.153  0.00  0.00    +0.120 C 
BRANCH  21  22
ATOM     22  C   UNL     1      37.126 -24.067 -12.878  0.00  0.00    -0.002 C 
ATOM     23  C   UNL     1      38.257 -24.414 -13.609  0.00  0.00    +0.000 C 
ATOM     24  C   UNL     1      36.632 -24.918 -11.894  0.00  0.00    -0.003 C 
ATOM     25  C   UNL     1      38.902 -25.625 -13.353  0.00  0.00    +0.030 C 
ATOM     26  C   UNL     1      37.276 -26.128 -11.639  0.00  0.00    -0.000 C 
ATOM     27  C   UNL     1      38.411 -26.483 -12.368  0.00  0.00    +0.003 C 
BRANCH  25  30
ATOM     28  N   UNL     1      41.099 -26.766 -13.548  0.00  0.00    -0.343 N 
ATOM     29  N   UNL     1      40.214 -25.594 -15.367  0.00  0.00    -0.285 NA
ATOM     30  C   UNL     1      40.086 -25.995 -14.114  0.00  0.00    +0.117 C 
ATOM     31  H   UNL     1      41.892 -27.004 -14.081  0.00  0.00    +0.144 HD
ATOM     32  H   UNL     1      41.023 -27.071 -12.616  0.00  0.00    +0.144 HD
ATOM     33  H   UNL     1      41.014 -25.843 -15.883  0.00  0.00    +0.188 HD
ENDBRANCH  25  30
ENDBRANCH  21  22
ENDBRANCH   3  21
TORSDOF 5
ENDMDL
MODEL 3
REMARK VINA RESULT:     -11.4      5.781     10.689
REMARK  Name = 447359
REMARK  5 active torsions:
REMARK  status: ('A' for Active; 'I' for Inactive)
REMARK    1  A    between atoms: N_2  and  S_8
REMARK    2  A    between atoms: N_3  and  C_21
REMARK    3  A    between atoms: S_8  and  C_13
REMARK    4  A    between atoms: C_21  and  C_22
REMARK    5  A    between atoms: C_25  and  C_30
REMARK                            x       y       z     vdW  Elec       q    Type
REMARK                         _______ _______ _______ _____ _____    ______ ____
ROOT
ATOM      1  O   UNL     1      35.729 -16.887 -20.145  0.00  0.00    -0.273 OA
ATOM      2  N   UNL     1      34.799 -16.867 -23.644  0.00  0.00    -0.144 NA
ATOM      3  N   UNL     1      35.472 -18.667 -21.608  0.00  0.00    -0.273 N 
ATOM      4  C   UNL     1      34.282 -18.250 -23.735  0.00  0.00    +0.118 C 
ATOM      5  C   UNL     1      35.246 -19.134 -22.972  0.00  0.00    +0.113 C 
ATOM      6  C   UNL     1      34.784 -16.376 -22.252  0.00  0.00    +0.181 C 
ATOM      7  C   UNL     1      35.393 -17.324 -21.251  0.00  0.00    +0.244 C 
ENDROOT
BRANCH   2   8
ATOM      8  S   UNL     1      34.215 -15.772 -24.823  0.00  0.00    +0.069 S 
ATOM      9  O   UNL     1      32.991 -16.309 -25.383  0.00  0.00    -0.152 OA
ATOM     10  O   UNL     1      35.316 -15.341 -25.657  0.00  0.00    -0.152 OA
BRANCH   8  13
ATOM     11 CL   UNL     1      32.582  -8.164 -22.339  0.00  0.00    -0.082 Cl
ATOM     12  S   UNL     1      34.063 -12.859 -24.810  0.00  0.00    -0.067 S 
ATOM     13  C   UNL     1      33.711 -14.282 -23.969  0.00  0.00    +0.152 C 
ATOM     14  C   UNL     1      33.101 -14.082 -22.778  0.00  0.00    +0.027 C 
ATOM     15  C   UNL     1      32.896 -12.687 -22.510  0.00  0.00    +0.008 C 
ATOM     16  C   UNL     1      33.382 -11.894 -23.554  0.00  0.00    +0.032 C 
ATOM     17  C   UNL     1      32.303 -12.041 -21.399  0.00  0.00    +0.001 C 
ATOM     18  C   UNL     1      33.292 -10.489 -23.515  0.00  0.00    +0.018 C 
ATOM     19  C   UNL     1      32.212 -10.647 -21.356  0.00  0.00    +0.011 C 
ATOM     20  C   UNL     1      32.702  -9.882 -22.404  0.00  0.00    +0.058 C 
ENDBRANCH   8  13
ENDBRANCH   2   8
BRANCH   3  21
ATOM     21  C   UNL     1      36.021 -19.644 -20.677  0.00  0.00    +0.120 C 
BRANCH  21  22
ATOM     22  C   UNL     1      34.904 -20.327 -19.950  0.00  0.00    -0.002 C 
ATOM     23  C   UNL     1      35.192 -21.201 -18.906  0.00  0.00    +0.000 C 
ATOM     24  C   UNL     1      33.585 -20.086 -20.326  0.00  0.00    -0.003 C 
ATOM     25  C   UNL     1      34.151 -21.839 -18.230  0.00  0.00    +0.030 C 
ATOM     26  C   UNL     1      32.546 -20.725 -19.650  0.00  0.00    -0.000 C 
ATOM     27  C   UNL     1      32.828 -21.601 -18.602  0.00  0.00    +0.003 C 
BRANCH  25  30
ATOM     28  N   UNL     1      33.473 -23.611 -16.629  0.00  0.00    -0.343 N 
ATOM     29  N   UNL     1      35.655 -22.775 -16.606  0.00  0.00    -0.285 NA
ATOM     30  C   UNL     1      34.445 -22.753 -17.137  0.00  0.00    +0.117 C 
ATOM     31  H   UNL     1      33.693 -24.222 -15.889  0.00  0.00    +0.144 HD
ATOM     32  H   UNL     1      32.565 -23.607 -17.009  0.00  0.00    +0.144 HD
ATOM     33  H   UNL     1      35.856 -23.393 -15.867  0.00  0.00    +0.188 HD
ENDBRANCH  25  30
ENDBRANCH  21  22
ENDBRANCH   3  21
TORSDOF 5
ENDMDL
MODEL 4
REMARK VINA RESULT:     -10.9      1.582      2.225
REMARK  Name = 447359
REMARK  5 active torsions:
REMARK  status: ('A' for Active; 'I' for Inactive)
REMARK    1  A    between atoms: N_2  and  S_8
REMARK    2  A    between atoms: N_3  and  C_21
REMARK    3  A    between atoms: S_8  and  C_13
REMARK    4  A    between atoms: C_21  and  C_22
REMARK    5  A    between atoms: C_25  and  C_30
REMARK                            x       y       z     vdW  Elec       q    Type
REMARK                         _______ _______ _______ _____ _____    ______ ____
ROOT
ATOM      1  O   UNL     1      37.640 -19.476 -20.140  0.00  0.00    -0.273 OA
ATOM      2  N   UNL     1      34.291 -20.719 -19.554  0.00  0.00    -0.144 NA
ATOM      3  N   UNL     1      35.640 -18.827 -21.116  0.00  0.00    -0.273 N 
ATOM      4  C   UNL     1      33.686 -20.319 -20.843  0.00  0.00    +0.118 C 
ATOM      5  C   UNL     1      34.184 -18.922 -21.150  0.00  0.00    +0.113 C 
ATOM      6  C   UNL     1      35.759 -20.827 -19.656  0.00  0.00    +0.181 C 
ATOM      7  C   UNL     1      36.427 -19.639 -20.302  0.00  0.00    +0.244 C 
ENDROOT
BRANCH   2   8
ATOM      8  S   UNL     1      33.510 -22.000 -18.729  0.00  0.00    +0.069 S 
ATOM      9  O   UNL     1      33.591 -23.192 -19.548  0.00  0.00    -0.152 OA
ATOM     10  O   UNL     1      32.254 -21.522 -18.191  0.00  0.00    -0.152 OA
BRANCH   8  13
ATOM     11 CL   UNL     1      36.464 -24.430 -11.512  0.00  0.00    -0.082 Cl
ATOM     12  S   UNL     1      33.625 -23.182 -16.064  0.00  0.00    -0.067 S 
ATOM     13  C   UNL     1      34.485 -22.377 -17.276  0.00  0.00    +0.152 C 
ATOM     14  C   UNL     1      35.781 -22.138 -16.968  0.00  0.00    +0.027 C 
ATOM     15  C   UNL     1      36.121 -22.634 -15.664  0.00  0.00    +0.008 C 
ATOM     16  C   UNL     1      35.019 -23.237 -15.050  0.00  0.00    +0.032 C 
ATOM     17  C   UNL     1      37.346 -22.600 -14.956  0.00  0.00    +0.001 C 
ATOM     18  C   UNL     1      35.110 -23.798 -13.761  0.00  0.00    +0.018 C 
ATOM     19  C   UNL     1      37.441 -23.156 -13.678  0.00  0.00    +0.011 C 
ATOM     20  C   UNL     1      36.333 -23.748 -13.088  0.00  0.00    +0.058 C 
ENDBRANCH   8  13
ENDBRANCH   2   8
BRANCH   3  21
ATOM     21  C   UNL     1      36.227 -17.681 -21.796  0.00  0.00    +0.120 C 
BRANCH  21  22
ATOM     22  C   UNL     1      35.430 -16.451 -21.484  0.00  0.00    -0.002 C 
ATOM     23  C   UNL     1      35.016 -15.617 -22.518  0.00  0.00    +0.000 C 
ATOM     24  C   UNL     1      35.112 -16.150 -20.163  0.00  0.00    -0.003 C 
ATOM     25  C   UNL     1      34.275 -14.471 -22.228  0.00  0.00    +0.030 C 
ATOM     26  C   UNL     1      34.372 -15.004 -19.874  0.00  0.00    -0.000 C 
ATOM     27  C   UNL     1      33.953 -14.164 -20.906  0.00  0.00    +0.003 C 
BRANCH  25  30
ATOM     28  N   UNL     1      32.894 -14.012 -24.240  0.00  0.00    -0.343 N 
ATOM     29  N   UNL     1      34.342 -12.378 -23.406  0.00  0.00    -0.285 NA
ATOM     30  C   UNL     1      33.837 -13.595 -23.304  0.00  0.00    +0.117 C 
ATOM     31  H   UNL     1      32.612 -13.403 -24.960  0.00  0.00    +0.144 HD
ATOM     32  H   UNL     1      32.509 -14.916 -24.182  0.00  0.00    +0.144 HD
ATOM     33  H   UNL     1      34.047 -11.783 -24.134  0.00  0.00    +0.188 HD
ENDBRANCH  25  30
ENDBRANCH  21  22
ENDBRANCH   3  21
TORSDOF 5
ENDMDL
MODEL 5
REMARK VINA RESULT:     -10.7      8.020     12.438
REMARK  Name = 447359
REMARK  5 active torsions:
REMARK  status: ('A' for Active; 'I' for Inactive)
REMARK    1  A    between atoms: N_2  and  S_8
REMARK    2  A    between atoms: N_3  and  C_21
REMARK    3  A    between atoms: S_8  and  C_13
REMARK    4  A    between atoms: C_21  and  C_22
REMARK    5  A    between atoms: C_25  and  C_30
REMARK                            x       y       z     vdW  Elec       q    Type
REMARK                         _______ _______ _______ _____ _____    ______ ____
ROOT
ATOM      1  O   UNL     1      35.276 -14.771 -20.484  0.00  0.00    -0.273 OA
ATOM      2  N   UNL     1      32.753 -12.345 -21.406  0.00  0.00    -0.144 NA
ATOM      3  N   UNL     1      34.384 -14.300 -22.571  0.00  0.00    -0.273 N 
ATOM      4  C   UNL     1      32.294 -12.981 -22.661  0.00  0.00    +0.118 C 
ATOM      5  C   UNL     1      33.531 -13.451 -23.397  0.00  0.00    +0.113 C 
ATOM      6  C   UNL     1      33.408 -13.321 -20.514  0.00  0.00    +0.181 C 
ATOM      7  C   UNL     1      34.454 -14.174 -21.186  0.00  0.00    +0.244 C 
ENDROOT
BRANCH   2   8
ATOM      8  S   UNL     1      31.638 -11.286 -20.655  0.00  0.00    +0.069 S 
ATOM      9  O   UNL     1      31.912 -11.262 -19.233  0.00  0.00    -0.152 OA
ATOM     10  O   UNL     1      30.312 -11.545 -21.175  0.00  0.00    -0.152 OA
BRANCH   8  13
ATOM     11 CL   UNL     1      34.057  -4.552 -24.593  0.00  0.00    -0.082 Cl
ATOM     12  S   UNL     1      32.835  -9.575 -22.692  0.00  0.00    -0.067 S 
ATOM     13  C   UNL     1      32.006  -9.629 -21.219  0.00  0.00    +0.152 C 
ATOM     14  C   UNL     1      31.746  -8.411 -20.688  0.00  0.00    +0.027 C 
ATOM     15  C   UNL     1      32.243  -7.349 -21.516  0.00  0.00    +0.008 C 
ATOM     16  C   UNL     1      32.871  -7.851 -22.660  0.00  0.00    +0.032 C 
ATOM     17  C   UNL     1      32.189  -5.946 -21.344  0.00  0.00    +0.001 C 
ATOM     18  C   UNL     1      33.439  -6.995 -23.624  0.00  0.00    +0.018 C 
ATOM     19  C   UNL     1      32.751  -5.093 -22.298  0.00  0.00    +0.011 C 
ATOM     20  C   UNL     1      33.369  -5.615 -23.425  0.00  0.00    +0.058 C 
ENDBRANCH   8  13
ENDBRANCH   2   8
BRANCH   3  21
ATOM     21  C   UNL     1      35.344 -15.134 -23.282  0.00  0.00    +0.120 C 
BRANCH  21  22
ATOM     22  C   UNL     1      34.987 -16.577 -23.098  0.00  0.00    -0.002 C 
ATOM     23  C   UNL     1      35.438 -17.262 -21.974  0.00  0.00    +0.000 C 
ATOM     24  C   UNL     1      34.210 -17.225 -24.054  0.00  0.00    -0.003 C 
ATOM     25  C   UNL     1      35.108 -18.607 -21.803  0.00  0.00    +0.030 C 
ATOM     26  C   UNL     1      33.880 -18.569 -23.883  0.00  0.00    -0.000 C 
ATOM     27  C   UNL     1      34.329 -19.260 -22.758  0.00  0.00    +0.003 C 
BRANCH  25  30
ATOM     28  N   UNL     1      34.828 -20.362 -20.069  0.00  0.00    -0.343 N 
ATOM     29  N   UNL     1      36.729 -19.003 -20.074  0.00  0.00    -0.285 NA
ATOM     30  C   UNL     1      35.575 -19.328 -20.630  0.00  0.00    +0.117 C 
ATOM     31  H   UNL     1      35.163 -20.837 -19.275  0.00  0.00    +0.144 HD
ATOM     32  H   UNL     1      33.964 -20.617 -20.466  0.00  0.00    +0.144 HD
ATOM     33  H   UNL     1      37.048 -19.490 -19.280  0.00  0.00    +0.188 HD
ENDBRANCH  25  30
ENDBRANCH  21  22
ENDBRANCH   3  21
TORSDOF 5
ENDMDL
MODEL 6
REMARK VINA RESULT:     -10.6      5.661      8.735
REMARK  Name = 447359
REMARK  5 active torsions:
REMARK  status: ('A' for Active; 'I' for Inactive)
REMARK    1  A    between atoms: N_2  and  S_8
REMARK    2  A    between atoms: N_3  and  C_21
REMARK    3  A    between atoms: S_8  and  C_13
REMARK    4  A    between atoms: C_21  and  C_22
REMARK    5  A    between atoms: C_25  and  C_30
REMARK                            x       y       z     vdW  Elec       q    Type
REMARK                         _______ _______ _______ _____ _____    ______ ____
ROOT
ATOM      1  O   UNL     1      33.505 -13.386 -20.510  0.00  0.00    -0.273 OA
ATOM      2  N   UNL     1      33.599 -15.068 -23.714  0.00  0.00    -0.144 NA
ATOM      3  N   UNL     1      32.593 -12.734 -22.539  0.00  0.00    -0.273 N 
ATOM      4  C   UNL     1      33.377 -13.890 -24.580  0.00  0.00    +0.118 C 
ATOM      5  C   UNL     1      32.291 -13.060 -23.929  0.00  0.00    +0.113 C 
ATOM      6  C   UNL     1      34.126 -14.675 -22.393  0.00  0.00    +0.181 C 
ATOM      7  C   UNL     1      33.363 -13.560 -21.724  0.00  0.00    +0.244 C 
ENDROOT
BRANCH   2   8
ATOM      8  S   UNL     1      34.373 -16.404 -24.453  0.00  0.00    +0.069 S 
ATOM      9  O   UNL     1      35.573 -15.932 -25.114  0.00  0.00    -0.152 OA
ATOM     10  O   UNL     1      33.383 -17.205 -25.141  0.00  0.00    -0.152 OA
BRANCH   8  13
ATOM     11 CL   UNL     1      35.508 -22.088 -18.699  0.00  0.00    -0.082 Cl
ATOM     12  S   UNL     1      33.868 -18.687 -22.709  0.00  0.00    -0.067 S 
ATOM     13  C   UNL     1      34.962 -17.475 -23.146  0.00  0.00    +0.152 C 
ATOM     14  C   UNL     1      36.118 -17.496 -22.444  0.00  0.00    +0.027 C 
ATOM     15  C   UNL     1      36.139 -18.560 -21.481  0.00  0.00    +0.008 C 
ATOM     16  C   UNL     1      34.954 -19.300 -21.518  0.00  0.00    +0.032 C 
ATOM     17  C   UNL     1      37.137 -18.941 -20.551  0.00  0.00    +0.001 C 
ATOM     18  C   UNL     1      34.744 -20.398 -20.660  0.00  0.00    +0.018 C 
ATOM     19  C   UNL     1      36.932 -20.029 -19.699  0.00  0.00    +0.011 C 
ATOM     20  C   UNL     1      35.747 -20.748 -19.755  0.00  0.00    +0.058 C 
ENDBRANCH   8  13
ENDBRANCH   2   8
BRANCH   3  21
ATOM     21  C   UNL     1      31.854 -11.618 -21.964  0.00  0.00    +0.120 C 
BRANCH  21  22
ATOM     22  C   UNL     1      32.604 -10.344 -22.204  0.00  0.00    -0.002 C 
ATOM     23  C   UNL     1      32.471  -9.286 -21.310  0.00  0.00    +0.000 C 
ATOM     24  C   UNL     1      33.428 -10.225 -23.320  0.00  0.00    -0.003 C 
ATOM     25  C   UNL     1      33.168  -8.098 -21.534  0.00  0.00    +0.030 C 
ATOM     26  C   UNL     1      34.124  -9.038 -23.544  0.00  0.00    -0.000 C 
ATOM     27  C   UNL     1      33.995  -7.974 -22.651  0.00  0.00    +0.003 C 
BRANCH  25  30
ATOM     28  N   UNL     1      32.446  -5.786 -20.990  0.00  0.00    -0.343 N 
ATOM     29  N   UNL     1      33.479  -7.111 -19.365  0.00  0.00    -0.285 NA
ATOM     30  C   UNL     1      33.034  -6.988 -20.603  0.00  0.00    +0.117 C 
ATOM     31  H   UNL     1      32.365  -5.048 -20.343  0.00  0.00    +0.144 HD
ATOM     32  H   UNL     1      32.111  -5.674 -21.908  0.00  0.00    +0.144 HD
ATOM     33  H   UNL     1      33.389  -6.361 -18.733  0.00  0.00    +0.188 HD
ENDBRANCH  25  30
ENDBRANCH  21  22
ENDBRANCH   3  21
TORSDOF 5
ENDMDL
MODEL 7
REMARK VINA RESULT:     -10.4      8.820     13.160
REMARK  Name = 447359
REMARK  5 active torsions:
REMARK  status: ('A' for Active; 'I' for Inactive)
REMARK    1  A    between atoms: N_2  and  S_8
REMARK    2  A    between atoms: N_3  and  C_21
REMARK    3  A    between atoms: S_8  and  C_13
REMARK    4  A    between atoms: C_21  and  C_22
REMARK    5  A    between atoms: C_25  and  C_30
REMARK                            x       y       z     vdW  Elec       q    Type
REMARK                         _______ _______ _______ _____ _____    ______ ____
ROOT
ATOM      1  O   UNL     1      34.594 -11.229 -24.801  0.00  0.00    -0.273 OA
ATOM      2  N   UNL     1      32.284 -11.565 -22.035  0.00  0.00    -0.144 NA
ATOM      3  N   UNL     1      33.647 -13.144 -23.902  0.00  0.00    -0.273 N 
ATOM      4  C   UNL     1      32.582 -12.970 -21.677  0.00  0.00    +0.118 C 
ATOM      5  C   UNL     1      32.692 -13.742 -22.974  0.00  0.00    +0.113 C 
ATOM      6  C   UNL     1      33.399 -10.949 -22.779  0.00  0.00    +0.181 C 
ATOM      7  C   UNL     1      33.912 -11.777 -23.930  0.00  0.00    +0.244 C 
ENDROOT
BRANCH   2   8
ATOM      8  S   UNL     1      31.604 -10.606 -20.790  0.00  0.00    +0.069 S 
ATOM      9  O   UNL     1      32.532 -10.571 -19.677  0.00  0.00    -0.152 OA
ATOM     10  O   UNL     1      30.214 -10.968 -20.618  0.00  0.00    -0.152 OA
BRANCH   8  13
ATOM     11 CL   UNL     1      31.974  -2.526 -21.922  0.00  0.00    -0.082 Cl
ATOM     12  S   UNL     1      32.093  -7.778 -20.267  0.00  0.00    -0.067 S 
ATOM     13  C   UNL     1      31.541  -8.920 -21.385  0.00  0.00    +0.152 C 
ATOM     14  C   UNL     1      31.135  -8.388 -22.561  0.00  0.00    +0.027 C 
ATOM     15  C   UNL     1      31.272  -6.960 -22.578  0.00  0.00    +0.008 C 
ATOM     16  C   UNL     1      31.791  -6.487 -21.369  0.00  0.00    +0.032 C 
ATOM     17  C   UNL     1      30.971  -6.018 -23.591  0.00  0.00    +0.001 C 
ATOM     18  C   UNL     1      32.014  -5.113 -21.151  0.00  0.00    +0.018 C 
ATOM     19  C   UNL     1      31.192  -4.655 -23.379  0.00  0.00    +0.011 C 
ATOM     20  C   UNL     1      31.707  -4.209 -22.170  0.00  0.00    +0.058 C 
ENDBRANCH   8  13
ENDBRANCH   2   8
BRANCH   3  21
ATOM     21  C   UNL     1      34.139 -14.009 -24.966  0.00  0.00    +0.120 C 
BRANCH  21  22
ATOM     22  C   UNL     1      34.202 -15.422 -24.475  0.00  0.00    -0.002 C 
ATOM     23  C   UNL     1      34.965 -15.729 -23.352  0.00  0.00    +0.000 C 
ATOM     24  C   UNL     1      33.499 -16.419 -25.144  0.00  0.00    -0.003 C 
ATOM     25  C   UNL     1      35.025 -17.046 -22.895  0.00  0.00    +0.030 C 
ATOM     26  C   UNL     1      33.560 -17.736 -24.687  0.00  0.00    -0.000 C 
ATOM     27  C   UNL     1      34.323 -18.050 -23.563  0.00  0.00    +0.003 C 
BRANCH  25  30
ATOM     28  N   UNL     1      35.424 -16.982 -20.445  0.00  0.00    -0.343 N 
ATOM     29  N   UNL     1      36.946 -18.053 -21.859  0.00  0.00    -0.285 NA
ATOM     30  C   UNL     1      35.821 -17.374 -21.722  0.00  0.00    +0.117 C 
ATOM     31  H   UNL     1      35.978 -17.215 -19.665  0.00  0.00    +0.144 HD
ATOM     32  H   UNL     1      34.591 -16.473 -20.322  0.00  0.00    +0.144 HD
ATOM     33  H   UNL     1      37.485 -18.276 -21.066  0.00  0.00    +0.188 HD
ENDBRANCH  25  30
ENDBRANCH  21  22
ENDBRANCH   3  21
TORSDOF 5
ENDMDL
MODEL 8
REMARK VINA RESULT:     -10.4      5.786     10.757
REMARK  Name = 447359
REMARK  5 active torsions:
REMARK  status: ('A' for Active; 'I' for Inactive)
REMARK    1  A    between atoms: N_2  and  S_8
REMARK    2  A    between atoms: N_3  and  C_21
REMARK    3  A    between atoms: S_8  and  C_13
REMARK    4  A    between atoms: C_21  and  C_22
REMARK    5  A    between atoms: C_25  and  C_30
REMARK                            x       y       z     vdW  Elec       q    Type
REMARK                         _______ _______ _______ _____ _____    ______ ____
ROOT
ATOM      1  O   UNL     1      35.204 -19.487 -23.510  0.00  0.00    -0.273 OA
ATOM      2  N   UNL     1      34.292 -15.992 -23.754  0.00  0.00    -0.144 NA
ATOM      3  N   UNL     1      35.613 -17.754 -22.025  0.00  0.00    -0.273 N 
ATOM      4  C   UNL     1      35.319 -15.440 -22.844  0.00  0.00    +0.118 C 
ATOM      5  C   UNL     1      35.392 -16.362 -21.646  0.00  0.00    +0.113 C 
ATOM      6  C   UNL     1      34.692 -17.311 -24.283  0.00  0.00    +0.181 C 
ATOM      7  C   UNL     1      35.167 -18.284 -23.233  0.00  0.00    +0.244 C 
ENDROOT
BRANCH   2   8
ATOM      8  S   UNL     1      33.645 -14.899 -24.902  0.00  0.00    +0.069 S 
ATOM      9  O   UNL     1      32.302 -15.325 -25.237  0.00  0.00    -0.152 OA
ATOM     10  O   UNL     1      34.641 -14.632 -25.917  0.00  0.00    -0.152 OA
BRANCH   8  13
ATOM     11 CL   UNL     1      31.805  -8.656 -19.966  0.00  0.00    -0.082 Cl
ATOM     12  S   UNL     1      32.560 -13.414 -22.637  0.00  0.00    -0.067 S 
ATOM     13  C   UNL     1      33.433 -13.323 -24.082  0.00  0.00    +0.152 C 
ATOM     14  C   UNL     1      33.840 -12.072 -24.402  0.00  0.00    +0.027 C 
ATOM     15  C   UNL     1      33.427 -11.108 -23.422  0.00  0.00    +0.008 C 
ATOM     16  C   UNL     1      32.708 -11.714 -22.388  0.00  0.00    +0.032 C 
ATOM     17  C   UNL     1      33.635  -9.710 -23.362  0.00  0.00    +0.001 C 
ATOM     18  C   UNL     1      32.198 -10.966 -21.308  0.00  0.00    +0.018 C 
ATOM     19  C   UNL     1      33.131  -8.964 -22.293  0.00  0.00    +0.011 C 
ATOM     20  C   UNL     1      32.420  -9.588 -21.278  0.00  0.00    +0.058 C 
ENDBRANCH   8  13
ENDBRANCH   2   8
BRANCH   3  21
ATOM     21  C   UNL     1      36.114 -18.635 -20.978  0.00  0.00    +0.120 C 
BRANCH  21  22
ATOM     22  C   UNL     1      34.995 -19.482 -20.457  0.00  0.00    -0.002 C 
ATOM     23  C   UNL     1      35.273 -20.536 -19.591  0.00  0.00    +0.000 C 
ATOM     24  C   UNL     1      33.685 -19.212 -20.842  0.00  0.00    -0.003 C 
ATOM     25  C   UNL     1      34.231 -21.326 -19.106  0.00  0.00    +0.030 C 
ATOM     26  C   UNL     1      32.644 -20.003 -20.358  0.00  0.00    -0.000 C 
ATOM     27  C   UNL     1      32.916 -21.061 -19.489  0.00  0.00    +0.003 C 
BRANCH  25  30
ATOM     28  N   UNL     1      35.496 -22.325 -17.217  0.00  0.00    -0.343 N 
ATOM     29  N   UNL     1      33.834 -23.557 -18.305  0.00  0.00    -0.285 NA
ATOM     30  C   UNL     1      34.514 -22.429 -18.200  0.00  0.00    +0.117 C 
ATOM     31  H   UNL     1      35.672 -23.084 -16.615  0.00  0.00    +0.144 HD
ATOM     32  H   UNL     1      36.015 -21.495 -17.125  0.00  0.00    +0.144 HD
ATOM     33  H   UNL     1      34.024 -24.305 -17.693  0.00  0.00    +0.188 HD
ENDBRANCH  25  30
ENDBRANCH  21  22
ENDBRANCH   3  21
TORSDOF 5
ENDMDL
MODEL 9
REMARK VINA RESULT:     -10.3      5.571      8.594
REMARK  Name = 447359
REMARK  5 active torsions:
REMARK  status: ('A' for Active; 'I' for Inactive)
REMARK    1  A    between atoms: N_2  and  S_8
REMARK    2  A    between atoms: N_3  and  C_21
REMARK    3  A    between atoms: S_8  and  C_13
REMARK    4  A    between atoms: C_21  and  C_22
REMARK    5  A    between atoms: C_25  and  C_30
REMARK                            x       y       z     vdW  Elec       q    Type
REMARK                         _______ _______ _______ _____ _____    ______ ____
ROOT
ATOM      1  O   UNL     1      33.299 -12.106 -25.814  0.00  0.00    -0.273 OA
ATOM      2  N   UNL     1      34.184 -15.273 -24.300  0.00  0.00    -0.144 NA
ATOM      3  N   UNL     1      34.061 -12.548 -23.670  0.00  0.00    -0.273 N 
ATOM      4  C   UNL     1      33.997 -14.891 -22.883  0.00  0.00    +0.118 C 
ATOM      5  C   UNL     1      34.597 -13.512 -22.714  0.00  0.00    +0.113 C 
ATOM      6  C   UNL     1      33.423 -14.388 -25.202  0.00  0.00    +0.181 C 
ATOM      7  C   UNL     1      33.612 -12.916 -24.935  0.00  0.00    +0.244 C 
ENDROOT
BRANCH   2   8
ATOM      8  S   UNL     1      34.079 -16.947 -24.642  0.00  0.00    +0.069 S 
ATOM      9  O   UNL     1      34.967 -17.247 -25.747  0.00  0.00    -0.152 OA
ATOM     10  O   UNL     1      32.688 -17.345 -24.647  0.00  0.00    -0.152 OA
BRANCH   8  13
ATOM     11 CL   UNL     1      35.746 -21.859 -18.333  0.00  0.00    -0.082 Cl
ATOM     12  S   UNL     1      33.773 -19.042 -22.635  0.00  0.00    -0.067 S 
ATOM     13  C   UNL     1      34.774 -17.825 -23.247  0.00  0.00    +0.152 C 
ATOM     14  C   UNL     1      35.951 -17.698 -22.590  0.00  0.00    +0.027 C 
ATOM     15  C   UNL     1      36.068 -18.641 -21.515  0.00  0.00    +0.008 C 
ATOM     16  C   UNL     1      34.931 -19.450 -21.425  0.00  0.00    +0.032 C 
ATOM     17  C   UNL     1      37.116 -18.854 -20.587  0.00  0.00    +0.001 C 
ATOM     18  C   UNL     1      34.817 -20.453 -20.442  0.00  0.00    +0.018 C 
ATOM     19  C   UNL     1      37.007 -19.848 -19.611  0.00  0.00    +0.011 C 
ATOM     20  C   UNL     1      35.867 -20.637 -19.541  0.00  0.00    +0.058 C 
ENDBRANCH   8  13
ENDBRANCH   2   8
BRANCH   3  21
ATOM     21  C   UNL     1      34.236 -11.142 -23.333  0.00  0.00    +0.120 C 
BRANCH  21  22
ATOM     22  C   UNL     1      33.072 -10.673 -22.515  0.00  0.00    -0.002 C 
ATOM     23  C   UNL     1      32.716  -9.328 -22.529  0.00  0.00    +0.000 C 
ATOM     24  C   UNL     1      32.357 -11.585 -21.745  0.00  0.00    -0.003 C 
ATOM     25  C   UNL     1      31.633  -8.891 -21.766  0.00  0.00    +0.030 C 
ATOM     26  C   UNL     1      31.275 -11.148 -20.982  0.00  0.00    -0.000 C 
ATOM     27  C   UNL     1      30.912  -9.801 -20.992  0.00  0.00    +0.003 C 
BRANCH  25  30
ATOM     28  N   UNL     1      31.635  -6.626 -20.748  0.00  0.00    -0.343 N 
ATOM     29  N   UNL     1      30.532  -7.008 -22.773  0.00  0.00    -0.285 NA
ATOM     30  C   UNL     1      31.254  -7.487 -21.776  0.00  0.00    +0.117 C 
ATOM     31  H   UNL     1      31.368  -5.679 -20.775  0.00  0.00    +0.144 HD
ATOM     32  H   UNL     1      32.171  -6.965 -19.996  0.00  0.00    +0.144 HD
ATOM     33  H   UNL     1      30.274  -6.057 -22.782  0.00  0.00    +0.188 HD
ENDBRANCH  25  30
ENDBRANCH  21  22
ENDBRANCH   3  21
TORSDOF 5
ENDMDL
