MODEL 1
REMARK VINA RESULT:     -12.5      0.000      0.000
REMARK  Name = 25184541
REMARK  4 active torsions:
REMARK  status: ('A' for Active; 'I' for Inactive)
REMARK    1  A    between atoms: C_4  and  N_19
REMARK    2  A    between atoms: C_5  and  N_11
REMARK    3  A    between atoms: C_20  and  C_23
REMARK    4  A    between atoms: C_23  and  N_25
REMARK                            x       y       z     vdW  Elec       q    Type
REMARK                         _______ _______ _______ _____ _____    ______ ____
ROOT
ATOM      1  F   UNL     1      32.394 -21.418 -18.803  0.00  0.00    -0.200 F 
ATOM      2  F   UNL     1      32.419 -19.739 -20.938  0.00  0.00    -0.200 F 
ATOM      3  F   UNL     1      37.163 -19.595 -20.767  0.00  0.00    -0.203 F 
ATOM      4  C   UNL     1      34.765 -21.369 -18.689  0.00  0.00    +0.089 C 
ATOM      5  C   UNL     1      34.791 -19.643 -20.880  0.00  0.00    +0.110 C 
ATOM      6  C   UNL     1      33.565 -20.973 -19.280  0.00  0.00    +0.182 C 
ATOM      7  C   UNL     1      35.978 -20.901 -19.195  0.00  0.00    +0.048 C 
ATOM      8  C   UNL     1      33.578 -20.111 -20.376  0.00  0.00    +0.184 C 
ATOM      9  C   UNL     1      35.991 -20.039 -20.290  0.00  0.00    +0.157 C 
ENDROOT
BRANCH   5  11
ATOM     10  O   UNL     1      34.788 -16.181 -25.146  0.00  0.00    -0.291 OA
ATOM     11  N   UNL     1      34.805 -18.762 -21.994  0.00  0.00    -0.282 N 
ATOM     12  C   UNL     1      35.524 -17.486 -21.842  0.00  0.00    +0.104 C 
ATOM     13  C   UNL     1      34.933 -16.414 -22.757  0.00  0.00    +0.091 C 
ATOM     14  C   UNL     1      34.338 -19.118 -23.251  0.00  0.00    +0.068 C 
ATOM     15  C   UNL     1      34.710 -16.920 -24.167  0.00  0.00    +0.176 C 
ATOM     16  C   UNL     1      34.296 -18.332 -24.331  0.00  0.00    +0.054 C 
ENDBRANCH   5  11
BRANCH   4  19
ATOM     17  O   UNL     1      35.331 -23.334 -15.677  0.00  0.00    -0.434 OA
ATOM     18  O   UNL     1      36.771 -21.754 -16.435  0.00  0.00    -0.226 OA
ATOM     19  N   UNL     1      34.755 -22.250 -17.571  0.00  0.00    -0.219 N 
ATOM     20  C   UNL     1      33.980 -23.722 -15.962  0.00  0.00    +0.210 C 
ATOM     21  C   UNL     1      33.750 -23.262 -17.385  0.00  0.00    +0.147 C 
ATOM     22  C   UNL     1      35.716 -22.359 -16.569  0.00  0.00    +0.409 C 
BRANCH  20  23
ATOM     23  C   UNL     1      33.053 -23.049 -14.957  0.00  0.00    +0.134 C 
BRANCH  23  25
ATOM     24  O   UNL     1      29.123 -22.621 -16.691  0.00  0.00    -0.349 OA
ATOM     25  N   UNL     1      31.845 -23.820 -14.811  0.00  0.00    -0.312 N 
ATOM     26  N   UNL     1      30.451 -22.505 -16.301  0.00  0.00    -0.062 NA
ATOM     27  C   UNL     1      30.656 -23.524 -15.461  0.00  0.00    +0.171 C 
ATOM     28  C   UNL     1      29.505 -24.308 -15.284  0.00  0.00    +0.081 C 
ATOM     29  C   UNL     1      28.569 -23.699 -16.078  0.00  0.00    +0.215 C 
ATOM     30  H   UNL     1      31.865 -24.603 -14.213  0.00  0.00    +0.148 HD
ENDBRANCH  23  25
ENDBRANCH  20  23
ENDBRANCH   4  19
TORSDOF 4
ENDMDL
MODEL 2
REMARK VINA RESULT:     -12.2      0.608      1.774
REMARK  Name = 25184541
REMARK  4 active torsions:
REMARK  status: ('A' for Active; 'I' for Inactive)
REMARK    1  A    between atoms: C_4  and  N_19
REMARK    2  A    between atoms: C_5  and  N_11
REMARK    3  A    between atoms: C_20  and  C_23
REMARK    4  A    between atoms: C_23  and  N_25
REMARK                            x       y       z     vdW  Elec       q    Type
REMARK                         _______ _______ _______ _____ _____    ______ ____
ROOT
ATOM      1  F   UNL     1      36.899 -21.448 -18.591  0.00  0.00    -0.200 F 
ATOM      2  F   UNL     1      37.009 -19.757 -20.714  0.00  0.00    -0.200 F 
ATOM      3  F   UNL     1      32.264 -19.740 -20.945  0.00  0.00    -0.203 F 
ATOM      4  C   UNL     1      34.526 -21.462 -18.678  0.00  0.00    +0.089 C 
ATOM      5  C   UNL     1      34.638 -19.726 -20.859  0.00  0.00    +0.110 C 
ATOM      6  C   UNL     1      35.760 -21.033 -19.165  0.00  0.00    +0.182 C 
ATOM      7  C   UNL     1      33.347 -21.022 -19.281  0.00  0.00    +0.048 C 
ATOM      8  C   UNL     1      35.816 -20.165 -20.255  0.00  0.00    +0.184 C 
ATOM      9  C   UNL     1      33.404 -20.155 -20.372  0.00  0.00    +0.157 C 
ENDROOT
BRANCH   5  11
ATOM     10  O   UNL     1      34.806 -16.260 -25.117  0.00  0.00    -0.291 OA
ATOM     11  N   UNL     1      34.695 -18.845 -21.971  0.00  0.00    -0.282 N 
ATOM     12  C   UNL     1      35.479 -17.607 -21.817  0.00  0.00    +0.104 C 
ATOM     13  C   UNL     1      34.942 -16.505 -22.729  0.00  0.00    +0.091 C 
ATOM     14  C   UNL     1      34.209 -19.174 -23.227  0.00  0.00    +0.068 C 
ATOM     15  C   UNL     1      34.692 -16.996 -24.139  0.00  0.00    +0.176 C 
ATOM     16  C   UNL     1      34.206 -18.384 -24.306  0.00  0.00    +0.054 C 
ENDBRANCH   5  11
BRANCH   4  19
ATOM     17  O   UNL     1      34.955 -23.441 -15.652  0.00  0.00    -0.434 OA
ATOM     18  O   UNL     1      36.433 -21.866 -16.343  0.00  0.00    -0.226 OA
ATOM     19  N   UNL     1      34.465 -22.347 -17.564  0.00  0.00    -0.219 N 
ATOM     20  C   UNL     1      33.615 -23.820 -15.994  0.00  0.00    +0.210 C 
ATOM     21  C   UNL     1      33.447 -23.354 -17.425  0.00  0.00    +0.147 C 
ATOM     22  C   UNL     1      35.382 -22.465 -16.524  0.00  0.00    +0.409 C 
BRANCH  20  23
ATOM     23  C   UNL     1      32.651 -23.147 -15.027  0.00  0.00    +0.134 C 
BRANCH  23  25
ATOM     24  O   UNL     1      28.762 -22.503 -16.788  0.00  0.00    -0.349 OA
ATOM     25  N   UNL     1      31.423 -23.897 -14.955  0.00  0.00    -0.312 N 
ATOM     26  N   UNL     1      30.086 -22.447 -16.370  0.00  0.00    -0.062 NA
ATOM     27  C   UNL     1      30.253 -23.527 -15.601  0.00  0.00    +0.171 C 
ATOM     28  C   UNL     1      29.081 -24.295 -15.498  0.00  0.00    +0.081 C 
ATOM     29  C   UNL     1      28.174 -23.609 -16.262  0.00  0.00    +0.215 C 
ATOM     30  H   UNL     1      31.415 -24.721 -14.414  0.00  0.00    +0.148 HD
ENDBRANCH  23  25
ENDBRANCH  20  23
ENDBRANCH   4  19
TORSDOF 4
ENDMDL
MODEL 3
REMARK VINA RESULT:     -11.9      5.712      8.185
REMARK  Name = 25184541
REMARK  4 active torsions:
REMARK  status: ('A' for Active; 'I' for Inactive)
REMARK    1  A    between atoms: C_4  and  N_19
REMARK    2  A    between atoms: C_5  and  N_11
REMARK    3  A    between atoms: C_20  and  C_23
REMARK    4  A    between atoms: C_23  and  N_25
REMARK                            x       y       z     vdW  Elec       q    Type
REMARK                         _______ _______ _______ _____ _____    ______ ____
ROOT
ATOM      1  F   UNL     1      35.273 -23.019 -16.841  0.00  0.00    -0.200 F 
ATOM      2  F   UNL     1      32.588 -22.628 -16.968  0.00  0.00    -0.200 F 
ATOM      3  F   UNL     1      32.070 -24.840 -12.797  0.00  0.00    -0.203 F 
ATOM      4  C   UNL     1      35.050 -24.130 -14.754  0.00  0.00    +0.089 C 
ATOM      5  C   UNL     1      32.293 -23.729 -14.885  0.00  0.00    +0.110 C 
ATOM      6  C   UNL     1      34.492 -23.468 -15.848  0.00  0.00    +0.182 C 
ATOM      7  C   UNL     1      34.228 -24.591 -13.725  0.00  0.00    +0.048 C 
ATOM      8  C   UNL     1      33.113 -23.267 -15.913  0.00  0.00    +0.184 C 
ATOM      9  C   UNL     1      32.850 -24.391 -13.791  0.00  0.00    +0.157 C 
ENDROOT
BRANCH   5  11
ATOM     10  O   UNL     1      26.865 -22.958 -15.235  0.00  0.00    -0.291 OA
ATOM     11  N   UNL     1      30.889 -23.528 -14.953  0.00  0.00    -0.282 N 
ATOM     12  C   UNL     1      30.054 -24.682 -15.333  0.00  0.00    +0.104 C 
ATOM     13  C   UNL     1      28.760 -24.222 -16.003  0.00  0.00    +0.091 C 
ATOM     14  C   UNL     1      30.263 -22.372 -14.511  0.00  0.00    +0.068 C 
ATOM     15  C   UNL     1      28.085 -23.101 -15.242  0.00  0.00    +0.176 C 
ATOM     16  C   UNL     1      28.954 -22.108 -14.571  0.00  0.00    +0.054 C 
ENDBRANCH   5  11
BRANCH   4  19
ATOM     17  O   UNL     1      38.685 -23.982 -14.612  0.00  0.00    -0.434 OA
ATOM     18  O   UNL     1      37.359 -22.150 -14.775  0.00  0.00    -0.226 OA
ATOM     19  N   UNL     1      36.457 -24.335 -14.684  0.00  0.00    -0.219 N 
ATOM     20  C   UNL     1      38.493 -25.372 -14.318  0.00  0.00    +0.210 C 
ATOM     21  C   UNL     1      37.055 -25.643 -14.705  0.00  0.00    +0.147 C 
ATOM     22  C   UNL     1      37.456 -23.366 -14.690  0.00  0.00    +0.409 C 
BRANCH  20  23
ATOM     23  C   UNL     1      38.769 -25.605 -12.838  0.00  0.00    +0.134 C 
BRANCH  23  25
ATOM     24  O   UNL     1      35.438 -25.212 -10.119  0.00  0.00    -0.349 OA
ATOM     25  N   UNL     1      38.279 -24.491 -12.066  0.00  0.00    -0.312 N 
ATOM     26  N   UNL     1      36.410 -25.632 -11.019  0.00  0.00    -0.062 NA
ATOM     27  C   UNL     1      37.173 -24.555 -11.232  0.00  0.00    +0.171 C 
ATOM     28  C   UNL     1      36.736 -23.439 -10.501  0.00  0.00    +0.081 C 
ATOM     29  C   UNL     1      35.643 -23.904  -9.817  0.00  0.00    +0.215 C 
ATOM     30  H   UNL     1      38.758 -23.633 -12.136  0.00  0.00    +0.148 HD
ENDBRANCH  23  25
ENDBRANCH  20  23
ENDBRANCH   4  19
TORSDOF 4
ENDMDL
MODEL 4
REMARK VINA RESULT:     -11.5      2.317      3.221
REMARK  Name = 25184541
REMARK  4 active torsions:
REMARK  status: ('A' for Active; 'I' for Inactive)
REMARK    1  A    between atoms: C_4  and  N_19
REMARK    2  A    between atoms: C_5  and  N_11
REMARK    3  A    between atoms: C_20  and  C_23
REMARK    4  A    between atoms: C_23  and  N_25
REMARK                            x       y       z     vdW  Elec       q    Type
REMARK                         _______ _______ _______ _____ _____    ______ ____
ROOT
ATOM      1  F   UNL     1      32.744 -21.628 -18.581  0.00  0.00    -0.200 F 
ATOM      2  F   UNL     1      32.581 -19.891 -20.662  0.00  0.00    -0.200 F 
ATOM      3  F   UNL     1      37.311 -19.460 -20.672  0.00  0.00    -0.203 F 
ATOM      4  C   UNL     1      35.111 -21.437 -18.559  0.00  0.00    +0.089 C 
ATOM      5  C   UNL     1      34.944 -19.651 -20.695  0.00  0.00    +0.110 C 
ATOM      6  C   UNL     1      33.867 -21.099 -19.089  0.00  0.00    +0.182 C 
ATOM      7  C   UNL     1      36.273 -20.881 -19.096  0.00  0.00    +0.048 C 
ATOM      8  C   UNL     1      33.783 -20.206 -20.158  0.00  0.00    +0.184 C 
ATOM      9  C   UNL     1      36.188 -19.988 -20.164  0.00  0.00    +0.157 C 
ENDROOT
BRANCH   5  11
ATOM     10  O   UNL     1      34.559 -16.074 -24.847  0.00  0.00    -0.291 OA
ATOM     11  N   UNL     1      34.858 -18.740 -21.780  0.00  0.00    -0.282 N 
ATOM     12  C   UNL     1      35.524 -17.434 -21.625  0.00  0.00    +0.104 C 
ATOM     13  C   UNL     1      34.837 -16.367 -22.476  0.00  0.00    +0.091 C 
ATOM     14  C   UNL     1      34.345 -19.082 -23.022  0.00  0.00    +0.068 C 
ATOM     15  C   UNL     1      34.566 -16.843 -23.888  0.00  0.00    +0.176 C 
ATOM     16  C   UNL     1      34.211 -18.268 -24.074  0.00  0.00    +0.054 C 
ENDBRANCH   5  11
BRANCH   4  19
ATOM     17  O   UNL     1      35.982 -23.566 -15.737  0.00  0.00    -0.434 OA
ATOM     18  O   UNL     1      37.448 -22.164 -16.752  0.00  0.00    -0.226 OA
ATOM     19  N   UNL     1      35.201 -22.349 -17.468  0.00  0.00    -0.219 N 
ATOM     20  C   UNL     1      34.562 -23.762 -15.751  0.00  0.00    +0.210 C 
ATOM     21  C   UNL     1      34.122 -23.225 -17.096  0.00  0.00    +0.147 C 
ATOM     22  C   UNL     1      36.315 -22.619 -16.679  0.00  0.00    +0.409 C 
BRANCH  20  23
ATOM     23  C   UNL     1      33.950 -23.009 -14.576  0.00  0.00    +0.134 C 
BRANCH  23  25
ATOM     24  O   UNL     1      34.869 -24.978 -10.845  0.00  0.00    -0.349 OA
ATOM     25  N   UNL     1      34.956 -22.759 -13.576  0.00  0.00    -0.312 N 
ATOM     26  N   UNL     1      34.350 -24.559 -12.064  0.00  0.00    -0.062 NA
ATOM     27  C   UNL     1      35.101 -23.513 -12.420  0.00  0.00    +0.171 C 
ATOM     28  C   UNL     1      36.099 -23.227 -11.474  0.00  0.00    +0.081 C 
ATOM     29  C   UNL     1      35.912 -24.177 -10.505  0.00  0.00    +0.215 C 
ATOM     30  H   UNL     1      35.578 -22.009 -13.721  0.00  0.00    +0.148 HD
ENDBRANCH  23  25
ENDBRANCH  20  23
ENDBRANCH   4  19
TORSDOF 4
ENDMDL
MODEL 5
REMARK VINA RESULT:     -11.4      3.276      9.002
REMARK  Name = 25184541
REMARK  4 active torsions:
REMARK  status: ('A' for Active; 'I' for Inactive)
REMARK    1  A    between atoms: C_4  and  N_19
REMARK    2  A    between atoms: C_5  and  N_11
REMARK    3  A    between atoms: C_20  and  C_23
REMARK    4  A    between atoms: C_23  and  N_25
REMARK                            x       y       z     vdW  Elec       q    Type
REMARK                         _______ _______ _______ _____ _____    ______ ____
ROOT
ATOM      1  F   UNL     1      32.927 -22.565 -17.959  0.00  0.00    -0.200 F 
ATOM      2  F   UNL     1      33.478 -23.952 -15.690  0.00  0.00    -0.200 F 
ATOM      3  F   UNL     1      37.921 -22.273 -15.745  0.00  0.00    -0.203 F 
ATOM      4  C   UNL     1      35.140 -21.707 -18.017  0.00  0.00    +0.089 C 
ATOM      5  C   UNL     1      35.707 -23.132 -15.688  0.00  0.00    +0.110 C 
ATOM      6  C   UNL     1      34.153 -22.491 -17.421  0.00  0.00    +0.182 C 
ATOM      7  C   UNL     1      36.412 -21.635 -17.447  0.00  0.00    +0.048 C 
ATOM      8  C   UNL     1      34.436 -23.203 -16.256  0.00  0.00    +0.184 C 
ATOM      9  C   UNL     1      36.695 -22.348 -16.283  0.00  0.00    +0.157 C 
ENDROOT
BRANCH   5  11
ATOM     10  O   UNL     1      36.893 -25.890 -11.086  0.00  0.00    -0.291 OA
ATOM     11  N   UNL     1      35.997 -23.860 -14.503  0.00  0.00    -0.282 N 
ATOM     12  C   UNL     1      35.619 -23.246 -13.219  0.00  0.00    +0.104 C 
ATOM     13  C   UNL     1      36.526 -23.736 -12.091  0.00  0.00    +0.091 C 
ATOM     14  C   UNL     1      36.445 -25.173 -14.508  0.00  0.00    +0.068 C 
ATOM     15  C   UNL     1      36.711 -25.239 -12.113  0.00  0.00    +0.176 C 
ATOM     16  C   UNL     1      36.762 -25.904 -13.435  0.00  0.00    +0.054 C 
ENDBRANCH   5  11
BRANCH   4  19
ATOM     17  O   UNL     1      33.768 -19.872 -20.846  0.00  0.00    -0.434 OA
ATOM     18  O   UNL     1      32.507 -20.685 -19.146  0.00  0.00    -0.226 OA
ATOM     19  N   UNL     1      34.854 -20.977 -19.206  0.00  0.00    -0.219 N 
ATOM     20  C   UNL     1      35.166 -19.670 -21.090  0.00  0.00    +0.210 C 
ATOM     21  C   UNL     1      35.853 -20.683 -20.199  0.00  0.00    +0.147 C 
ATOM     22  C   UNL     1      33.611 -20.534 -19.650  0.00  0.00    +0.409 C 
BRANCH  20  23
ATOM     23  C   UNL     1      35.522 -18.229 -20.746  0.00  0.00    +0.134 C 
BRANCH  23  25
ATOM     24  O   UNL     1      34.608 -14.032 -21.174  0.00  0.00    -0.349 OA
ATOM     25  N   UNL     1      35.355 -17.392 -21.906  0.00  0.00    -0.312 N 
ATOM     26  N   UNL     1      34.884 -15.320 -20.733  0.00  0.00    -0.062 NA
ATOM     27  C   UNL     1      35.058 -16.038 -21.846  0.00  0.00    +0.171 C 
ATOM     28  C   UNL     1      34.905 -15.265 -23.008  0.00  0.00    +0.081 C 
ATOM     29  C   UNL     1      34.623 -14.012 -22.533  0.00  0.00    +0.215 C 
ATOM     30  H   UNL     1      35.458 -17.805 -22.794  0.00  0.00    +0.148 HD
ENDBRANCH  23  25
ENDBRANCH  20  23
ENDBRANCH   4  19
TORSDOF 4
ENDMDL
MODEL 6
REMARK VINA RESULT:     -11.3      5.464     10.896
REMARK  Name = 25184541
REMARK  4 active torsions:
REMARK  status: ('A' for Active; 'I' for Inactive)
REMARK    1  A    between atoms: C_4  and  N_19
REMARK    2  A    between atoms: C_5  and  N_11
REMARK    3  A    between atoms: C_20  and  C_23
REMARK    4  A    between atoms: C_23  and  N_25
REMARK                            x       y       z     vdW  Elec       q    Type
REMARK                         _______ _______ _______ _____ _____    ______ ____
ROOT
ATOM      1  F   UNL     1      34.374 -13.407 -20.887  0.00  0.00    -0.200 F 
ATOM      2  F   UNL     1      34.954 -15.789 -19.717  0.00  0.00    -0.200 F 
ATOM      3  F   UNL     1      35.027 -17.867 -23.987  0.00  0.00    -0.203 F 
ATOM      4  C   UNL     1      34.403 -14.414 -23.038  0.00  0.00    +0.089 C 
ATOM      5  C   UNL     1      34.997 -16.860 -21.836  0.00  0.00    +0.110 C 
ATOM      6  C   UNL     1      34.532 -14.497 -21.651  0.00  0.00    +0.182 C 
ATOM      7  C   UNL     1      34.572 -15.554 -23.823  0.00  0.00    +0.048 C 
ATOM      8  C   UNL     1      34.830 -15.721 -21.051  0.00  0.00    +0.184 C 
ATOM      9  C   UNL     1      34.868 -16.777 -23.222  0.00  0.00    +0.157 C 
ENDROOT
BRANCH   5  11
ATOM     10  O   UNL     1      36.098 -21.663 -19.406  0.00  0.00    -0.291 OA
ATOM     11  N   UNL     1      35.297 -18.106 -21.225  0.00  0.00    -0.282 N 
ATOM     12  C   UNL     1      34.267 -19.157 -21.284  0.00  0.00    +0.104 C 
ATOM     13  C   UNL     1      34.394 -20.114 -20.100  0.00  0.00    +0.091 C 
ATOM     14  C   UNL     1      36.556 -18.434 -20.744  0.00  0.00    +0.068 C 
ATOM     15  C   UNL     1      35.823 -20.558 -19.870  0.00  0.00    +0.176 C 
ATOM     16  C   UNL     1      36.897 -19.574 -20.135  0.00  0.00    +0.054 C 
ENDBRANCH   5  11
BRANCH   4  19
ATOM     17  O   UNL     1      33.274 -11.598 -25.050  0.00  0.00    -0.434 OA
ATOM     18  O   UNL     1      32.724 -13.754 -25.486  0.00  0.00    -0.226 OA
ATOM     19  N   UNL     1      34.100 -13.166 -23.654  0.00  0.00    -0.219 N 
ATOM     20  C   UNL     1      33.866 -10.884 -23.956  0.00  0.00    +0.210 C 
ATOM     21  C   UNL     1      34.692 -11.925 -23.231  0.00  0.00    +0.147 C 
ATOM     22  C   UNL     1      33.308 -12.946 -24.777  0.00  0.00    +0.409 C 
BRANCH  20  23
ATOM     23  C   UNL     1      32.755 -10.295 -23.095  0.00  0.00    +0.134 C 
BRANCH  23  25
ATOM     24  O   UNL     1      32.691  -8.121 -19.366  0.00  0.00    -0.349 OA
ATOM     25  N   UNL     1      33.059  -8.924 -22.772  0.00  0.00    -0.312 N 
ATOM     26  N   UNL     1      32.619  -9.059 -20.388  0.00  0.00    -0.062 NA
ATOM     27  C   UNL     1      32.979  -8.396 -21.492  0.00  0.00    +0.171 C 
ATOM     28  C   UNL     1      33.286  -7.051 -21.230  0.00  0.00    +0.081 C 
ATOM     29  C   UNL     1      33.090  -6.928 -19.880  0.00  0.00    +0.215 C 
ATOM     30  H   UNL     1      33.338  -8.327 -23.504  0.00  0.00    +0.148 HD
ENDBRANCH  23  25
ENDBRANCH  20  23
ENDBRANCH   4  19
TORSDOF 4
ENDMDL
MODEL 7
REMARK VINA RESULT:     -11.3      8.656     13.735
REMARK  Name = 25184541
REMARK  4 active torsions:
REMARK  status: ('A' for Active; 'I' for Inactive)
REMARK    1  A    between atoms: C_4  and  N_19
REMARK    2  A    between atoms: C_5  and  N_11
REMARK    3  A    between atoms: C_20  and  C_23
REMARK    4  A    between atoms: C_23  and  N_25
REMARK                            x       y       z     vdW  Elec       q    Type
REMARK                         _______ _______ _______ _____ _____    ______ ____
ROOT
ATOM      1  F   UNL     1      31.050 -10.964 -20.245  0.00  0.00    -0.200 F 
ATOM      2  F   UNL     1      31.760 -13.396 -21.225  0.00  0.00    -0.200 F 
ATOM      3  F   UNL     1      34.533 -11.284 -24.452  0.00  0.00    -0.203 F 
ATOM      4  C   UNL     1      32.427  -9.876 -21.845  0.00  0.00    +0.089 C 
ATOM      5  C   UNL     1      33.155 -12.373 -22.852  0.00  0.00    +0.110 C 
ATOM      6  C   UNL     1      31.903 -11.037 -21.277  0.00  0.00    +0.182 C 
ATOM      7  C   UNL     1      33.315  -9.964 -22.917  0.00  0.00    +0.048 C 
ATOM      8  C   UNL     1      32.268 -12.286 -21.780  0.00  0.00    +0.184 C 
ATOM      9  C   UNL     1      33.679 -11.212 -23.420  0.00  0.00    +0.157 C 
ENDROOT
BRANCH   5  11
ATOM     10  O   UNL     1      34.667 -17.263 -24.847  0.00  0.00    -0.291 OA
ATOM     11  N   UNL     1      33.524 -13.644 -23.367  0.00  0.00    -0.282 N 
ATOM     12  C   UNL     1      34.258 -14.553 -22.471  0.00  0.00    +0.104 C 
ATOM     13  C   UNL     1      35.141 -15.512 -23.269  0.00  0.00    +0.091 C 
ATOM     14  C   UNL     1      33.076 -14.129 -24.587  0.00  0.00    +0.068 C 
ATOM     15  C   UNL     1      34.404 -16.135 -24.436  0.00  0.00    +0.176 C 
ATOM     16  C   UNL     1      33.406 -15.300 -25.141  0.00  0.00    +0.054 C 
ENDBRANCH   5  11
BRANCH   4  19
ATOM     17  O   UNL     1      31.777  -6.826 -19.966  0.00  0.00    -0.434 OA
ATOM     18  O   UNL     1      32.854  -8.626 -19.105  0.00  0.00    -0.226 OA
ATOM     19  N   UNL     1      32.058  -8.600 -21.332  0.00  0.00    -0.219 N 
ATOM     20  C   UNL     1      31.379  -6.388 -21.272  0.00  0.00    +0.210 C 
ATOM     21  C   UNL     1      31.253  -7.666 -22.074  0.00  0.00    +0.147 C 
ATOM     22  C   UNL     1      32.301  -8.095 -20.058  0.00  0.00    +0.409 C 
BRANCH  20  23
ATOM     23  C   UNL     1      32.439  -5.440 -21.816  0.00  0.00    +0.134 C 
BRANCH  23  25
ATOM     24  O   UNL     1      34.584  -5.138 -25.551  0.00  0.00    -0.349 OA
ATOM     25  N   UNL     1      32.048  -4.961 -23.118  0.00  0.00    -0.312 N 
ATOM     26  N   UNL     1      34.162  -5.352 -24.245  0.00  0.00    -0.062 NA
ATOM     27  C   UNL     1      32.891  -4.941 -24.219  0.00  0.00    +0.171 C 
ATOM     28  C   UNL     1      32.460  -4.463 -25.468  0.00  0.00    +0.081 C 
ATOM     29  C   UNL     1      33.560  -4.609 -26.271  0.00  0.00    +0.215 C 
ATOM     30  H   UNL     1      31.128  -4.628 -23.231  0.00  0.00    +0.148 HD
ENDBRANCH  23  25
ENDBRANCH  20  23
ENDBRANCH   4  19
TORSDOF 4
ENDMDL
MODEL 8
REMARK VINA RESULT:     -11.2      8.769     13.872
REMARK  Name = 25184541
REMARK  4 active torsions:
REMARK  status: ('A' for Active; 'I' for Inactive)
REMARK    1  A    between atoms: C_4  and  N_19
REMARK    2  A    between atoms: C_5  and  N_11
REMARK    3  A    between atoms: C_20  and  C_23
REMARK    4  A    between atoms: C_23  and  N_25
REMARK                            x       y       z     vdW  Elec       q    Type
REMARK                         _______ _______ _______ _____ _____    ______ ____
ROOT
ATOM      1  F   UNL     1      33.763  -8.822 -23.485  0.00  0.00    -0.200 F 
ATOM      2  F   UNL     1      34.470 -11.253 -24.470  0.00  0.00    -0.200 F 
ATOM      3  F   UNL     1      31.783 -13.369 -21.174  0.00  0.00    -0.203 F 
ATOM      4  C   UNL     1      32.410  -9.848 -21.824  0.00  0.00    +0.089 C 
ATOM      5  C   UNL     1      33.137 -12.344 -22.835  0.00  0.00    +0.110 C 
ATOM      6  C   UNL     1      33.275  -9.934 -22.914  0.00  0.00    +0.182 C 
ATOM      7  C   UNL     1      31.907 -11.010 -21.240  0.00  0.00    +0.048 C 
ATOM      8  C   UNL     1      33.638 -11.182 -23.420  0.00  0.00    +0.184 C 
ATOM      9  C   UNL     1      32.271 -12.258 -21.745  0.00  0.00    +0.157 C 
ENDROOT
BRANCH   5  11
ATOM     10  O   UNL     1      34.661 -17.234 -24.820  0.00  0.00    -0.291 OA
ATOM     11  N   UNL     1      33.509 -13.614 -23.348  0.00  0.00    -0.282 N 
ATOM     12  C   UNL     1      34.249 -14.519 -22.450  0.00  0.00    +0.104 C 
ATOM     13  C   UNL     1      35.133 -15.476 -23.248  0.00  0.00    +0.091 C 
ATOM     14  C   UNL     1      33.060 -14.105 -24.565  0.00  0.00    +0.068 C 
ATOM     15  C   UNL     1      34.395 -16.106 -24.411  0.00  0.00    +0.176 C 
ATOM     16  C   UNL     1      33.392 -15.276 -25.117  0.00  0.00    +0.054 C 
ENDBRANCH   5  11
BRANCH   4  19
ATOM     17  O   UNL     1      31.737  -6.814 -19.928  0.00  0.00    -0.434 OA
ATOM     18  O   UNL     1      32.790  -8.627 -19.064  0.00  0.00    -0.226 OA
ATOM     19  N   UNL     1      32.036  -8.575 -21.306  0.00  0.00    -0.219 N 
ATOM     20  C   UNL     1      31.366  -6.361 -21.236  0.00  0.00    +0.210 C 
ATOM     21  C   UNL     1      31.250  -7.630 -22.054  0.00  0.00    +0.147 C 
ATOM     22  C   UNL     1      32.258  -8.084 -20.022  0.00  0.00    +0.409 C 
BRANCH  20  23
ATOM     23  C   UNL     1      32.440  -5.412 -21.752  0.00  0.00    +0.134 C 
BRANCH  23  25
ATOM     24  O   UNL     1      34.456  -5.245 -25.566  0.00  0.00    -0.349 OA
ATOM     25  N   UNL     1      32.047  -4.871 -23.028  0.00  0.00    -0.312 N 
ATOM     26  N   UNL     1      34.067  -5.443 -24.247  0.00  0.00    -0.062 NA
ATOM     27  C   UNL     1      32.844  -4.911 -24.162  0.00  0.00    +0.171 C 
ATOM     28  C   UNL     1      32.413  -4.369 -25.384  0.00  0.00    +0.081 C 
ATOM     29  C   UNL     1      33.461  -4.605 -26.234  0.00  0.00    +0.215 C 
ATOM     30  H   UNL     1      31.160  -4.448 -23.098  0.00  0.00    +0.148 HD
ENDBRANCH  23  25
ENDBRANCH  20  23
ENDBRANCH   4  19
TORSDOF 4
ENDMDL
MODEL 9
REMARK VINA RESULT:     -11.0      2.611      4.459
REMARK  Name = 25184541
REMARK  4 active torsions:
REMARK  status: ('A' for Active; 'I' for Inactive)
REMARK    1  A    between atoms: C_4  and  N_19
REMARK    2  A    between atoms: C_5  and  N_11
REMARK    3  A    between atoms: C_20  and  C_23
REMARK    4  A    between atoms: C_23  and  N_25
REMARK                            x       y       z     vdW  Elec       q    Type
REMARK                         _______ _______ _______ _____ _____    ______ ____
ROOT
ATOM      1  F   UNL     1      37.036 -21.414 -18.452  0.00  0.00    -0.200 F 
ATOM      2  F   UNL     1      37.101 -19.751 -20.599  0.00  0.00    -0.200 F 
ATOM      3  F   UNL     1      32.358 -19.870 -20.832  0.00  0.00    -0.203 F 
ATOM      4  C   UNL     1      34.664 -21.495 -18.540  0.00  0.00    +0.089 C 
ATOM      5  C   UNL     1      34.731 -19.789 -20.745  0.00  0.00    +0.110 C 
ATOM      6  C   UNL     1      35.887 -21.039 -19.032  0.00  0.00    +0.182 C 
ATOM      7  C   UNL     1      33.475 -21.098 -19.150  0.00  0.00    +0.048 C 
ATOM      8  C   UNL     1      35.920 -20.185 -20.135  0.00  0.00    +0.184 C 
ATOM      9  C   UNL     1      33.508 -20.245 -20.253  0.00  0.00    +0.157 C 
ENDROOT
BRANCH   5  11
ATOM     10  O   UNL     1      34.804 -16.381 -25.054  0.00  0.00    -0.291 OA
ATOM     11  N   UNL     1      34.764 -18.922 -21.869  0.00  0.00    -0.282 N 
ATOM     12  C   UNL     1      35.474 -17.640 -21.719  0.00  0.00    +0.104 C 
ATOM     13  C   UNL     1      34.898 -16.583 -22.659  0.00  0.00    +0.091 C 
ATOM     14  C   UNL     1      34.326 -19.296 -23.131  0.00  0.00    +0.068 C 
ATOM     15  C   UNL     1      34.708 -17.108 -24.067  0.00  0.00    +0.176 C 
ATOM     16  C   UNL     1      34.304 -18.524 -24.222  0.00  0.00    +0.054 C 
ENDBRANCH   5  11
BRANCH   4  19
ATOM     17  O   UNL     1      34.256 -24.148 -16.079  0.00  0.00    -0.434 OA
ATOM     18  O   UNL     1      33.532 -24.300 -18.223  0.00  0.00    -0.226 OA
ATOM     19  N   UNL     1      34.627 -22.366 -17.413  0.00  0.00    -0.219 N 
ATOM     20  C   UNL     1      35.116 -23.270 -15.340  0.00  0.00    +0.210 C 
ATOM     21  C   UNL     1      35.065 -21.964 -16.103  0.00  0.00    +0.147 C 
ATOM     22  C   UNL     1      34.094 -23.651 -17.353  0.00  0.00    +0.409 C 
BRANCH  20  23
ATOM     23  C   UNL     1      36.511 -23.880 -15.286  0.00  0.00    +0.134 C 
BRANCH  23  25
ATOM     24  O   UNL     1      38.141 -22.609 -11.496  0.00  0.00    -0.349 OA
ATOM     25  N   UNL     1      36.696 -24.570 -14.035  0.00  0.00    -0.312 N 
ATOM     26  N   UNL     1      37.681 -22.726 -12.801  0.00  0.00    -0.062 NA
ATOM     27  C   UNL     1      37.248 -23.986 -12.904  0.00  0.00    +0.171 C 
ATOM     28  C   UNL     1      37.408 -24.704 -11.708  0.00  0.00    +0.081 C 
ATOM     29  C   UNL     1      37.972 -23.794 -10.854  0.00  0.00    +0.215 C 
ATOM     30  H   UNL     1      36.416 -25.513 -13.980  0.00  0.00    +0.148 HD
ENDBRANCH  23  25
ENDBRANCH  20  23
ENDBRANCH   4  19
TORSDOF 4
ENDMDL
