MODEL 1
REMARK VINA RESULT:     -11.9      0.000      0.000
REMARK  Name = 11574606
REMARK  6 active torsions:
REMARK  status: ('A' for Active; 'I' for Inactive)
REMARK    1  A    between atoms: C_5  and  O_24
REMARK    2  A    between atoms: C_7  and  N_10
REMARK    3  A    between atoms: N_10  and  C_12
REMARK    4  A    between atoms: C_15  and  S_18
REMARK    5  A    between atoms: S_18  and  N_21
REMARK    6  A    between atoms: O_24  and  C_25
REMARK                            x       y       z     vdW  Elec       q    Type
REMARK                         _______ _______ _______ _____ _____    ______ ____
ROOT
ATOM      1  N   UNL     1      32.979 -23.559 -13.880  0.00  0.00    -0.299 NA
ATOM      2  N   UNL     1      32.074 -23.050 -16.049  0.00  0.00    -0.106 N 
ATOM      3  N   UNL     1      30.869 -22.729 -16.591  0.00  0.00    -0.139 NA
ATOM      4  N   UNL     1      30.658 -23.025 -14.343  0.00  0.00    -0.145 NA
ATOM      5  C   UNL     1      34.111 -23.692 -14.494  0.00  0.00    +0.291 C 
ATOM      6  C   UNL     1      34.381 -23.529 -15.939  0.00  0.00    +0.105 C 
ATOM      7  C   UNL     1      33.314 -23.202 -16.687  0.00  0.00    +0.142 C 
ATOM      8  C   UNL     1      31.918 -23.227 -14.669  0.00  0.00    +0.178 C 
ATOM      9  C   UNL     1      30.070 -22.728 -15.529  0.00  0.00    +0.230 C 
ENDROOT
BRANCH   7  10
ATOM     10  N   UNL     1      33.357 -23.007 -18.039  0.00  0.00    -0.299 N 
ATOM     11  H   UNL     1      32.868 -23.665 -18.583  0.00  0.00    +0.153 HD
BRANCH  10  12
ATOM     12  C   UNL     1      34.009 -21.993 -18.749  0.00  0.00    +0.049 C 
ATOM     13  C   UNL     1      35.407 -21.924 -18.766  0.00  0.00    +0.016 C 
ATOM     14  C   UNL     1      33.269 -21.033 -19.453  0.00  0.00    +0.016 C 
ATOM     15  C   UNL     1      35.312 -19.961 -20.171  0.00  0.00    +0.122 C 
ATOM     16  C   UNL     1      36.057 -20.913 -19.474  0.00  0.00    +0.021 C 
ATOM     17  C   UNL     1      33.919 -20.022 -20.160  0.00  0.00    +0.021 C 
BRANCH  15  18
ATOM     18  S   UNL     1      36.124 -18.695 -21.057  0.00  0.00    +0.057 S 
ATOM     19  O   UNL     1      37.546 -18.753 -20.743  0.00  0.00    -0.153 OA
ATOM     20  O   UNL     1      35.688 -18.747 -22.445  0.00  0.00    -0.153 OA
BRANCH  18  21
ATOM     21  N   UNL     1      35.454 -17.304 -20.324  0.00  0.00    -0.203 NA
ATOM     22  H   UNL     1      34.449 -17.278 -20.499  0.00  0.00    +0.144 HD
ATOM     23  H   UNL     1      35.890 -16.470 -20.717  0.00  0.00    +0.144 HD
ENDBRANCH  18  21
ENDBRANCH  15  18
ENDBRANCH  10  12
ENDBRANCH   7  10
BRANCH   5  24
ATOM     24  O   UNL     1      35.225 -24.020 -13.797  0.00  0.00    -0.455 OA
BRANCH  24  25
ATOM     25  C   UNL     1      36.282 -24.438 -14.658  0.00  0.00    +0.169 C 
ATOM     26  C   UNL     1      37.568 -23.691 -14.300  0.00  0.00    +0.044 C 
ATOM     27  C   UNL     1      36.454 -25.951 -14.525  0.00  0.00    +0.044 C 
ATOM     28  C   UNL     1      38.104 -24.094 -12.926  0.00  0.00    +0.004 C 
ATOM     29  C   UNL     1      36.995 -26.351 -13.152  0.00  0.00    +0.004 C 
ATOM     30  C   UNL     1      38.282 -25.606 -12.814  0.00  0.00    +0.000 C 
ENDBRANCH  24  25
ENDBRANCH   5  24
TORSDOF 6
ENDMDL
MODEL 2
REMARK VINA RESULT:     -10.9      5.176     10.723
REMARK  Name = 11574606
REMARK  6 active torsions:
REMARK  status: ('A' for Active; 'I' for Inactive)
REMARK    1  A    between atoms: C_5  and  O_24
REMARK    2  A    between atoms: C_7  and  N_10
REMARK    3  A    between atoms: N_10  and  C_12
REMARK    4  A    between atoms: C_15  and  S_18
REMARK    5  A    between atoms: S_18  and  N_21
REMARK    6  A    between atoms: O_24  and  C_25
REMARK                            x       y       z     vdW  Elec       q    Type
REMARK                         _______ _______ _______ _____ _____    ______ ____
ROOT
ATOM      1  N   UNL     1      33.996 -15.915 -24.164  0.00  0.00    -0.299 NA
ATOM      2  N   UNL     1      34.830 -17.962 -23.216  0.00  0.00    -0.106 N 
ATOM      3  N   UNL     1      34.830 -19.287 -23.516  0.00  0.00    -0.139 NA
ATOM      4  N   UNL     1      33.722 -18.124 -25.130  0.00  0.00    -0.145 NA
ATOM      5  C   UNL     1      34.527 -15.338 -23.134  0.00  0.00    +0.291 C 
ATOM      6  C   UNL     1      35.268 -15.974 -22.022  0.00  0.00    +0.105 C 
ATOM      7  C   UNL     1      35.395 -17.309 -22.110  0.00  0.00    +0.142 C 
ATOM      8  C   UNL     1      34.145 -17.269 -24.221  0.00  0.00    +0.178 C 
ATOM      9  C   UNL     1      34.159 -19.321 -24.663  0.00  0.00    +0.230 C 
ENDROOT
BRANCH   7  10
ATOM     10  N   UNL     1      36.044 -18.078 -21.186  0.00  0.00    -0.299 N 
ATOM     11  H   UNL     1      36.972 -17.817 -20.987  0.00  0.00    +0.153 HD
BRANCH  10  12
ATOM     12  C   UNL     1      35.560 -19.189 -20.487  0.00  0.00    +0.049 C 
ATOM     13  C   UNL     1      36.445 -20.072 -19.857  0.00  0.00    +0.016 C 
ATOM     14  C   UNL     1      34.182 -19.431 -20.408  0.00  0.00    +0.016 C 
ATOM     15  C   UNL     1      34.588 -21.413 -19.087  0.00  0.00    +0.122 C 
ATOM     16  C   UNL     1      35.962 -21.180 -19.160  0.00  0.00    +0.021 C 
ATOM     17  C   UNL     1      33.699 -20.538 -19.712  0.00  0.00    +0.021 C 
BRANCH  15  18
ATOM     18  S   UNL     1      33.983 -22.799 -18.216  0.00  0.00    +0.057 S 
ATOM     19  O   UNL     1      33.919 -23.927 -19.136  0.00  0.00    -0.153 OA
ATOM     20  O   UNL     1      34.725 -22.924 -16.970  0.00  0.00    -0.153 OA
BRANCH  18  21
ATOM     21  N   UNL     1      32.392 -22.289 -17.859  0.00  0.00    -0.203 NA
ATOM     22  H   UNL     1      32.387 -21.788 -16.970  0.00  0.00    +0.144 HD
ATOM     23  H   UNL     1      31.780 -23.103 -17.792  0.00  0.00    +0.144 HD
ENDBRANCH  18  21
ENDBRANCH  15  18
ENDBRANCH  10  12
ENDBRANCH   7  10
BRANCH   5  24
ATOM     24  O   UNL     1      34.433 -13.995 -22.986  0.00  0.00    -0.455 OA
BRANCH  24  25
ATOM     25  C   UNL     1      33.246 -13.480 -23.587  0.00  0.00    +0.169 C 
ATOM     26  C   UNL     1      32.250 -13.075 -22.499  0.00  0.00    +0.044 C 
ATOM     27  C   UNL     1      33.621 -12.296 -24.478  0.00  0.00    +0.044 C 
ATOM     28  C   UNL     1      32.740 -11.873 -21.690  0.00  0.00    +0.004 C 
ATOM     29  C   UNL     1      34.105 -11.095 -23.666  0.00  0.00    +0.004 C 
ATOM     30  C   UNL     1      33.097 -10.695 -22.593  0.00  0.00    +0.000 C 
ENDBRANCH  24  25
ENDBRANCH   5  24
TORSDOF 6
ENDMDL
MODEL 3
REMARK VINA RESULT:     -10.3      2.167      4.885
REMARK  Name = 11574606
REMARK  6 active torsions:
REMARK  status: ('A' for Active; 'I' for Inactive)
REMARK    1  A    between atoms: C_5  and  O_24
REMARK    2  A    between atoms: C_7  and  N_10
REMARK    3  A    between atoms: N_10  and  C_12
REMARK    4  A    between atoms: C_15  and  S_18
REMARK    5  A    between atoms: S_18  and  N_21
REMARK    6  A    between atoms: O_24  and  C_25
REMARK                            x       y       z     vdW  Elec       q    Type
REMARK                         _______ _______ _______ _____ _____    ______ ____
ROOT
ATOM      1  N   UNL     1      33.799 -23.095 -14.108  0.00  0.00    -0.299 NA
ATOM      2  N   UNL     1      35.336 -22.853 -15.942  0.00  0.00    -0.106 N 
ATOM      3  N   UNL     1      36.673 -22.696 -16.125  0.00  0.00    -0.139 NA
ATOM      4  N   UNL     1      36.203 -22.836 -13.901  0.00  0.00    -0.145 NA
ATOM      5  C   UNL     1      32.880 -23.162 -15.017  0.00  0.00    +0.291 C 
ATOM      6  C   UNL     1      33.052 -23.085 -16.485  0.00  0.00    +0.105 C 
ATOM      7  C   UNL     1      34.318 -22.928 -16.905  0.00  0.00    +0.142 C 
ATOM      8  C   UNL     1      35.072 -22.936 -14.570  0.00  0.00    +0.178 C 
ATOM      9  C   UNL     1      37.134 -22.695 -14.878  0.00  0.00    +0.230 C 
ENDROOT
BRANCH   7  10
ATOM     10  N   UNL     1      34.683 -22.836 -18.218  0.00  0.00    -0.299 N 
ATOM     11  H   UNL     1      34.846 -23.691 -18.679  0.00  0.00    +0.153 HD
BRANCH  10  12
ATOM     12  C   UNL     1      34.856 -21.684 -18.993  0.00  0.00    +0.049 C 
ATOM     13  C   UNL     1      33.749 -21.019 -19.532  0.00  0.00    +0.016 C 
ATOM     14  C   UNL     1      36.141 -21.180 -19.237  0.00  0.00    +0.016 C 
ATOM     15  C   UNL     1      35.204 -19.376 -20.543  0.00  0.00    +0.122 C 
ATOM     16  C   UNL     1      33.922 -19.869 -20.304  0.00  0.00    +0.021 C 
ATOM     17  C   UNL     1      36.314 -20.033 -20.009  0.00  0.00    +0.021 C 
BRANCH  15  18
ATOM     18  S   UNL     1      35.422 -17.939 -21.510  0.00  0.00    +0.057 S 
ATOM     19  O   UNL     1      34.580 -18.051 -22.694  0.00  0.00    -0.153 OA
ATOM     20  O   UNL     1      35.300 -16.775 -20.644  0.00  0.00    -0.153 OA
BRANCH  18  21
ATOM     21  N   UNL     1      37.056 -18.106 -21.978  0.00  0.00    -0.203 NA
ATOM     22  H   UNL     1      37.105 -18.317 -22.976  0.00  0.00    +0.144 HD
ATOM     23  H   UNL     1      37.486 -18.865 -21.449  0.00  0.00    +0.144 HD
ENDBRANCH  18  21
ENDBRANCH  15  18
ENDBRANCH  10  12
ENDBRANCH   7  10
BRANCH   5  24
ATOM     24  O   UNL     1      31.583 -23.319 -14.659  0.00  0.00    -0.455 OA
BRANCH  24  25
ATOM     25  C   UNL     1      30.795 -23.818 -15.738  0.00  0.00    +0.169 C 
ATOM     26  C   UNL     1      30.071 -25.093 -15.303  0.00  0.00    +0.044 C 
ATOM     27  C   UNL     1      29.811 -22.731 -16.171  0.00  0.00    +0.044 C 
ATOM     28  C   UNL     1      29.008 -24.817 -14.238  0.00  0.00    +0.004 C 
ATOM     29  C   UNL     1      28.747 -22.460 -15.107  0.00  0.00    +0.004 C 
ATOM     30  C   UNL     1      28.027 -23.739 -14.691  0.00  0.00    +0.000 C 
ENDBRANCH  24  25
ENDBRANCH   5  24
TORSDOF 6
ENDMDL
MODEL 4
REMARK VINA RESULT:     -10.2      2.192      4.612
REMARK  Name = 11574606
REMARK  6 active torsions:
REMARK  status: ('A' for Active; 'I' for Inactive)
REMARK    1  A    between atoms: C_5  and  O_24
REMARK    2  A    between atoms: C_7  and  N_10
REMARK    3  A    between atoms: N_10  and  C_12
REMARK    4  A    between atoms: C_15  and  S_18
REMARK    5  A    between atoms: S_18  and  N_21
REMARK    6  A    between atoms: O_24  and  C_25
REMARK                            x       y       z     vdW  Elec       q    Type
REMARK                         _______ _______ _______ _____ _____    ______ ____
ROOT
ATOM      1  N   UNL     1      33.407 -23.188 -14.707  0.00  0.00    -0.299 NA
ATOM      2  N   UNL     1      35.308 -22.778 -16.122  0.00  0.00    -0.106 N 
ATOM      3  N   UNL     1      36.650 -22.610 -15.987  0.00  0.00    -0.139 NA
ATOM      4  N   UNL     1      35.700 -22.961 -13.947  0.00  0.00    -0.145 NA
ATOM      5  C   UNL     1      32.714 -23.163 -15.800  0.00  0.00    +0.291 C 
ATOM      6  C   UNL     1      33.206 -22.946 -17.179  0.00  0.00    +0.105 C 
ATOM      7  C   UNL     1      34.531 -22.755 -17.290  0.00  0.00    +0.142 C 
ATOM      8  C   UNL     1      34.748 -22.991 -14.857  0.00  0.00    +0.178 C 
ATOM      9  C   UNL     1      36.822 -22.731 -14.674  0.00  0.00    +0.230 C 
ENDROOT
BRANCH   7  10
ATOM     10  N   UNL     1      35.177 -22.539 -18.474  0.00  0.00    -0.299 N 
ATOM     11  H   UNL     1      35.685 -23.303 -18.831  0.00  0.00    +0.153 HD
BRANCH  10  12
ATOM     12  C   UNL     1      35.209 -21.372 -19.245  0.00  0.00    +0.049 C 
ATOM     13  C   UNL     1      36.428 -20.744 -19.531  0.00  0.00    +0.016 C 
ATOM     14  C   UNL     1      34.022 -20.817 -19.742  0.00  0.00    +0.016 C 
ATOM     15  C   UNL     1      35.273 -19.035 -20.789  0.00  0.00    +0.122 C 
ATOM     16  C   UNL     1      36.460 -19.581 -20.300  0.00  0.00    +0.021 C 
ATOM     17  C   UNL     1      34.054 -19.654 -20.509  0.00  0.00    +0.021 C 
BRANCH  15  18
ATOM     18  S   UNL     1      35.312 -17.579 -21.750  0.00  0.00    +0.057 S 
ATOM     19  O   UNL     1      34.447 -17.769 -22.907  0.00  0.00    -0.153 OA
ATOM     20  O   UNL     1      35.102 -16.437 -20.871  0.00  0.00    -0.153 OA
BRANCH  18  21
ATOM     21  N   UNL     1      36.939 -17.577 -22.272  0.00  0.00    -0.203 NA
ATOM     22  H   UNL     1      36.979 -17.833 -23.260  0.00  0.00    +0.144 HD
ATOM     23  H   UNL     1      37.473 -18.251 -21.725  0.00  0.00    +0.144 HD
ENDBRANCH  18  21
ENDBRANCH  15  18
ENDBRANCH  10  12
ENDBRANCH   7  10
BRANCH   5  24
ATOM     24  O   UNL     1      31.373 -23.348 -15.756  0.00  0.00    -0.455 OA
BRANCH  24  25
ATOM     25  C   UNL     1      30.860 -23.181 -14.436  0.00  0.00    +0.169 C 
ATOM     26  C   UNL     1      29.409 -22.701 -14.500  0.00  0.00    +0.044 C 
ATOM     27  C   UNL     1      30.982 -24.510 -13.691  0.00  0.00    +0.044 C 
ATOM     28  C   UNL     1      28.475 -23.771 -15.068  0.00  0.00    +0.004 C 
ATOM     29  C   UNL     1      30.043 -25.576 -14.257  0.00  0.00    +0.004 C 
ATOM     30  C   UNL     1      28.599 -25.087 -14.305  0.00  0.00    +0.000 C 
ENDBRANCH  24  25
ENDBRANCH   5  24
TORSDOF 6
ENDMDL
MODEL 5
REMARK VINA RESULT:     -10.1      2.034      5.404
REMARK  Name = 11574606
REMARK  6 active torsions:
REMARK  status: ('A' for Active; 'I' for Inactive)
REMARK    1  A    between atoms: C_5  and  O_24
REMARK    2  A    between atoms: C_7  and  N_10
REMARK    3  A    between atoms: N_10  and  C_12
REMARK    4  A    between atoms: C_15  and  S_18
REMARK    5  A    between atoms: S_18  and  N_21
REMARK    6  A    between atoms: O_24  and  C_25
REMARK                            x       y       z     vdW  Elec       q    Type
REMARK                         _______ _______ _______ _____ _____    ______ ____
ROOT
ATOM      1  N   UNL     1      31.838 -23.276 -14.447  0.00  0.00    -0.299 NA
ATOM      2  N   UNL     1      33.835 -23.623 -15.742  0.00  0.00    -0.106 N 
ATOM      3  N   UNL     1      35.099 -24.082 -15.546  0.00  0.00    -0.139 NA
ATOM      4  N   UNL     1      33.929 -24.164 -13.593  0.00  0.00    -0.145 NA
ATOM      5  C   UNL     1      31.318 -22.843 -15.550  0.00  0.00    +0.291 C 
ATOM      6  C   UNL     1      31.965 -22.739 -16.876  0.00  0.00    +0.105 C 
ATOM      7  C   UNL     1      33.244 -23.148 -16.922  0.00  0.00    +0.142 C 
ATOM      8  C   UNL     1      33.137 -23.682 -14.530  0.00  0.00    +0.178 C 
ATOM      9  C   UNL     1      35.094 -24.390 -14.252  0.00  0.00    +0.230 C 
ENDROOT
BRANCH   7  10
ATOM     10  N   UNL     1      34.013 -23.131 -18.051  0.00  0.00    -0.299 N 
ATOM     11  H   UNL     1      34.275 -24.012 -18.405  0.00  0.00    +0.153 HD
BRANCH  10  12
ATOM     12  C   UNL     1      34.477 -22.024 -18.769  0.00  0.00    +0.049 C 
ATOM     13  C   UNL     1      33.582 -21.211 -19.476  0.00  0.00    +0.016 C 
ATOM     14  C   UNL     1      35.843 -21.714 -18.790  0.00  0.00    +0.016 C 
ATOM     15  C   UNL     1      35.407 -19.806 -20.207  0.00  0.00    +0.122 C 
ATOM     16  C   UNL     1      34.045 -20.106 -20.191  0.00  0.00    +0.021 C 
ATOM     17  C   UNL     1      36.306 -20.611 -19.506  0.00  0.00    +0.021 C 
BRANCH  15  18
ATOM     18  S   UNL     1      35.987 -18.425 -21.103  0.00  0.00    +0.057 S 
ATOM     19  O   UNL     1      35.549 -18.558 -22.486  0.00  0.00    -0.153 OA
ATOM     20  O   UNL     1      35.664 -17.218 -20.355  0.00  0.00    -0.153 OA
BRANCH  18  21
ATOM     21  N   UNL     1      37.675 -18.678 -21.033  0.00  0.00    -0.203 NA
ATOM     22  H   UNL     1      38.143 -17.795 -20.822  0.00  0.00    +0.144 HD
ATOM     23  H   UNL     1      38.004 -19.029 -21.933  0.00  0.00    +0.144 HD
ENDBRANCH  18  21
ENDBRANCH  15  18
ENDBRANCH  10  12
ENDBRANCH   7  10
BRANCH   5  24
ATOM     24  O   UNL     1      30.032 -22.417 -15.571  0.00  0.00    -0.455 OA
BRANCH  24  25
ATOM     25  C   UNL     1      29.114 -23.503 -15.463  0.00  0.00    +0.169 C 
ATOM     26  C   UNL     1      28.213 -23.299 -14.244  0.00  0.00    +0.044 C 
ATOM     27  C   UNL     1      28.302 -23.589 -16.756  0.00  0.00    +0.044 C 
ATOM     28  C   UNL     1      27.271 -22.107 -14.417  0.00  0.00    +0.004 C 
ATOM     29  C   UNL     1      27.358 -22.398 -16.924  0.00  0.00    +0.004 C 
ATOM     30  C   UNL     1      26.459 -22.215 -15.706  0.00  0.00    +0.000 C 
ENDBRANCH  24  25
ENDBRANCH   5  24
TORSDOF 6
ENDMDL
MODEL 6
REMARK VINA RESULT:     -10.0      3.359      6.968
REMARK  Name = 11574606
REMARK  6 active torsions:
REMARK  status: ('A' for Active; 'I' for Inactive)
REMARK    1  A    between atoms: C_5  and  O_24
REMARK    2  A    between atoms: C_7  and  N_10
REMARK    3  A    between atoms: N_10  and  C_12
REMARK    4  A    between atoms: C_15  and  S_18
REMARK    5  A    between atoms: S_18  and  N_21
REMARK    6  A    between atoms: O_24  and  C_25
REMARK                            x       y       z     vdW  Elec       q    Type
REMARK                         _______ _______ _______ _____ _____    ______ ____
ROOT
ATOM      1  N   UNL     1      31.655 -22.973 -16.317  0.00  0.00    -0.299 NA
ATOM      2  N   UNL     1      32.190 -24.438 -14.487  0.00  0.00    -0.106 N 
ATOM      3  N   UNL     1      31.538 -25.280 -13.642  0.00  0.00    -0.139 NA
ATOM      4  N   UNL     1      30.058 -24.322 -15.085  0.00  0.00    -0.145 NA
ATOM      5  C   UNL     1      32.923 -22.712 -16.348  0.00  0.00    +0.291 C 
ATOM      6  C   UNL     1      33.982 -23.262 -15.474  0.00  0.00    +0.105 C 
ATOM      7  C   UNL     1      33.559 -24.136 -14.544  0.00  0.00    +0.142 C 
ATOM      8  C   UNL     1      31.262 -23.863 -15.362  0.00  0.00    +0.178 C 
ATOM      9  C   UNL     1      30.277 -25.169 -14.047  0.00  0.00    +0.230 C 
ENDROOT
BRANCH   7  10
ATOM     10  N   UNL     1      34.381 -24.752 -13.644  0.00  0.00    -0.299 N 
ATOM     11  H   UNL     1      33.945 -25.099 -12.832  0.00  0.00    +0.153 HD
BRANCH  10  12
ATOM     12  C   UNL     1      35.763 -24.953 -13.727  0.00  0.00    +0.049 C 
ATOM     13  C   UNL     1      36.647 -24.088 -13.070  0.00  0.00    +0.016 C 
ATOM     14  C   UNL     1      36.281 -26.025 -14.467  0.00  0.00    +0.016 C 
ATOM     15  C   UNL     1      38.531 -25.357 -13.893  0.00  0.00    +0.122 C 
ATOM     16  C   UNL     1      38.025 -24.289 -13.152  0.00  0.00    +0.021 C 
ATOM     17  C   UNL     1      37.658 -26.225 -14.550  0.00  0.00    +0.021 C 
BRANCH  15  18
ATOM     18  S   UNL     1      40.255 -25.609 -13.998  0.00  0.00    +0.057 S 
ATOM     19  O   UNL     1      40.923 -24.368 -13.627  0.00  0.00    -0.153 OA
ATOM     20  O   UNL     1      40.586 -26.844 -13.301  0.00  0.00    -0.153 OA
BRANCH  18  21
ATOM     21  N   UNL     1      40.446 -25.858 -15.677  0.00  0.00    -0.203 NA
ATOM     22  H   UNL     1      41.329 -26.339 -15.851  0.00  0.00    +0.144 HD
ATOM     23  H   UNL     1      40.450 -24.957 -16.156  0.00  0.00    +0.144 HD
ENDBRANCH  18  21
ENDBRANCH  15  18
ENDBRANCH  10  12
ENDBRANCH   7  10
BRANCH   5  24
ATOM     24  O   UNL     1      33.412 -21.840 -17.262  0.00  0.00    -0.455 OA
BRANCH  24  25
ATOM     25  C   UNL     1      33.475 -22.419 -18.564  0.00  0.00    +0.169 C 
ATOM     26  C   UNL     1      32.681 -21.563 -19.551  0.00  0.00    +0.044 C 
ATOM     27  C   UNL     1      34.942 -22.540 -18.976  0.00  0.00    +0.044 C 
ATOM     28  C   UNL     1      33.332 -20.198 -19.781  0.00  0.00    +0.004 C 
ATOM     29  C   UNL     1      35.589 -21.175 -19.211  0.00  0.00    +0.004 C 
ATOM     30  C   UNL     1      34.792 -20.337 -20.205  0.00  0.00    +0.000 C 
ENDBRANCH  24  25
ENDBRANCH   5  24
TORSDOF 6
ENDMDL
MODEL 7
REMARK VINA RESULT:      -9.9      5.421     10.810
REMARK  Name = 11574606
REMARK  6 active torsions:
REMARK  status: ('A' for Active; 'I' for Inactive)
REMARK    1  A    between atoms: C_5  and  O_24
REMARK    2  A    between atoms: C_7  and  N_10
REMARK    3  A    between atoms: N_10  and  C_12
REMARK    4  A    between atoms: C_15  and  S_18
REMARK    5  A    between atoms: S_18  and  N_21
REMARK    6  A    between atoms: O_24  and  C_25
REMARK                            x       y       z     vdW  Elec       q    Type
REMARK                         _______ _______ _______ _____ _____    ______ ____
ROOT
ATOM      1  N   UNL     1      33.507 -14.581 -23.442  0.00  0.00    -0.299 NA
ATOM      2  N   UNL     1      34.683 -16.676 -23.325  0.00  0.00    -0.106 N 
ATOM      3  N   UNL     1      34.866 -17.777 -24.101  0.00  0.00    -0.139 NA
ATOM      4  N   UNL     1      33.518 -16.285 -25.170  0.00  0.00    -0.145 NA
ATOM      5  C   UNL     1      33.997 -14.355 -22.266  0.00  0.00    +0.291 C 
ATOM      6  C   UNL     1      34.879 -15.234 -21.467  0.00  0.00    +0.105 C 
ATOM      7  C   UNL     1      35.199 -16.403 -22.049  0.00  0.00    +0.142 C 
ATOM      8  C   UNL     1      33.853 -15.775 -24.002  0.00  0.00    +0.178 C 
ATOM      9  C   UNL     1      34.151 -17.485 -25.183  0.00  0.00    +0.230 C 
ENDROOT
BRANCH   7  10
ATOM     10  N   UNL     1      36.001 -17.349 -21.476  0.00  0.00    -0.299 N 
ATOM     11  H   UNL     1      36.970 -17.182 -21.533  0.00  0.00    +0.153 HD
BRANCH  10  12
ATOM     12  C   UNL     1      35.623 -18.524 -20.819  0.00  0.00    +0.049 C 
ATOM     13  C   UNL     1      34.276 -18.902 -20.759  0.00  0.00    +0.016 C 
ATOM     14  C   UNL     1      36.588 -19.340 -20.213  0.00  0.00    +0.016 C 
ATOM     15  C   UNL     1      34.867 -20.880 -19.503  0.00  0.00    +0.122 C 
ATOM     16  C   UNL     1      33.899 -20.075 -20.104  0.00  0.00    +0.021 C 
ATOM     17  C   UNL     1      36.211 -20.512 -19.558  0.00  0.00    +0.021 C 
BRANCH  15  18
ATOM     18  S   UNL     1      34.396 -22.347 -18.683  0.00  0.00    +0.057 S 
ATOM     19  O   UNL     1      34.491 -23.452 -19.628  0.00  0.00    -0.153 OA
ATOM     20  O   UNL     1      35.108 -22.418 -17.415  0.00  0.00    -0.153 OA
BRANCH  18  21
ATOM     21  N   UNL     1      32.747 -22.030 -18.369  0.00  0.00    -0.203 NA
ATOM     22  H   UNL     1      32.617 -21.862 -17.371  0.00  0.00    +0.144 HD
ATOM     23  H   UNL     1      32.186 -22.832 -18.655  0.00  0.00    +0.144 HD
ENDBRANCH  18  21
ENDBRANCH  15  18
ENDBRANCH  10  12
ENDBRANCH   7  10
BRANCH   5  24
ATOM     24  O   UNL     1      33.712 -13.196 -21.625  0.00  0.00    -0.455 OA
BRANCH  24  25
ATOM     25  C   UNL     1      32.327 -12.867 -21.721  0.00  0.00    +0.169 C 
ATOM     26  C   UNL     1      31.715 -12.791 -20.321  0.00  0.00    +0.044 C 
ATOM     27  C   UNL     1      32.187 -11.542 -22.470  0.00  0.00    +0.044 C 
ATOM     28  C   UNL     1      32.263 -11.611 -19.517  0.00  0.00    +0.004 C 
ATOM     29  C   UNL     1      32.732 -10.364 -21.662  0.00  0.00    +0.004 C 
ATOM     30  C   UNL     1      32.105 -10.295 -20.273  0.00  0.00    +0.000 C 
ENDBRANCH  24  25
ENDBRANCH   5  24
TORSDOF 6
ENDMDL
MODEL 8
REMARK VINA RESULT:      -9.9      3.221      8.202
REMARK  Name = 11574606
REMARK  6 active torsions:
REMARK  status: ('A' for Active; 'I' for Inactive)
REMARK    1  A    between atoms: C_5  and  O_24
REMARK    2  A    between atoms: C_7  and  N_10
REMARK    3  A    between atoms: N_10  and  C_12
REMARK    4  A    between atoms: C_15  and  S_18
REMARK    5  A    between atoms: S_18  and  N_21
REMARK    6  A    between atoms: O_24  and  C_25
REMARK                            x       y       z     vdW  Elec       q    Type
REMARK                         _______ _______ _______ _____ _____    ______ ____
ROOT
ATOM      1  N   UNL     1      34.121 -21.623 -19.172  0.00  0.00    -0.299 NA
ATOM      2  N   UNL     1      34.998 -22.538 -17.128  0.00  0.00    -0.106 N 
ATOM      3  N   UNL     1      34.552 -23.277 -16.079  0.00  0.00    -0.139 NA
ATOM      4  N   UNL     1      32.860 -22.932 -17.563  0.00  0.00    -0.145 NA
ATOM      5  C   UNL     1      35.314 -21.156 -19.358  0.00  0.00    +0.291 C 
ATOM      6  C   UNL     1      36.493 -21.307 -18.477  0.00  0.00    +0.105 C 
ATOM      7  C   UNL     1      36.281 -22.018 -17.356  0.00  0.00    +0.142 C 
ATOM      8  C   UNL     1      33.943 -22.339 -18.025  0.00  0.00    +0.178 C 
ATOM      9  C   UNL     1      33.277 -23.481 -16.395  0.00  0.00    +0.230 C 
ENDROOT
BRANCH   7  10
ATOM     10  N   UNL     1      37.242 -22.270 -16.418  0.00  0.00    -0.299 N 
ATOM     11  H   UNL     1      38.148 -21.952 -16.635  0.00  0.00    +0.153 HD
BRANCH  10  12
ATOM     12  C   UNL     1      37.104 -22.923 -15.188  0.00  0.00    +0.049 C 
ATOM     13  C   UNL     1      37.690 -24.178 -14.981  0.00  0.00    +0.016 C 
ATOM     14  C   UNL     1      36.378 -22.328 -14.147  0.00  0.00    +0.016 C 
ATOM     15  C   UNL     1      36.827 -24.229 -12.725  0.00  0.00    +0.122 C 
ATOM     16  C   UNL     1      37.552 -24.828 -13.755  0.00  0.00    +0.021 C 
ATOM     17  C   UNL     1      36.240 -22.979 -12.922  0.00  0.00    +0.021 C 
BRANCH  15  18
ATOM     18  S   UNL     1      36.654 -25.043 -11.191  0.00  0.00    +0.057 S 
ATOM     19  O   UNL     1      37.061 -26.432 -11.359  0.00  0.00    -0.153 OA
ATOM     20  O   UNL     1      37.278 -24.226 -10.160  0.00  0.00    -0.153 OA
BRANCH  18  21
ATOM     21  N   UNL     1      34.959 -24.988 -10.983  0.00  0.00    -0.203 NA
ATOM     22  H   UNL     1      34.687 -25.626 -10.234  0.00  0.00    +0.144 HD
ATOM     23  H   UNL     1      34.500 -25.266 -11.850  0.00  0.00    +0.144 HD
ENDBRANCH  18  21
ENDBRANCH  15  18
ENDBRANCH  10  12
ENDBRANCH   7  10
BRANCH   5  24
ATOM     24  O   UNL     1      35.591 -20.430 -20.468  0.00  0.00    -0.455 OA
BRANCH  24  25
ATOM     25  C   UNL     1      34.769 -19.268 -20.558  0.00  0.00    +0.169 C 
ATOM     26  C   UNL     1      35.645 -18.014 -20.562  0.00  0.00    +0.044 C 
ATOM     27  C   UNL     1      33.918 -19.366 -21.824  0.00  0.00    +0.044 C 
ATOM     28  C   UNL     1      36.486 -17.904 -21.835  0.00  0.00    +0.004 C 
ATOM     29  C   UNL     1      34.761 -19.251 -23.094  0.00  0.00    +0.004 C 
ATOM     30  C   UNL     1      35.620 -17.991 -23.089  0.00  0.00    +0.000 C 
ENDBRANCH  24  25
ENDBRANCH   5  24
TORSDOF 6
ENDMDL
MODEL 9
REMARK VINA RESULT:      -9.8      3.815      7.511
REMARK  Name = 11574606
REMARK  6 active torsions:
REMARK  status: ('A' for Active; 'I' for Inactive)
REMARK    1  A    between atoms: C_5  and  O_24
REMARK    2  A    between atoms: C_7  and  N_10
REMARK    3  A    between atoms: N_10  and  C_12
REMARK    4  A    between atoms: C_15  and  S_18
REMARK    5  A    between atoms: S_18  and  N_21
REMARK    6  A    between atoms: O_24  and  C_25
REMARK                            x       y       z     vdW  Elec       q    Type
REMARK                         _______ _______ _______ _____ _____    ______ ____
ROOT
ATOM      1  N   UNL     1      32.548 -21.961 -18.638  0.00  0.00    -0.299 NA
ATOM      2  N   UNL     1      34.893 -21.627 -18.224  0.00  0.00    -0.106 N 
ATOM      3  N   UNL     1      35.939 -20.978 -18.802  0.00  0.00    -0.139 NA
ATOM      4  N   UNL     1      34.048 -20.658 -20.031  0.00  0.00    -0.145 NA
ATOM      5  C   UNL     1      32.560 -22.669 -17.554  0.00  0.00    +0.291 C 
ATOM      6  C   UNL     1      33.712 -22.953 -16.671  0.00  0.00    +0.105 C 
ATOM      7  C   UNL     1      34.876 -22.400 -17.054  0.00  0.00    +0.142 C 
ATOM      8  C   UNL     1      33.745 -21.416 -18.996  0.00  0.00    +0.178 C 
ATOM      9  C   UNL     1      35.374 -20.421 -19.869  0.00  0.00    +0.230 C 
ENDROOT
BRANCH   7  10
ATOM     10  N   UNL     1      36.051 -22.544 -16.373  0.00  0.00    -0.299 N 
ATOM     11  H   UNL     1      36.849 -22.168 -16.811  0.00  0.00    +0.153 HD
BRANCH  10  12
ATOM     12  C   UNL     1      36.268 -23.157 -15.135  0.00  0.00    +0.049 C 
ATOM     13  C   UNL     1      37.504 -23.745 -14.841  0.00  0.00    +0.016 C 
ATOM     14  C   UNL     1      35.250 -23.189 -14.172  0.00  0.00    +0.016 C 
ATOM     15  C   UNL     1      36.700 -24.385 -12.654  0.00  0.00    +0.122 C 
ATOM     16  C   UNL     1      37.720 -24.357 -13.605  0.00  0.00    +0.021 C 
ATOM     17  C   UNL     1      35.466 -23.801 -12.938  0.00  0.00    +0.021 C 
BRANCH  15  18
ATOM     18  S   UNL     1      36.969 -25.151 -11.108  0.00  0.00    +0.057 S 
ATOM     19  O   UNL     1      37.144 -26.580 -11.328  0.00  0.00    -0.153 OA
ATOM     20  O   UNL     1      37.989 -24.400 -10.390  0.00  0.00    -0.153 OA
BRANCH  18  21
ATOM     21  N   UNL     1      35.461 -24.890 -10.350  0.00  0.00    -0.203 NA
ATOM     22  H   UNL     1      34.715 -24.956 -11.044  0.00  0.00    +0.144 HD
ATOM     23  H   UNL     1      35.449 -23.963  -9.925  0.00  0.00    +0.144 HD
ENDBRANCH  18  21
ENDBRANCH  15  18
ENDBRANCH  10  12
ENDBRANCH   7  10
BRANCH   5  24
ATOM     24  O   UNL     1      31.419 -23.253 -17.114  0.00  0.00    -0.455 OA
BRANCH  24  25
ATOM     25  C   UNL     1      30.882 -22.574 -15.981  0.00  0.00    +0.169 C 
ATOM     26  C   UNL     1      29.354 -22.582 -16.050  0.00  0.00    +0.044 C 
ATOM     27  C   UNL     1      31.392 -23.257 -14.712  0.00  0.00    +0.044 C 
ATOM     28  C   UNL     1      28.777 -23.988 -15.877  0.00  0.00    +0.004 C 
ATOM     29  C   UNL     1      30.811 -24.660 -14.539  0.00  0.00    +0.004 C 
ATOM     30  C   UNL     1      29.287 -24.650 -14.599  0.00  0.00    +0.000 C 
ENDBRANCH  24  25
ENDBRANCH   5  24
TORSDOF 6
ENDMDL
