MODEL 1
REMARK VINA RESULT:     -12.5      0.000      0.000
REMARK  Name = 118161062
REMARK  4 active torsions:
REMARK  status: ('A' for Active; 'I' for Inactive)
REMARK    1  A    between atoms: N_1  and  C_26
REMARK    2  A    between atoms: C_7  and  C_15
REMARK    3  A    between atoms: C_21  and  N_28
REMARK    4  A    between atoms: N_27  and  C_35
REMARK                            x       y       z     vdW  Elec       q    Type
REMARK                         _______ _______ _______ _____ _____    ______ ____
ROOT
ATOM      1  N   UNL     1      36.139 -22.878 -16.238  0.00  0.00    -0.286 N 
ATOM      2  N   UNL     1      34.746 -23.797 -12.934  0.00  0.00    -0.260 N 
ATOM      3  N   UNL     1      33.949 -23.290 -15.536  0.00  0.00    -0.384 NA
ATOM      4  N   UNL     1      36.892 -23.443 -13.427  0.00  0.00    -0.224 NA
ATOM      5  C   UNL     1      35.235 -23.208 -15.256  0.00  0.00    +0.216 C 
ATOM      6  C   UNL     1      35.667 -23.474 -13.897  0.00  0.00    +0.180 C 
ATOM      7  C   UNL     1      33.042 -23.628 -14.533  0.00  0.00    +0.162 C 
ATOM      8  C   UNL     1      33.407 -23.873 -13.255  0.00  0.00    +0.159 C 
ATOM      9  C   UNL     1      35.431 -23.984 -11.767  0.00  0.00    +0.088 C 
ATOM     10  C   UNL     1      36.752 -23.761 -12.097  0.00  0.00    +0.117 C 
ATOM     11  H   UNL     1      37.044 -23.253 -16.139  0.00  0.00    +0.155 HD
ENDROOT
BRANCH   7  15
ATOM     12  N   UNL     1      30.841 -24.567 -14.237  0.00  0.00    -0.386 NA
ATOM     13  N   UNL     1      29.803 -22.928 -16.263  0.00  0.00    -0.257 NA
ATOM     14  N   UNL     1      28.664 -25.502 -13.939  0.00  0.00    -0.335 N 
ATOM     15  C   UNL     1      31.611 -23.690 -14.910  0.00  0.00    +0.178 C 
ATOM     16  C   UNL     1      31.102 -22.884 -15.905  0.00  0.00    +0.128 C 
ATOM     17  C   UNL     1      29.542 -24.610 -14.595  0.00  0.00    +0.179 C 
ATOM     18  C   UNL     1      29.032 -23.805 -15.589  0.00  0.00    +0.199 C 
ATOM     19  H   UNL     1      29.002 -26.089 -13.224  0.00  0.00    +0.144 HD
ATOM     20  H   UNL     1      27.715 -25.537 -14.197  0.00  0.00    +0.144 HD
ENDBRANCH   7  15
BRANCH   1  26
ATOM     21  C   UNL     1      35.493 -20.452 -19.606  0.00  0.00    +0.048 C 
ATOM     22  C   UNL     1      36.716 -20.404 -18.935  0.00  0.00    +0.016 C 
ATOM     23  C   UNL     1      34.485 -21.306 -19.156  0.00  0.00    +0.016 C 
ATOM     24  C   UNL     1      36.931 -21.210 -17.818  0.00  0.00    +0.016 C 
ATOM     25  C   UNL     1      34.701 -22.112 -18.039  0.00  0.00    +0.016 C 
ATOM     26  C   UNL     1      35.923 -22.065 -17.369  0.00  0.00    +0.050 C 
BRANCH  21  28
ATOM     27  N   UNL     1      34.738 -17.812 -22.847  0.00  0.00    +0.394 N 
ATOM     28  N   UNL     1      35.278 -19.643 -20.726  0.00  0.00    -0.312 N 
ATOM     29  C   UNL     1      36.092 -17.920 -22.289  0.00  0.00    -0.055 C 
ATOM     30  C   UNL     1      34.079 -19.122 -22.815  0.00  0.00    -0.055 C 
ATOM     31  C   UNL     1      36.046 -18.396 -20.836  0.00  0.00    +0.068 C 
ATOM     32  C   UNL     1      33.965 -19.640 -21.380  0.00  0.00    +0.068 C 
ATOM     33  H   UNL     1      34.198 -17.150 -22.290  0.00  0.00    -0.079 HD
BRANCH  27  35
ATOM     34  O   UNL     1      33.203 -16.365 -25.230  0.00  0.00    -0.358 OA
ATOM     35  C   UNL     1      34.821 -17.342 -24.241  0.00  0.00    +0.002 C 
ATOM     36  C   UNL     1      33.550 -17.751 -24.984  0.00  0.00    +0.124 C 
ATOM     37  C   UNL     1      34.247 -15.927 -24.323  0.00  0.00    +0.124 C 
ENDBRANCH  27  35
ENDBRANCH  21  28
ENDBRANCH   1  26
TORSDOF 4
ENDMDL
MODEL 2
REMARK VINA RESULT:     -11.0      1.086      1.650
REMARK  Name = 118161062
REMARK  4 active torsions:
REMARK  status: ('A' for Active; 'I' for Inactive)
REMARK    1  A    between atoms: N_1  and  C_26
REMARK    2  A    between atoms: C_7  and  C_15
REMARK    3  A    between atoms: C_21  and  N_28
REMARK    4  A    between atoms: N_27  and  C_35
REMARK                            x       y       z     vdW  Elec       q    Type
REMARK                         _______ _______ _______ _____ _____    ______ ____
ROOT
ATOM      1  N   UNL     1      36.563 -22.397 -17.152  0.00  0.00    -0.286 N 
ATOM      2  N   UNL     1      35.595 -23.544 -13.769  0.00  0.00    -0.260 N 
ATOM      3  N   UNL     1      34.482 -22.916 -16.225  0.00  0.00    -0.384 NA
ATOM      4  N   UNL     1      37.658 -23.097 -14.488  0.00  0.00    -0.224 NA
ATOM      5  C   UNL     1      35.790 -22.810 -16.093  0.00  0.00    +0.216 C 
ATOM      6  C   UNL     1      36.386 -23.139 -14.812  0.00  0.00    +0.180 C 
ATOM      7  C   UNL     1      33.708 -23.338 -15.144  0.00  0.00    +0.162 C 
ATOM      8  C   UNL     1      34.229 -23.643 -13.935  0.00  0.00    +0.159 C 
ATOM      9  C   UNL     1      36.418 -23.776 -12.703  0.00  0.00    +0.088 C 
ATOM     10  C   UNL     1      37.684 -23.494 -13.172  0.00  0.00    +0.117 C 
ATOM     11  H   UNL     1      37.481 -22.749 -17.183  0.00  0.00    +0.155 HD
ENDROOT
BRANCH   7  15
ATOM     12  N   UNL     1      31.568 -24.293 -14.581  0.00  0.00    -0.386 NA
ATOM     13  N   UNL     1      30.285 -22.706 -16.505  0.00  0.00    -0.257 NA
ATOM     14  N   UNL     1      29.451 -25.245 -14.019  0.00  0.00    -0.335 N 
ATOM     15  C   UNL     1      32.245 -23.422 -15.354  0.00  0.00    +0.178 C 
ATOM     16  C   UNL     1      31.615 -22.641 -16.298  0.00  0.00    +0.128 C 
ATOM     17  C   UNL     1      30.238 -24.357 -14.787  0.00  0.00    +0.179 C 
ATOM     18  C   UNL     1      29.607 -23.577 -15.731  0.00  0.00    +0.199 C 
ATOM     19  H   UNL     1      29.876 -25.814 -13.337  0.00  0.00    +0.144 HD
ATOM     20  H   UNL     1      28.479 -25.295 -14.166  0.00  0.00    +0.144 HD
ENDBRANCH   7  15
BRANCH   1  26
ATOM     21  C   UNL     1      35.466 -19.811 -20.275  0.00  0.00    +0.048 C 
ATOM     22  C   UNL     1      34.494 -20.577 -19.629  0.00  0.00    +0.016 C 
ATOM     23  C   UNL     1      36.801 -19.906 -19.884  0.00  0.00    +0.016 C 
ATOM     24  C   UNL     1      34.858 -21.434 -18.591  0.00  0.00    +0.016 C 
ATOM     25  C   UNL     1      37.165 -20.763 -18.846  0.00  0.00    +0.016 C 
ATOM     26  C   UNL     1      36.194 -21.528 -18.200  0.00  0.00    +0.050 C 
BRANCH  21  28
ATOM     27  N   UNL     1      34.603 -17.221 -23.530  0.00  0.00    +0.394 N 
ATOM     28  N   UNL     1      35.100 -18.951 -21.316  0.00  0.00    -0.312 N 
ATOM     29  C   UNL     1      34.194 -18.630 -23.586  0.00  0.00    -0.055 C 
ATOM     30  C   UNL     1      34.481 -16.720 -22.156  0.00  0.00    -0.055 C 
ATOM     31  C   UNL     1      35.080 -19.490 -22.683  0.00  0.00    +0.068 C 
ATOM     32  C   UNL     1      35.376 -17.515 -21.204  0.00  0.00    +0.068 C 
ATOM     33  H   UNL     1      35.574 -17.141 -23.831  0.00  0.00    -0.079 HD
BRANCH  27  35
ATOM     34  O   UNL     1      34.208 -14.432 -25.013  0.00  0.00    -0.358 OA
ATOM     35  C   UNL     1      33.737 -16.426 -24.417  0.00  0.00    +0.002 C 
ATOM     36  C   UNL     1      33.585 -15.019 -23.842  0.00  0.00    +0.124 C 
ATOM     37  C   UNL     1      34.603 -15.748 -25.480  0.00  0.00    +0.124 C 
ENDBRANCH  27  35
ENDBRANCH  21  28
ENDBRANCH   1  26
TORSDOF 4
ENDMDL
