MODEL 1
REMARK VINA RESULT:     -11.9      0.000      0.000
REMARK  Name = 15984937
REMARK  6 active torsions:
REMARK  status: ('A' for Active; 'I' for Inactive)
REMARK    1  A    between atoms: C_1  and  C_9
REMARK    2  A    between atoms: C_1  and  C_20
REMARK    3  A    between atoms: C_4  and  N_10
REMARK    4  A    between atoms: N_10  and  C_13
REMARK    5  A    between atoms: C_19  and  C_25
REMARK    6  A    between atoms: C_25  and  N_26
REMARK                            x       y       z     vdW  Elec       q    Type
REMARK                         _______ _______ _______ _____ _____    ______ ____
ROOT
ATOM      1  C   UNL     1      35.888 -18.929 -21.011  0.00  0.00    +0.112 C 
ENDROOT
BRANCH   1   9
ATOM      2  O   UNL     1      35.212 -19.831 -23.095  0.00  0.00    -0.275 OA
ATOM      3  N   UNL     1      34.683 -17.601 -22.711  0.00  0.00    -0.279 N 
ATOM      4  C   UNL     1      34.701 -14.985 -23.982  0.00  0.00    +0.072 C 
ATOM      5  C   UNL     1      35.332 -15.225 -22.607  0.00  0.00    +0.041 C 
ATOM      6  C   UNL     1      34.614 -16.282 -24.794  0.00  0.00    +0.041 C 
ATOM      7  C   UNL     1      34.693 -16.401 -21.866  0.00  0.00    +0.095 C 
ATOM      8  C   UNL     1      34.007 -17.437 -23.998  0.00  0.00    +0.095 C 
ATOM      9  C   UNL     1      35.232 -18.836 -22.365  0.00  0.00    +0.230 C 
BRANCH   4  10
ATOM     10  N   UNL     1      33.385 -14.397 -23.827  0.00  0.00    -0.334 N 
ATOM     11  H   UNL     1      32.603 -14.924 -24.112  0.00  0.00    +0.147 HD
BRANCH  10  13
ATOM     12  F   UNL     1      31.484 -11.548 -20.468  0.00  0.00    -0.204 F 
ATOM     13  C   UNL     1      33.168 -13.136 -23.302  0.00  0.00    +0.047 C 
ATOM     14  C   UNL     1      32.419 -12.962 -22.121  0.00  0.00    +0.044 C 
ATOM     15  C   UNL     1      33.687 -11.989 -23.932  0.00  0.00    +0.014 C 
ATOM     16  C   UNL     1      32.198 -11.691 -21.593  0.00  0.00    +0.141 C 
ATOM     17  C   UNL     1      33.466 -10.717 -23.404  0.00  0.00    +0.004 C 
ATOM     18  C   UNL     1      32.721 -10.569 -22.233  0.00  0.00    +0.030 C 
ENDBRANCH  10  13
ENDBRANCH   4  10
ENDBRANCH   1   9
BRANCH   1  20
ATOM     19  C   UNL     1      34.114 -22.055 -18.687  0.00  0.00    -0.043 C 
ATOM     20  C   UNL     1      35.268 -20.022 -20.199  0.00  0.00    -0.013 C 
ATOM     21  C   UNL     1      35.502 -21.943 -18.761  0.00  0.00    -0.007 C 
ATOM     22  C   UNL     1      33.304 -21.149 -19.371  0.00  0.00    -0.007 C 
ATOM     23  C   UNL     1      36.081 -20.925 -19.518  0.00  0.00    -0.004 C 
ATOM     24  C   UNL     1      33.882 -20.130 -20.129  0.00  0.00    -0.004 C 
BRANCH  19  25
ATOM     25  C   UNL     1      33.495 -23.145 -17.879  0.00  0.00    -0.050 C 
BRANCH  25  26
ATOM     26  N   UNL     1      33.383 -22.792 -16.464  0.00  0.00    +0.387 N 
ATOM     27  N   UNL     1      32.926 -23.416 -13.680  0.00  0.00    +0.382 N 
ATOM     28  C   UNL     1      34.275 -23.129 -14.180  0.00  0.00    -0.083 C 
ATOM     29  C   UNL     1      34.393 -23.502 -15.667  0.00  0.00    -0.099 C 
ATOM     30  C   UNL     1      32.035 -23.085 -15.961  0.00  0.00    -0.101 C 
ATOM     31  C   UNL     1      31.917 -22.721 -14.480  0.00  0.00    -0.105 C 
ATOM     32  C   UNL     1      35.291 -23.909 -13.347  0.00  0.00    -0.026 C 
ATOM     33  H   UNL     1      33.548 -21.790 -16.374  0.00  0.00    -0.079 HD
ATOM     34  H   UNL     1      32.855 -23.107 -12.711  0.00  0.00    -0.085 HD
ATOM     35  H   UNL     1      32.759 -24.420 -13.747  0.00  0.00    -0.085 HD
ENDBRANCH  25  26
ENDBRANCH  19  25
ENDBRANCH   1  20
TORSDOF 6
ENDMDL
MODEL 2
REMARK VINA RESULT:     -11.4      1.682      2.256
REMARK  Name = 15984937
REMARK  6 active torsions:
REMARK  status: ('A' for Active; 'I' for Inactive)
REMARK    1  A    between atoms: C_1  and  C_9
REMARK    2  A    between atoms: C_1  and  C_20
REMARK    3  A    between atoms: C_4  and  N_10
REMARK    4  A    between atoms: N_10  and  C_13
REMARK    5  A    between atoms: C_19  and  C_25
REMARK    6  A    between atoms: C_25  and  N_26
REMARK                            x       y       z     vdW  Elec       q    Type
REMARK                         _______ _______ _______ _____ _____    ______ ____
ROOT
ATOM      1  C   UNL     1      35.695 -17.847 -21.584  0.00  0.00    +0.112 C 
ENDROOT
BRANCH   1   9
ATOM      2  O   UNL     1      35.193 -16.663 -19.594  0.00  0.00    -0.275 OA
ATOM      3  N   UNL     1      35.001 -15.475 -21.582  0.00  0.00    -0.279 N 
ATOM      4  C   UNL     1      33.259 -13.617 -22.987  0.00  0.00    +0.072 C 
ATOM      5  C   UNL     1      33.763 -14.910 -23.637  0.00  0.00    +0.041 C 
ATOM      6  C   UNL     1      33.280 -13.713 -21.458  0.00  0.00    +0.041 C 
ATOM      7  C   UNL     1      35.090 -15.387 -23.044  0.00  0.00    +0.095 C 
ATOM      8  C   UNL     1      34.612 -14.232 -20.916  0.00  0.00    +0.095 C 
ATOM      9  C   UNL     1      35.276 -16.614 -20.824  0.00  0.00    +0.230 C 
BRANCH   4  10
ATOM     10  N   UNL     1      34.062 -12.495 -23.434  0.00  0.00    -0.334 N 
ATOM     11  H   UNL     1      34.900 -12.684 -23.916  0.00  0.00    +0.147 HD
BRANCH  10  13
ATOM     12  F   UNL     1      31.155  -9.208 -21.493  0.00  0.00    -0.204 F 
ATOM     13  C   UNL     1      33.716 -11.174 -23.217  0.00  0.00    +0.047 C 
ATOM     14  C   UNL     1      32.584 -10.838 -22.447  0.00  0.00    +0.044 C 
ATOM     15  C   UNL     1      34.482 -10.124 -23.760  0.00  0.00    +0.014 C 
ATOM     16  C   UNL     1      32.234  -9.505 -22.230  0.00  0.00    +0.141 C 
ATOM     17  C   UNL     1      34.132  -8.792 -23.543  0.00  0.00    +0.004 C 
ATOM     18  C   UNL     1      33.007  -8.483 -22.778  0.00  0.00    +0.030 C 
ENDBRANCH  10  13
ENDBRANCH   4  10
ENDBRANCH   1   9
BRANCH   1  20
ATOM     19  C   UNL     1      34.696 -21.382 -19.388  0.00  0.00    -0.043 C 
ATOM     20  C   UNL     1      35.346 -19.083 -20.817  0.00  0.00    -0.013 C 
ATOM     21  C   UNL     1      36.029 -20.990 -19.509  0.00  0.00    -0.007 C 
ATOM     22  C   UNL     1      33.689 -20.623 -19.982  0.00  0.00    -0.007 C 
ATOM     23  C   UNL     1      36.355 -19.838 -20.224  0.00  0.00    -0.004 C 
ATOM     24  C   UNL     1      34.014 -19.471 -20.699  0.00  0.00    -0.004 C 
BRANCH  19  25
ATOM     25  C   UNL     1      34.348 -22.614 -18.623  0.00  0.00    -0.050 C 
BRANCH  25  26
ATOM     26  N   UNL     1      34.363 -22.396 -17.178  0.00  0.00    +0.387 N 
ATOM     27  N   UNL     1      34.713 -23.259 -14.443  0.00  0.00    +0.382 N 
ATOM     28  C   UNL     1      35.716 -22.419 -15.105  0.00  0.00    -0.083 C 
ATOM     29  C   UNL     1      35.701 -22.651 -16.626  0.00  0.00    -0.099 C 
ATOM     30  C   UNL     1      33.364 -23.241 -16.513  0.00  0.00    -0.101 C 
ATOM     31  C   UNL     1      33.383 -23.017 -15.000  0.00  0.00    -0.105 C 
ATOM     32  C   UNL     1      37.094 -22.737 -14.526  0.00  0.00    -0.026 C 
ATOM     33  H   UNL     1      34.125 -21.419 -17.003  0.00  0.00    -0.079 HD
ATOM     34  H   UNL     1      34.702 -23.045 -13.446  0.00  0.00    -0.085 HD
ATOM     35  H   UNL     1      34.956 -24.238 -14.595  0.00  0.00    -0.085 HD
ENDBRANCH  25  26
ENDBRANCH  19  25
ENDBRANCH   1  20
TORSDOF 6
ENDMDL
MODEL 3
REMARK VINA RESULT:     -11.2      2.234      3.910
REMARK  Name = 15984937
REMARK  6 active torsions:
REMARK  status: ('A' for Active; 'I' for Inactive)
REMARK    1  A    between atoms: C_1  and  C_9
REMARK    2  A    between atoms: C_1  and  C_20
REMARK    3  A    between atoms: C_4  and  N_10
REMARK    4  A    between atoms: N_10  and  C_13
REMARK    5  A    between atoms: C_19  and  C_25
REMARK    6  A    between atoms: C_25  and  N_26
REMARK                            x       y       z     vdW  Elec       q    Type
REMARK                         _______ _______ _______ _____ _____    ______ ____
ROOT
ATOM      1  C   UNL     1      36.354 -21.255 -19.136  0.00  0.00    +0.112 C 
ENDROOT
BRANCH   1   9
ATOM      2  O   UNL     1      34.080 -21.354 -19.791  0.00  0.00    -0.275 OA
ATOM      3  N   UNL     1      35.292 -19.516 -20.533  0.00  0.00    -0.279 N 
ATOM      4  C   UNL     1      35.778 -17.888 -22.894  0.00  0.00    +0.072 C 
ATOM      5  C   UNL     1      36.922 -18.497 -22.076  0.00  0.00    +0.041 C 
ATOM      6  C   UNL     1      34.473 -18.666 -22.699  0.00  0.00    +0.041 C 
ATOM      7  C   UNL     1      36.534 -18.740 -20.616  0.00  0.00    +0.095 C 
ATOM      8  C   UNL     1      34.150 -18.919 -21.226  0.00  0.00    +0.095 C 
ATOM      9  C   UNL     1      35.136 -20.720 -19.845  0.00  0.00    +0.230 C 
BRANCH   4  10
ATOM     10  N   UNL     1      35.596 -16.496 -22.529  0.00  0.00    -0.334 N 
ATOM     11  H   UNL     1      36.045 -16.165 -21.718  0.00  0.00    +0.147 HD
BRANCH  10  13
ATOM     12  F   UNL     1      33.164 -12.373 -22.852  0.00  0.00    -0.204 F 
ATOM     13  C   UNL     1      34.823 -15.610 -23.257  0.00  0.00    +0.047 C 
ATOM     14  C   UNL     1      34.367 -14.406 -22.683  0.00  0.00    +0.044 C 
ATOM     15  C   UNL     1      34.468 -15.884 -24.592  0.00  0.00    +0.014 C 
ATOM     16  C   UNL     1      33.586 -13.513 -23.417  0.00  0.00    +0.141 C 
ATOM     17  C   UNL     1      33.688 -14.990 -25.326  0.00  0.00    +0.004 C 
ATOM     18  C   UNL     1      33.247 -13.805 -24.737  0.00  0.00    +0.030 C 
ENDBRANCH  10  13
ENDBRANCH   4  10
ENDBRANCH   1   9
BRANCH   1  20
ATOM     19  C   UNL     1      35.294 -22.822 -15.296  0.00  0.00    -0.043 C 
ATOM     20  C   UNL     1      35.984 -21.802 -17.794  0.00  0.00    -0.013 C 
ATOM     21  C   UNL     1      34.412 -22.950 -16.369  0.00  0.00    -0.007 C 
ATOM     22  C   UNL     1      36.521 -22.185 -15.475  0.00  0.00    -0.007 C 
ATOM     23  C   UNL     1      34.757 -22.439 -17.620  0.00  0.00    -0.004 C 
ATOM     24  C   UNL     1      36.867 -21.673 -16.725  0.00  0.00    -0.004 C 
BRANCH  19  25
ATOM     25  C   UNL     1      34.925 -23.368 -13.959  0.00  0.00    -0.050 C 
BRANCH  25  26
ATOM     26  N   UNL     1      36.058 -23.389 -13.034  0.00  0.00    +0.387 N 
ATOM     27  N   UNL     1      37.713 -24.623 -11.014  0.00  0.00    +0.382 N 
ATOM     28  C   UNL     1      38.178 -24.497 -12.399  0.00  0.00    -0.083 C 
ATOM     29  C   UNL     1      36.986 -24.477 -13.371  0.00  0.00    -0.099 C 
ATOM     30  C   UNL     1      35.595 -23.521 -11.647  0.00  0.00    -0.101 C 
ATOM     31  C   UNL     1      36.778 -23.549 -10.679  0.00  0.00    -0.105 C 
ATOM     32  C   UNL     1      39.113 -25.663 -12.719  0.00  0.00    -0.026 C 
ATOM     33  H   UNL     1      36.555 -22.503 -13.123  0.00  0.00    -0.079 HD
ATOM     34  H   UNL     1      38.515 -24.575 -10.386  0.00  0.00    -0.085 HD
ATOM     35  H   UNL     1      37.232 -25.517 -10.910  0.00  0.00    -0.085 HD
ENDBRANCH  25  26
ENDBRANCH  19  25
ENDBRANCH   1  20
TORSDOF 6
ENDMDL
MODEL 4
REMARK VINA RESULT:     -11.1      4.818      8.880
REMARK  Name = 15984937
REMARK  6 active torsions:
REMARK  status: ('A' for Active; 'I' for Inactive)
REMARK    1  A    between atoms: C_1  and  C_9
REMARK    2  A    between atoms: C_1  and  C_20
REMARK    3  A    between atoms: C_4  and  N_10
REMARK    4  A    between atoms: N_10  and  C_13
REMARK    5  A    between atoms: C_19  and  C_25
REMARK    6  A    between atoms: C_25  and  N_26
REMARK                            x       y       z     vdW  Elec       q    Type
REMARK                         _______ _______ _______ _____ _____    ______ ____
ROOT
ATOM      1  C   UNL     1      31.160 -11.363 -20.910  0.00  0.00    +0.112 C 
ENDROOT
BRANCH   1   9
ATOM      2  O   UNL     1      31.815 -10.378 -18.857  0.00  0.00    -0.275 OA
ATOM      3  N   UNL     1      32.148  -9.102 -20.771  0.00  0.00    -0.279 N 
ATOM      4  C   UNL     1      31.818  -6.410 -21.823  0.00  0.00    +0.072 C 
ATOM      5  C   UNL     1      31.282  -7.643 -22.559  0.00  0.00    +0.041 C 
ATOM      6  C   UNL     1      31.988  -6.683 -20.324  0.00  0.00    +0.041 C 
ATOM      7  C   UNL     1      32.066  -8.913 -22.224  0.00  0.00    +0.095 C 
ATOM      8  C   UNL     1      32.741  -7.982 -20.041  0.00  0.00    +0.095 C 
ATOM      9  C   UNL     1      31.736 -10.243 -20.082  0.00  0.00    +0.230 C 
BRANCH   4  10
ATOM     10  N   UNL     1      33.079  -5.995 -22.406  0.00  0.00    -0.334 N 
ATOM     11  H   UNL     1      33.908  -6.190 -21.911  0.00  0.00    +0.147 HD
BRANCH  10  13
ATOM     12  F   UNL     1      31.327  -2.917 -25.642  0.00  0.00    -0.204 F 
ATOM     13  C   UNL     1      33.181  -5.338 -23.619  0.00  0.00    +0.047 C 
ATOM     14  C   UNL     1      32.184  -4.435 -24.039  0.00  0.00    +0.044 C 
ATOM     15  C   UNL     1      34.282  -5.553 -24.470  0.00  0.00    +0.014 C 
ATOM     16  C   UNL     1      32.286  -3.773 -25.263  0.00  0.00    +0.141 C 
ATOM     17  C   UNL     1      34.384  -4.891 -25.694  0.00  0.00    +0.004 C 
ATOM     18  C   UNL     1      33.385  -4.001 -26.090  0.00  0.00    +0.030 C 
ENDBRANCH  10  13
ENDBRANCH   4  10
ENDBRANCH   1   9
BRANCH   1  20
ATOM     19  C   UNL     1      34.180 -14.247 -21.853  0.00  0.00    -0.043 C 
ATOM     20  C   UNL     1      32.215 -12.371 -21.240  0.00  0.00    -0.013 C 
ATOM     21  C   UNL     1      33.820 -13.281 -22.793  0.00  0.00    -0.007 C 
ATOM     22  C   UNL     1      33.556 -14.272 -20.606  0.00  0.00    -0.007 C 
ATOM     23  C   UNL     1      32.835 -12.341 -22.486  0.00  0.00    -0.004 C 
ATOM     24  C   UNL     1      32.571 -13.333 -20.299  0.00  0.00    -0.004 C 
BRANCH  19  25
ATOM     25  C   UNL     1      35.231 -15.251 -22.182  0.00  0.00    -0.050 C 
BRANCH  25  26
ATOM     26  N   UNL     1      34.703 -16.614 -22.230  0.00  0.00    +0.387 N 
ATOM     27  N   UNL     1      34.931 -19.452 -22.721  0.00  0.00    +0.382 N 
ATOM     28  C   UNL     1      34.876 -18.923 -21.354  0.00  0.00    -0.083 C 
ATOM     29  C   UNL     1      35.434 -17.490 -21.304  0.00  0.00    -0.099 C 
ATOM     30  C   UNL     1      34.764 -17.148 -23.596  0.00  0.00    -0.101 C 
ATOM     31  C   UNL     1      34.216 -18.575 -23.647  0.00  0.00    -0.105 C 
ATOM     32  C   UNL     1      35.673 -19.843 -20.431  0.00  0.00    -0.026 C 
ATOM     33  H   UNL     1      33.726 -16.584 -21.940  0.00  0.00    -0.079 HD
ATOM     34  H   UNL     1      34.504 -20.377 -22.739  0.00  0.00    -0.085 HD
ATOM     35  H   UNL     1      35.908 -19.505 -23.011  0.00  0.00    -0.085 HD
ENDBRANCH  25  26
ENDBRANCH  19  25
ENDBRANCH   1  20
TORSDOF 6
ENDMDL
MODEL 5
REMARK VINA RESULT:     -10.8      3.706     11.608
REMARK  Name = 15984937
REMARK  6 active torsions:
REMARK  status: ('A' for Active; 'I' for Inactive)
REMARK    1  A    between atoms: C_1  and  C_9
REMARK    2  A    between atoms: C_1  and  C_20
REMARK    3  A    between atoms: C_4  and  N_10
REMARK    4  A    between atoms: N_10  and  C_13
REMARK    5  A    between atoms: C_19  and  C_25
REMARK    6  A    between atoms: C_25  and  N_26
REMARK                            x       y       z     vdW  Elec       q    Type
REMARK                         _______ _______ _______ _____ _____    ______ ____
ROOT
ATOM      1  C   UNL     1      36.021 -21.073 -18.737  0.00  0.00    +0.112 C 
ENDROOT
BRANCH   1   9
ATOM      2  O   UNL     1      33.811 -21.741 -19.270  0.00  0.00    -0.275 OA
ATOM      3  N   UNL     1      34.714 -22.613 -17.315  0.00  0.00    -0.279 N 
ATOM      4  C   UNL     1      34.074 -23.140 -14.526  0.00  0.00    +0.072 C 
ATOM      5  C   UNL     1      35.335 -22.375 -14.942  0.00  0.00    +0.041 C 
ATOM      6  C   UNL     1      32.991 -23.064 -15.608  0.00  0.00    +0.041 C 
ATOM      7  C   UNL     1      35.809 -22.745 -16.348  0.00  0.00    +0.095 C 
ATOM      8  C   UNL     1      33.523 -23.403 -17.001  0.00  0.00    +0.095 C 
ATOM      9  C   UNL     1      34.748 -21.836 -18.473  0.00  0.00    +0.230 C 
BRANCH   4  10
ATOM     10  N   UNL     1      34.406 -24.522 -14.240  0.00  0.00    -0.334 N 
ATOM     11  H   UNL     1      33.796 -25.224 -14.563  0.00  0.00    +0.147 HD
BRANCH  10  13
ATOM     12  F   UNL     1      38.664 -26.725 -14.059  0.00  0.00    -0.204 F 
ATOM     13  C   UNL     1      35.531 -24.907 -13.534  0.00  0.00    +0.047 C 
ATOM     14  C   UNL     1      36.561 -25.640 -14.158  0.00  0.00    +0.044 C 
ATOM     15  C   UNL     1      35.681 -24.581 -12.172  0.00  0.00    +0.014 C 
ATOM     16  C   UNL     1      37.696 -26.030 -13.446  0.00  0.00    +0.141 C 
ATOM     17  C   UNL     1      36.816 -24.972 -11.461  0.00  0.00    +0.004 C 
ATOM     18  C   UNL     1      37.823 -25.697 -12.099  0.00  0.00    +0.030 C 
ENDBRANCH  10  13
ENDBRANCH   4  10
ENDBRANCH   1   9
BRANCH   1  20
ATOM     19  C   UNL     1      35.557 -18.498 -22.125  0.00  0.00    -0.043 C 
ATOM     20  C   UNL     1      35.859 -20.173 -19.922  0.00  0.00    -0.013 C 
ATOM     21  C   UNL     1      34.492 -19.292 -21.702  0.00  0.00    -0.007 C 
ATOM     22  C   UNL     1      36.774 -18.543 -21.445  0.00  0.00    -0.007 C 
ATOM     23  C   UNL     1      34.642 -20.131 -20.598  0.00  0.00    -0.004 C 
ATOM     24  C   UNL     1      36.925 -19.382 -20.341  0.00  0.00    -0.004 C 
BRANCH  19  25
ATOM     25  C   UNL     1      35.396 -17.602 -23.306  0.00  0.00    -0.050 C 
BRANCH  25  26
ATOM     26  N   UNL     1      34.557 -16.441 -23.013  0.00  0.00    +0.387 N 
ATOM     27  N   UNL     1      34.045 -13.602 -22.859  0.00  0.00    +0.382 N 
ATOM     28  C   UNL     1      33.444 -14.423 -23.916  0.00  0.00    -0.083 C 
ATOM     29  C   UNL     1      34.330 -15.642 -24.225  0.00  0.00    -0.099 C 
ATOM     30  C   UNL     1      35.160 -15.614 -21.960  0.00  0.00    -0.101 C 
ATOM     31  C   UNL     1      34.285 -14.398 -21.656  0.00  0.00    -0.105 C 
ATOM     32  C   UNL     1      33.254 -13.565 -25.166  0.00  0.00    -0.026 C 
ATOM     33  H   UNL     1      33.655 -16.780 -22.678  0.00  0.00    -0.079 HD
ATOM     34  H   UNL     1      33.414 -12.834 -22.632  0.00  0.00    -0.085 HD
ATOM     35  H   UNL     1      34.939 -13.241 -23.194  0.00  0.00    -0.085 HD
ENDBRANCH  25  26
ENDBRANCH  19  25
ENDBRANCH   1  20
TORSDOF 6
ENDMDL
MODEL 6
REMARK VINA RESULT:     -10.8      3.620     11.521
REMARK  Name = 15984937
REMARK  6 active torsions:
REMARK  status: ('A' for Active; 'I' for Inactive)
REMARK    1  A    between atoms: C_1  and  C_9
REMARK    2  A    between atoms: C_1  and  C_20
REMARK    3  A    between atoms: C_4  and  N_10
REMARK    4  A    between atoms: N_10  and  C_13
REMARK    5  A    between atoms: C_19  and  C_25
REMARK    6  A    between atoms: C_25  and  N_26
REMARK                            x       y       z     vdW  Elec       q    Type
REMARK                         _______ _______ _______ _____ _____    ______ ____
ROOT
ATOM      1  C   UNL     1      36.015 -21.080 -18.688  0.00  0.00    +0.112 C 
ENDROOT
BRANCH   1   9
ATOM      2  O   UNL     1      33.788 -21.722 -19.181  0.00  0.00    -0.275 OA
ATOM      3  N   UNL     1      34.729 -22.635 -17.262  0.00  0.00    -0.279 N 
ATOM      4  C   UNL     1      34.149 -23.205 -14.470  0.00  0.00    +0.072 C 
ATOM      5  C   UNL     1      35.407 -22.442 -14.901  0.00  0.00    +0.041 C 
ATOM      6  C   UNL     1      33.042 -23.102 -15.525  0.00  0.00    +0.041 C 
ATOM      7  C   UNL     1      35.845 -22.792 -16.324  0.00  0.00    +0.095 C 
ATOM      8  C   UNL     1      33.539 -23.421 -16.935  0.00  0.00    +0.095 C 
ATOM      9  C   UNL     1      34.743 -21.838 -18.407  0.00  0.00    +0.230 C 
BRANCH   4  10
ATOM     10  N   UNL     1      34.476 -24.594 -14.214  0.00  0.00    -0.334 N 
ATOM     11  H   UNL     1      33.784 -25.274 -14.382  0.00  0.00    +0.147 HD
BRANCH  10  13
ATOM     12  F   UNL     1      37.918 -24.514 -10.873  0.00  0.00    -0.204 F 
ATOM     13  C   UNL     1      35.707 -25.016 -13.746  0.00  0.00    +0.047 C 
ATOM     14  C   UNL     1      36.214 -24.547 -12.517  0.00  0.00    +0.044 C 
ATOM     15  C   UNL     1      36.491 -25.925 -14.482  0.00  0.00    +0.014 C 
ATOM     16  C   UNL     1      37.456 -24.972 -12.045  0.00  0.00    +0.141 C 
ATOM     17  C   UNL     1      37.733 -26.350 -14.010  0.00  0.00    +0.004 C 
ATOM     18  C   UNL     1      38.215 -25.872 -12.791  0.00  0.00    +0.030 C 
ENDBRANCH  10  13
ENDBRANCH   4  10
ENDBRANCH   1   9
BRANCH   1  20
ATOM     19  C   UNL     1      35.527 -18.518 -22.083  0.00  0.00    -0.043 C 
ATOM     20  C   UNL     1      35.844 -20.184 -19.874  0.00  0.00    -0.013 C 
ATOM     21  C   UNL     1      36.745 -18.552 -21.404  0.00  0.00    -0.007 C 
ATOM     22  C   UNL     1      34.469 -19.319 -21.655  0.00  0.00    -0.007 C 
ATOM     23  C   UNL     1      36.905 -19.387 -20.298  0.00  0.00    -0.004 C 
ATOM     24  C   UNL     1      34.627 -20.153 -20.549  0.00  0.00    -0.004 C 
BRANCH  19  25
ATOM     25  C   UNL     1      35.357 -17.625 -23.265  0.00  0.00    -0.050 C 
BRANCH  25  26
ATOM     26  N   UNL     1      34.556 -16.441 -22.957  0.00  0.00    +0.387 N 
ATOM     27  N   UNL     1      34.120 -13.589 -22.814  0.00  0.00    +0.382 N 
ATOM     28  C   UNL     1      33.466 -14.404 -23.844  0.00  0.00    -0.083 C 
ATOM     29  C   UNL     1      34.311 -15.647 -24.169  0.00  0.00    -0.099 C 
ATOM     30  C   UNL     1      35.212 -15.621 -21.931  0.00  0.00    -0.101 C 
ATOM     31  C   UNL     1      34.378 -14.380 -21.612  0.00  0.00    -0.105 C 
ATOM     32  C   UNL     1      33.259 -13.552 -25.096  0.00  0.00    -0.026 C 
ATOM     33  H   UNL     1      33.657 -16.755 -22.591  0.00  0.00    -0.079 HD
ATOM     34  H   UNL     1      33.516 -12.804 -22.575  0.00  0.00    -0.085 HD
ATOM     35  H   UNL     1      35.011 -13.254 -23.180  0.00  0.00    -0.085 HD
ENDBRANCH  25  26
ENDBRANCH  19  25
ENDBRANCH   1  20
TORSDOF 6
ENDMDL
MODEL 7
REMARK VINA RESULT:     -10.7      3.334     10.605
REMARK  Name = 15984937
REMARK  6 active torsions:
REMARK  status: ('A' for Active; 'I' for Inactive)
REMARK    1  A    between atoms: C_1  and  C_9
REMARK    2  A    between atoms: C_1  and  C_20
REMARK    3  A    between atoms: C_4  and  N_10
REMARK    4  A    between atoms: N_10  and  C_13
REMARK    5  A    between atoms: C_19  and  C_25
REMARK    6  A    between atoms: C_25  and  N_26
REMARK                            x       y       z     vdW  Elec       q    Type
REMARK                         _______ _______ _______ _____ _____    ______ ____
ROOT
ATOM      1  C   UNL     1      35.338 -15.895 -24.114  0.00  0.00    +0.112 C 
ENDROOT
BRANCH   1   9
ATOM      2  O   UNL     1      33.884 -17.516 -25.048  0.00  0.00    -0.275 OA
ATOM      3  N   UNL     1      34.916 -18.082 -23.044  0.00  0.00    -0.279 N 
ATOM      4  C   UNL     1      34.385 -19.276 -20.446  0.00  0.00    +0.072 C 
ATOM      5  C   UNL     1      35.081 -17.919 -20.591  0.00  0.00    +0.041 C 
ATOM      6  C   UNL     1      33.539 -19.607 -21.680  0.00  0.00    +0.041 C 
ATOM      7  C   UNL     1      35.814 -17.775 -21.926  0.00  0.00    +0.095 C 
ATOM      8  C   UNL     1      34.302 -19.410 -22.990  0.00  0.00    +0.095 C 
ATOM      9  C   UNL     1      34.645 -17.234 -24.119  0.00  0.00    +0.230 C 
BRANCH   4  10
ATOM     10  N   UNL     1      35.370 -20.315 -20.216  0.00  0.00    -0.334 N 
ATOM     11  H   UNL     1      36.042 -20.483 -20.916  0.00  0.00    +0.147 HD
BRANCH  10  13
ATOM     12  F   UNL     1      37.748 -21.959 -16.387  0.00  0.00    -0.204 F 
ATOM     13  C   UNL     1      35.415 -21.085 -19.068  0.00  0.00    +0.047 C 
ATOM     14  C   UNL     1      36.582 -21.142 -18.279  0.00  0.00    +0.044 C 
ATOM     15  C   UNL     1      34.298 -21.835 -18.652  0.00  0.00    +0.014 C 
ATOM     16  C   UNL     1      36.629 -21.919 -17.122  0.00  0.00    +0.141 C 
ATOM     17  C   UNL     1      34.345 -22.613 -17.495  0.00  0.00    +0.004 C 
ATOM     18  C   UNL     1      35.511 -22.654 -16.730  0.00  0.00    +0.030 C 
ENDBRANCH  10  13
ENDBRANCH   4  10
ENDBRANCH   1   9
BRANCH   1  20
ATOM     19  C   UNL     1      32.829 -12.909 -22.349  0.00  0.00    -0.043 C 
ATOM     20  C   UNL     1      34.461 -14.851 -23.497  0.00  0.00    -0.013 C 
ATOM     21  C   UNL     1      32.668 -13.251 -23.692  0.00  0.00    -0.007 C 
ATOM     22  C   UNL     1      33.807 -13.541 -21.581  0.00  0.00    -0.007 C 
ATOM     23  C   UNL     1      33.485 -14.223 -24.267  0.00  0.00    -0.004 C 
ATOM     24  C   UNL     1      34.625 -14.513 -22.156  0.00  0.00    -0.004 C 
BRANCH  19  25
ATOM     25  C   UNL     1      31.956 -11.869 -21.734  0.00  0.00    -0.050 C 
BRANCH  25  26
ATOM     26  N   UNL     1      32.634 -10.580 -21.602  0.00  0.00    +0.387 N 
ATOM     27  N   UNL     1      32.753  -7.699 -21.780  0.00  0.00    +0.382 N 
ATOM     28  C   UNL     1      32.664  -8.374 -20.480  0.00  0.00    -0.083 C 
ATOM     29  C   UNL     1      31.948  -9.728 -20.621  0.00  0.00    -0.099 C 
ATOM     30  C   UNL     1      32.718  -9.901 -22.901  0.00  0.00    -0.101 C 
ATOM     31  C   UNL     1      33.423  -8.551 -22.763  0.00  0.00    -0.105 C 
ATOM     32  C   UNL     1      31.918  -7.470 -19.500  0.00  0.00    -0.026 C 
ATOM     33  H   UNL     1      33.582 -10.755 -21.269  0.00  0.00    -0.079 HD
ATOM     34  H   UNL     1      33.281  -6.834 -21.673  0.00  0.00    -0.085 HD
ATOM     35  H   UNL     1      31.809  -7.501 -22.111  0.00  0.00    -0.085 HD
ENDBRANCH  25  26
ENDBRANCH  19  25
ENDBRANCH   1  20
TORSDOF 6
ENDMDL
MODEL 8
REMARK VINA RESULT:     -10.6      2.912     10.762
REMARK  Name = 15984937
REMARK  6 active torsions:
REMARK  status: ('A' for Active; 'I' for Inactive)
REMARK    1  A    between atoms: C_1  and  C_9
REMARK    2  A    between atoms: C_1  and  C_20
REMARK    3  A    between atoms: C_4  and  N_10
REMARK    4  A    between atoms: N_10  and  C_13
REMARK    5  A    between atoms: C_19  and  C_25
REMARK    6  A    between atoms: C_25  and  N_26
REMARK                            x       y       z     vdW  Elec       q    Type
REMARK                         _______ _______ _______ _____ _____    ______ ____
ROOT
ATOM      1  C   UNL     1      35.467 -21.970 -18.864  0.00  0.00    +0.112 C 
ENDROOT
BRANCH   1   9
ATOM      2  O   UNL     1      37.104 -21.099 -17.389  0.00  0.00    -0.275 OA
ATOM      3  N   UNL     1      35.302 -22.191 -16.408  0.00  0.00    -0.279 N 
ATOM      4  C   UNL     1      34.640 -24.127 -14.340  0.00  0.00    +0.072 C 
ATOM      5  C   UNL     1      34.131 -24.266 -15.779  0.00  0.00    +0.041 C 
ATOM      6  C   UNL     1      35.910 -23.271 -14.276  0.00  0.00    +0.041 C 
ATOM      7  C   UNL     1      34.033 -22.921 -16.499  0.00  0.00    +0.095 C 
ATOM      8  C   UNL     1      35.776 -21.956 -15.044  0.00  0.00    +0.095 C 
ATOM      9  C   UNL     1      36.036 -21.710 -17.492  0.00  0.00    +0.230 C 
BRANCH   4  10
ATOM     10  N   UNL     1      33.604 -23.557 -13.502  0.00  0.00    -0.334 N 
ATOM     11  H   UNL     1      33.876 -22.969 -12.759  0.00  0.00    +0.147 HD
BRANCH  10  13
ATOM     12  F   UNL     1      29.206 -21.988 -14.607  0.00  0.00    -0.204 F 
ATOM     13  C   UNL     1      32.254 -23.793 -13.687  0.00  0.00    +0.047 C 
ATOM     14  C   UNL     1      31.381 -22.753 -14.063  0.00  0.00    +0.044 C 
ATOM     15  C   UNL     1      31.711 -25.080 -13.504  0.00  0.00    +0.014 C 
ATOM     16  C   UNL     1      30.019 -22.992 -14.248  0.00  0.00    +0.141 C 
ATOM     17  C   UNL     1      30.350 -25.319 -13.689  0.00  0.00    +0.004 C 
ATOM     18  C   UNL     1      29.504 -24.273 -14.061  0.00  0.00    +0.030 C 
ENDBRANCH  10  13
ENDBRANCH   4  10
ENDBRANCH   1   9
BRANCH   1  20
ATOM     19  C   UNL     1      35.776 -18.473 -21.313  0.00  0.00    -0.043 C 
ATOM     20  C   UNL     1      35.575 -20.748 -19.720  0.00  0.00    -0.013 C 
ATOM     21  C   UNL     1      34.544 -19.108 -21.156  0.00  0.00    -0.007 C 
ATOM     22  C   UNL     1      36.907 -18.978 -20.672  0.00  0.00    -0.007 C 
ATOM     23  C   UNL     1      34.443 -20.248 -20.358  0.00  0.00    -0.004 C 
ATOM     24  C   UNL     1      36.807 -20.118 -19.874  0.00  0.00    -0.004 C 
BRANCH  19  25
ATOM     25  C   UNL     1      35.884 -17.256 -22.167  0.00  0.00    -0.050 C 
BRANCH  25  26
ATOM     26  N   UNL     1      34.851 -16.267 -21.860  0.00  0.00    +0.387 N 
ATOM     27  N   UNL     1      33.943 -13.598 -21.232  0.00  0.00    +0.382 N 
ATOM     28  C   UNL     1      33.726 -14.177 -22.562  0.00  0.00    -0.083 C 
ATOM     29  C   UNL     1      34.815 -15.215 -22.884  0.00  0.00    -0.099 C 
ATOM     30  C   UNL     1      35.070 -15.682 -20.531  0.00  0.00    -0.101 C 
ATOM     31  C   UNL     1      33.993 -14.644 -20.211  0.00  0.00    -0.105 C 
ATOM     32  C   UNL     1      33.727 -13.056 -23.600  0.00  0.00    -0.026 C 
ATOM     33  H   UNL     1      33.949 -16.744 -21.856  0.00  0.00    -0.079 HD
ATOM     34  H   UNL     1      33.179 -12.958 -21.017  0.00  0.00    -0.085 HD
ATOM     35  H   UNL     1      34.834 -13.101 -21.233  0.00  0.00    -0.085 HD
ENDBRANCH  25  26
ENDBRANCH  19  25
ENDBRANCH   1  20
TORSDOF 6
ENDMDL
MODEL 9
REMARK VINA RESULT:     -10.2      3.570     11.366
REMARK  Name = 15984937
REMARK  6 active torsions:
REMARK  status: ('A' for Active; 'I' for Inactive)
REMARK    1  A    between atoms: C_1  and  C_9
REMARK    2  A    between atoms: C_1  and  C_20
REMARK    3  A    between atoms: C_4  and  N_10
REMARK    4  A    between atoms: N_10  and  C_13
REMARK    5  A    between atoms: C_19  and  C_25
REMARK    6  A    between atoms: C_25  and  N_26
REMARK                            x       y       z     vdW  Elec       q    Type
REMARK                         _______ _______ _______ _____ _____    ______ ____
ROOT
ATOM      1  C   UNL     1      35.901 -20.522 -19.285  0.00  0.00    +0.112 C 
ENDROOT
BRANCH   1   9
ATOM      2  O   UNL     1      33.672 -21.247 -19.635  0.00  0.00    -0.275 OA
ATOM      3  N   UNL     1      34.824 -22.247 -17.882  0.00  0.00    -0.279 N 
ATOM      4  C   UNL     1      34.526 -23.055 -15.103  0.00  0.00    +0.072 C 
ATOM      5  C   UNL     1      35.701 -22.194 -15.579  0.00  0.00    +0.041 C 
ATOM      6  C   UNL     1      33.325 -22.935 -16.048  0.00  0.00    +0.041 C 
ATOM      7  C   UNL     1      36.027 -22.412 -17.058  0.00  0.00    +0.095 C 
ATOM      8  C   UNL     1      33.708 -23.120 -17.516  0.00  0.00    +0.095 C 
ATOM      9  C   UNL     1      34.697 -21.368 -18.957  0.00  0.00    +0.230 C 
BRANCH   4  10
ATOM     10  N   UNL     1      34.942 -24.439 -14.987  0.00  0.00    -0.334 N 
ATOM     11  H   UNL     1      34.659 -25.070 -15.688  0.00  0.00    +0.147 HD
BRANCH  10  13
ATOM     12  F   UNL     1      36.072 -24.517 -10.325  0.00  0.00    -0.204 F 
ATOM     13  C   UNL     1      35.711 -24.921 -13.945  0.00  0.00    +0.047 C 
ATOM     14  C   UNL     1      35.507 -24.472 -12.624  0.00  0.00    +0.044 C 
ATOM     15  C   UNL     1      36.723 -25.875 -14.170  0.00  0.00    +0.014 C 
ATOM     16  C   UNL     1      36.284 -24.957 -11.573  0.00  0.00    +0.141 C 
ATOM     17  C   UNL     1      37.500 -26.361 -13.119  0.00  0.00    +0.004 C 
ATOM     18  C   UNL     1      37.280 -25.901 -11.820  0.00  0.00    +0.030 C 
ENDBRANCH  10  13
ENDBRANCH   4  10
ENDBRANCH   1   9
BRANCH   1  20
ATOM     19  C   UNL     1      35.193 -18.196 -22.808  0.00  0.00    -0.043 C 
ATOM     20  C   UNL     1      35.654 -19.710 -20.517  0.00  0.00    -0.013 C 
ATOM     21  C   UNL     1      34.196 -19.039 -22.317  0.00  0.00    -0.007 C 
ATOM     22  C   UNL     1      36.420 -18.112 -22.152  0.00  0.00    -0.007 C 
ATOM     23  C   UNL     1      34.426 -19.797 -21.169  0.00  0.00    -0.004 C 
ATOM     24  C   UNL     1      36.652 -18.871 -21.004  0.00  0.00    -0.004 C 
BRANCH  19  25
ATOM     25  C   UNL     1      34.947 -17.387 -24.036  0.00  0.00    -0.050 C 
BRANCH  25  26
ATOM     26  N   UNL     1      34.835 -15.958 -23.747  0.00  0.00    +0.387 N 
ATOM     27  N   UNL     1      33.445 -13.629 -22.753  0.00  0.00    +0.382 N 
ATOM     28  C   UNL     1      34.556 -14.224 -22.003  0.00  0.00    -0.083 C 
ATOM     29  C   UNL     1      34.671 -15.728 -22.306  0.00  0.00    -0.099 C 
ATOM     30  C   UNL     1      33.719 -15.362 -24.492  0.00  0.00    -0.101 C 
ATOM     31  C   UNL     1      33.598 -13.868 -24.187  0.00  0.00    -0.105 C 
ATOM     32  C   UNL     1      34.331 -13.991 -20.510  0.00  0.00    -0.026 C 
ATOM     33  H   UNL     1      35.699 -15.506 -24.048  0.00  0.00    -0.079 HD
ATOM     34  H   UNL     1      33.425 -12.624 -22.582  0.00  0.00    -0.085 HD
ATOM     35  H   UNL     1      32.574 -14.060 -22.443  0.00  0.00    -0.085 HD
ENDBRANCH  25  26
ENDBRANCH  19  25
ENDBRANCH   1  20
TORSDOF 6
ENDMDL
