MODEL 1
REMARK VINA RESULT:     -12.2      0.000      0.000
REMARK  Name = 6419766
REMARK  1 active torsions:
REMARK  status: ('A' for Active; 'I' for Inactive)
REMARK    1  A    between atoms: C_9  and  C_20
REMARK                            x       y       z     vdW  Elec       q    Type
REMARK                         _______ _______ _______ _____ _____    ______ ____
ROOT
ATOM      1  N   UNL     1      34.073 -23.994 -14.130  0.00  0.00    -0.274 N 
ATOM      2  N   UNL     1      33.863 -22.881 -16.192  0.00  0.00    -0.328 NA
ATOM      3  N   UNL     1      31.695 -22.523 -17.180  0.00  0.00    -0.343 NA
ATOM      4  N   UNL     1      37.282 -25.073 -14.659  0.00  0.00    -0.239 N 
ATOM      5  N   UNL     1      36.154 -24.563 -15.181  0.00  0.00    -0.166 NA
ATOM      6  C   UNL     1      31.866 -23.661 -15.076  0.00  0.00    +0.143 C 
ATOM      7  C   UNL     1      33.245 -23.496 -15.166  0.00  0.00    +0.185 C 
ATOM      8  C   UNL     1      31.109 -23.142 -16.140  0.00  0.00    +0.133 C 
ATOM      9  C   UNL     1      33.039 -22.426 -17.150  0.00  0.00    +0.138 C 
ATOM     10  C   UNL     1      35.391 -24.480 -14.120  0.00  0.00    +0.152 C 
ATOM     11  C   UNL     1      31.244 -24.307 -13.993  0.00  0.00    -0.011 C 
ATOM     12  C   UNL     1      29.726 -23.288 -16.085  0.00  0.00    +0.029 C 
ATOM     13  C   UNL     1      35.956 -24.908 -12.931  0.00  0.00    +0.048 C 
ATOM     14  C   UNL     1      37.216 -25.299 -13.315  0.00  0.00    +0.046 C 
ATOM     15  C   UNL     1      29.859 -24.439 -13.965  0.00  0.00    -0.004 C 
ATOM     16  C   UNL     1      29.099 -23.930 -15.012  0.00  0.00    +0.002 C 
ATOM     17  C   UNL     1      38.347 -25.855 -12.556  0.00  0.00    +0.049 C 
ATOM     18  H   UNL     1      33.642 -24.000 -13.245  0.00  0.00    +0.156 HD
ATOM     19  H   UNL     1      38.083 -25.267 -15.197  0.00  0.00    +0.174 HD
ENDROOT
BRANCH   9  20
ATOM     20  C   UNL     1      33.658 -21.762 -18.267  0.00  0.00    +0.086 C 
ATOM     21  C   UNL     1      32.893 -20.968 -19.127  0.00  0.00    +0.012 C 
ATOM     22  C   UNL     1      35.030 -21.904 -18.499  0.00  0.00    +0.012 C 
ATOM     23  C   UNL     1      33.493 -20.323 -20.208  0.00  0.00    +0.001 C 
ATOM     24  C   UNL     1      35.630 -21.259 -19.580  0.00  0.00    +0.001 C 
ATOM     25  C   UNL     1      34.862 -20.468 -20.435  0.00  0.00    +0.000 C 
ENDBRANCH   9  20
TORSDOF 1
ENDMDL
MODEL 2
REMARK VINA RESULT:     -11.6      1.438      5.809
REMARK  Name = 6419766
REMARK  1 active torsions:
REMARK  status: ('A' for Active; 'I' for Inactive)
REMARK    1  A    between atoms: C_9  and  C_20
REMARK                            x       y       z     vdW  Elec       q    Type
REMARK                         _______ _______ _______ _____ _____    ______ ____
ROOT
ATOM      1  N   UNL     1      33.577 -22.671 -17.327  0.00  0.00    -0.274 N 
ATOM      2  N   UNL     1      34.892 -23.782 -15.723  0.00  0.00    -0.328 NA
ATOM      3  N   UNL     1      33.913 -24.590 -13.676  0.00  0.00    -0.343 NA
ATOM      4  N   UNL     1      36.167 -20.919 -18.727  0.00  0.00    -0.239 N 
ATOM      5  N   UNL     1      35.719 -21.655 -17.697  0.00  0.00    -0.166 NA
ATOM      6  C   UNL     1      32.537 -23.464 -15.285  0.00  0.00    +0.143 C 
ATOM      7  C   UNL     1      33.675 -23.326 -16.074  0.00  0.00    +0.185 C 
ATOM      8  C   UNL     1      32.711 -24.123 -14.057  0.00  0.00    +0.133 C 
ATOM      9  C   UNL     1      34.938 -24.394 -14.529  0.00  0.00    +0.138 C 
ATOM     10  C   UNL     1      34.492 -21.912 -18.074  0.00  0.00    +0.152 C 
ATOM     11  C   UNL     1      31.275 -22.979 -15.674  0.00  0.00    -0.011 C 
ATOM     12  C   UNL     1      31.594 -24.280 -13.240  0.00  0.00    +0.029 C 
ATOM     13  C   UNL     1      34.110 -21.385 -19.296  0.00  0.00    +0.048 C 
ATOM     14  C   UNL     1      35.242 -20.726 -19.711  0.00  0.00    +0.046 C 
ATOM     15  C   UNL     1      30.178 -23.150 -14.837  0.00  0.00    -0.004 C 
ATOM     16  C   UNL     1      30.336 -23.800 -13.619  0.00  0.00    +0.002 C 
ATOM     17  C   UNL     1      35.537 -19.947 -20.924  0.00  0.00    +0.049 C 
ATOM     18  H   UNL     1      32.697 -22.768 -17.757  0.00  0.00    +0.156 HD
ATOM     19  H   UNL     1      37.079 -20.550 -18.768  0.00  0.00    +0.174 HD
ENDROOT
BRANCH   9  20
ATOM     20  C   UNL     1      36.221 -24.898 -14.114  0.00  0.00    +0.086 C 
ATOM     21  C   UNL     1      37.019 -24.157 -13.238  0.00  0.00    +0.012 C 
ATOM     22  C   UNL     1      36.678 -26.133 -14.583  0.00  0.00    +0.012 C 
ATOM     23  C   UNL     1      38.261 -24.646 -12.834  0.00  0.00    +0.001 C 
ATOM     24  C   UNL     1      37.919 -26.622 -14.180  0.00  0.00    +0.001 C 
ATOM     25  C   UNL     1      38.712 -25.879 -13.304  0.00  0.00    +0.000 C 
ENDBRANCH   9  20
TORSDOF 1
ENDMDL
MODEL 3
REMARK VINA RESULT:     -11.6      1.439      5.812
REMARK  Name = 6419766
REMARK  1 active torsions:
REMARK  status: ('A' for Active; 'I' for Inactive)
REMARK    1  A    between atoms: C_9  and  C_20
REMARK                            x       y       z     vdW  Elec       q    Type
REMARK                         _______ _______ _______ _____ _____    ______ ____
ROOT
ATOM      1  N   UNL     1      33.579 -22.671 -17.332  0.00  0.00    -0.274 N 
ATOM      2  N   UNL     1      34.894 -23.778 -15.725  0.00  0.00    -0.328 NA
ATOM      3  N   UNL     1      33.913 -24.585 -13.678  0.00  0.00    -0.343 NA
ATOM      4  N   UNL     1      36.168 -20.917 -18.732  0.00  0.00    -0.239 N 
ATOM      5  N   UNL     1      35.720 -21.653 -17.701  0.00  0.00    -0.166 NA
ATOM      6  C   UNL     1      32.538 -23.462 -15.290  0.00  0.00    +0.143 C 
ATOM      7  C   UNL     1      33.677 -23.324 -16.078  0.00  0.00    +0.185 C 
ATOM      8  C   UNL     1      32.711 -24.119 -14.061  0.00  0.00    +0.133 C 
ATOM      9  C   UNL     1      34.939 -24.388 -14.530  0.00  0.00    +0.138 C 
ATOM     10  C   UNL     1      34.494 -21.912 -18.079  0.00  0.00    +0.152 C 
ATOM     11  C   UNL     1      31.276 -22.980 -15.681  0.00  0.00    -0.011 C 
ATOM     12  C   UNL     1      31.594 -24.276 -13.245  0.00  0.00    +0.029 C 
ATOM     13  C   UNL     1      34.112 -21.386 -19.302  0.00  0.00    +0.048 C 
ATOM     14  C   UNL     1      35.244 -20.727 -19.717  0.00  0.00    +0.046 C 
ATOM     15  C   UNL     1      30.178 -23.150 -14.845  0.00  0.00    -0.004 C 
ATOM     16  C   UNL     1      30.336 -23.799 -13.626  0.00  0.00    +0.002 C 
ATOM     17  C   UNL     1      35.539 -19.949 -20.931  0.00  0.00    +0.049 C 
ATOM     18  H   UNL     1      32.699 -22.769 -17.763  0.00  0.00    +0.156 HD
ATOM     19  H   UNL     1      37.080 -20.548 -18.772  0.00  0.00    +0.174 HD
ENDROOT
BRANCH   9  20
ATOM     20  C   UNL     1      36.223 -24.890 -14.113  0.00  0.00    +0.086 C 
ATOM     21  C   UNL     1      36.681 -26.126 -14.577  0.00  0.00    +0.012 C 
ATOM     22  C   UNL     1      37.021 -24.142 -13.242  0.00  0.00    +0.012 C 
ATOM     23  C   UNL     1      37.925 -26.611 -14.174  0.00  0.00    +0.001 C 
ATOM     24  C   UNL     1      38.265 -24.626 -12.839  0.00  0.00    +0.001 C 
ATOM     25  C   UNL     1      38.718 -25.861 -13.305  0.00  0.00    +0.000 C 
ENDBRANCH   9  20
TORSDOF 1
ENDMDL
MODEL 4
REMARK VINA RESULT:     -10.9      1.557      5.205
REMARK  Name = 6419766
REMARK  1 active torsions:
REMARK  status: ('A' for Active; 'I' for Inactive)
REMARK    1  A    between atoms: C_9  and  C_20
REMARK                            x       y       z     vdW  Elec       q    Type
REMARK                         _______ _______ _______ _____ _____    ______ ____
ROOT
ATOM      1  N   UNL     1      32.793 -23.894 -15.689  0.00  0.00    -0.274 N 
ATOM      2  N   UNL     1      33.987 -22.561 -17.217  0.00  0.00    -0.328 NA
ATOM      3  N   UNL     1      36.337 -22.135 -16.902  0.00  0.00    -0.343 NA
ATOM      4  N   UNL     1      29.731 -22.511 -16.362  0.00  0.00    -0.239 N 
ATOM      5  N   UNL     1      31.067 -22.422 -16.471  0.00  0.00    -0.166 NA
ATOM      6  C   UNL     1      35.157 -23.499 -15.322  0.00  0.00    +0.143 C 
ATOM      7  C   UNL     1      34.015 -23.298 -16.091  0.00  0.00    +0.185 C 
ATOM      8  C   UNL     1      36.331 -22.878 -15.782  0.00  0.00    +0.133 C 
ATOM      9  C   UNL     1      35.166 -22.016 -17.559  0.00  0.00    +0.138 C 
ATOM     10  C   UNL     1      31.453 -23.510 -15.854  0.00  0.00    +0.152 C 
ATOM     11  C   UNL     1      35.161 -24.275 -14.149  0.00  0.00    -0.011 C 
ATOM     12  C   UNL     1      37.494 -23.057 -15.039  0.00  0.00    +0.029 C 
ATOM     13  C   UNL     1      30.443 -24.309 -15.345  0.00  0.00    +0.048 C 
ATOM     14  C   UNL     1      29.305 -23.622 -15.695  0.00  0.00    +0.046 C 
ATOM     15  C   UNL     1      36.339 -24.436 -13.427  0.00  0.00    -0.004 C 
ATOM     16  C   UNL     1      37.507 -23.826 -13.871  0.00  0.00    +0.002 C 
ATOM     17  C   UNL     1      27.878 -23.904 -15.469  0.00  0.00    +0.049 C 
ATOM     18  H   UNL     1      32.907 -24.740 -15.200  0.00  0.00    +0.156 HD
ATOM     19  H   UNL     1      29.116 -21.836 -16.729  0.00  0.00    +0.174 HD
ENDROOT
BRANCH   9  20
ATOM     20  C   UNL     1      35.182 -21.218 -18.757  0.00  0.00    +0.086 C 
ATOM     21  C   UNL     1      33.993 -20.948 -19.440  0.00  0.00    +0.012 C 
ATOM     22  C   UNL     1      36.388 -20.707 -19.246  0.00  0.00    +0.012 C 
ATOM     23  C   UNL     1      34.008 -20.174 -20.600  0.00  0.00    +0.001 C 
ATOM     24  C   UNL     1      36.404 -19.933 -20.406  0.00  0.00    +0.001 C 
ATOM     25  C   UNL     1      35.214 -19.666 -21.084  0.00  0.00    +0.000 C 
ENDBRANCH   9  20
TORSDOF 1
ENDMDL
MODEL 5
REMARK VINA RESULT:     -10.7      2.091      6.209
REMARK  Name = 6419766
REMARK  1 active torsions:
REMARK  status: ('A' for Active; 'I' for Inactive)
REMARK    1  A    between atoms: C_9  and  C_20
REMARK                            x       y       z     vdW  Elec       q    Type
REMARK                         _______ _______ _______ _____ _____    ______ ____
ROOT
ATOM      1  N   UNL     1      35.981 -22.207 -15.284  0.00  0.00    -0.274 N 
ATOM      2  N   UNL     1      33.897 -23.072 -14.618  0.00  0.00    -0.328 NA
ATOM      3  N   UNL     1      33.682 -24.320 -12.569  0.00  0.00    -0.343 NA
ATOM      4  N   UNL     1      35.249 -22.111 -18.630  0.00  0.00    -0.239 N 
ATOM      5  N   UNL     1      34.926 -22.569 -17.408  0.00  0.00    -0.166 NA
ATOM      6  C   UNL     1      35.824 -23.455 -13.211  0.00  0.00    +0.143 C 
ATOM      7  C   UNL     1      35.207 -22.934 -14.344  0.00  0.00    +0.185 C 
ATOM      8  C   UNL     1      34.994 -24.163 -12.325  0.00  0.00    +0.133 C 
ATOM      9  C   UNL     1      33.204 -23.767 -13.701  0.00  0.00    +0.138 C 
ATOM     10  C   UNL     1      35.867 -22.032 -16.672  0.00  0.00    +0.152 C 
ATOM     11  C   UNL     1      37.196 -23.296 -12.947  0.00  0.00    -0.011 C 
ATOM     12  C   UNL     1      35.576 -24.700 -11.180  0.00  0.00    +0.029 C 
ATOM     13  C   UNL     1      36.789 -21.248 -17.343  0.00  0.00    +0.048 C 
ATOM     14  C   UNL     1      36.357 -21.316 -18.646  0.00  0.00    +0.046 C 
ATOM     15  C   UNL     1      37.749 -23.844 -11.794  0.00  0.00    -0.004 C 
ATOM     16  C   UNL     1      36.939 -24.547 -10.910  0.00  0.00    +0.002 C 
ATOM     17  C   UNL     1      36.874 -20.715 -19.886  0.00  0.00    +0.049 C 
ATOM     18  H   UNL     1      36.747 -21.734 -14.886  0.00  0.00    +0.156 HD
ATOM     19  H   UNL     1      34.733 -22.330 -19.439  0.00  0.00    +0.174 HD
ENDROOT
BRANCH   9  20
ATOM     20  C   UNL     1      31.797 -23.940 -13.954  0.00  0.00    +0.086 C 
ATOM     21  C   UNL     1      31.049 -22.902 -14.517  0.00  0.00    +0.012 C 
ATOM     22  C   UNL     1      31.169 -25.148 -13.639  0.00  0.00    +0.012 C 
ATOM     23  C   UNL     1      29.687 -23.070 -14.763  0.00  0.00    +0.001 C 
ATOM     24  C   UNL     1      29.807 -25.317 -13.885  0.00  0.00    +0.001 C 
ATOM     25  C   UNL     1      29.065 -24.278 -14.448  0.00  0.00    +0.000 C 
ENDBRANCH   9  20
TORSDOF 1
ENDMDL
MODEL 6
REMARK VINA RESULT:     -10.0      1.775      5.239
REMARK  Name = 6419766
REMARK  1 active torsions:
REMARK  status: ('A' for Active; 'I' for Inactive)
REMARK    1  A    between atoms: C_9  and  C_20
REMARK                            x       y       z     vdW  Elec       q    Type
REMARK                         _______ _______ _______ _____ _____    ______ ____
ROOT
ATOM      1  N   UNL     1      33.304 -24.633 -13.647  0.00  0.00    -0.274 N 
ATOM      2  N   UNL     1      34.488 -23.422 -15.281  0.00  0.00    -0.328 NA
ATOM      3  N   UNL     1      36.695 -22.572 -14.823  0.00  0.00    -0.343 NA
ATOM      4  N   UNL     1      30.192 -23.908 -14.885  0.00  0.00    -0.239 N 
ATOM      5  N   UNL     1      31.505 -23.625 -14.875  0.00  0.00    -0.166 NA
ATOM      6  C   UNL     1      35.523 -23.801 -13.131  0.00  0.00    +0.143 C 
ATOM      7  C   UNL     1      34.472 -23.930 -14.035  0.00  0.00    +0.185 C 
ATOM      8  C   UNL     1      36.647 -23.092 -13.584  0.00  0.00    +0.133 C 
ATOM      9  C   UNL     1      35.613 -22.765 -15.604  0.00  0.00    +0.138 C 
ATOM     10  C   UNL     1      31.956 -24.507 -14.018  0.00  0.00    +0.152 C 
ATOM     11  C   UNL     1      35.483 -24.342 -11.833  0.00  0.00    -0.011 C 
ATOM     12  C   UNL     1      37.718 -22.943 -12.708  0.00  0.00    +0.029 C 
ATOM     13  C   UNL     1      31.010 -25.353 -13.465  0.00  0.00    +0.048 C 
ATOM     14  C   UNL     1      29.843 -24.935 -14.057  0.00  0.00    +0.046 C 
ATOM     15  C   UNL     1      36.568 -24.177 -10.978  0.00  0.00    -0.004 C 
ATOM     16  C   UNL     1      37.687 -23.477 -11.415  0.00  0.00    +0.002 C 
ATOM     17  C   UNL     1      28.452 -25.398 -13.924  0.00  0.00    +0.049 C 
ATOM     18  H   UNL     1      33.470 -25.347 -12.991  0.00  0.00    +0.156 HD
ATOM     19  H   UNL     1      29.541 -23.419 -15.438  0.00  0.00    +0.174 HD
ENDROOT
BRANCH   9  20
ATOM     20  C   UNL     1      35.673 -22.205 -16.929  0.00  0.00    +0.086 C 
ATOM     21  C   UNL     1      34.578 -22.316 -17.791  0.00  0.00    +0.012 C 
ATOM     22  C   UNL     1      36.826 -21.544 -17.363  0.00  0.00    +0.012 C 
ATOM     23  C   UNL     1      34.635 -21.772 -19.074  0.00  0.00    +0.001 C 
ATOM     24  C   UNL     1      36.884 -21.000 -18.645  0.00  0.00    +0.001 C 
ATOM     25  C   UNL     1      35.788 -21.113 -19.502  0.00  0.00    +0.000 C 
ENDBRANCH   9  20
TORSDOF 1
ENDMDL
