MODEL 1
REMARK VINA RESULT:     -11.1      0.000      0.000
REMARK  Name = 10224714
REMARK  8 active torsions:
REMARK  status: ('A' for Active; 'I' for Inactive)
REMARK    1  A    between atoms: N_1  and  C_12
REMARK    2  A    between atoms: N_2  and  CA_30
REMARK    3  A    between atoms: N_15  and  C_17
REMARK    4  A    between atoms: C_17  and  C_18
REMARK    5  A    between atoms: C_21  and  C_25
REMARK    6  A    between atoms: CA_30  and  C_31
REMARK    7  A    between atoms: CA_30  and  C_33
REMARK    8  A    between atoms: C_33  and  O_34
REMARK                            x       y       z     vdW  Elec       q    Type
REMARK                         _______ _______ _______ _____ _____    ______ ____
ROOT
ATOM      1  N   UNL     1      36.370 -23.195 -13.367  0.00  0.00    -0.262 N 
ATOM      2  N   UNL     1      31.920 -23.995 -14.825  0.00  0.00    -0.258 N 
ATOM      3  N   UNL     1      34.050 -23.660 -13.915  0.00  0.00    -0.311 NA
ATOM      4  N   UNL     1      37.112 -22.544 -15.366  0.00  0.00    -0.240 NA
ATOM      5  N   UNL     1      33.594 -23.232 -16.274  0.00  0.00    -0.311 NA
ATOM      6  C   UNL     1      35.299 -23.274 -14.212  0.00  0.00    +0.220 C 
ATOM      7  C   UNL     1      35.781 -22.866 -15.445  0.00  0.00    +0.167 C 
ATOM      8  C   UNL     1      34.875 -22.854 -16.501  0.00  0.00    +0.215 C 
ATOM      9  C   UNL     1      33.235 -23.615 -15.011  0.00  0.00    +0.202 C 
ATOM     10  C   UNL     1      37.435 -22.753 -14.106  0.00  0.00    +0.222 C 
ATOM     11  H   UNL     1      31.314 -23.969 -15.600  0.00  0.00    +0.160 HD
ATOM     12  N   UNL     1      35.277 -22.456 -17.788  0.00  0.00    -0.302 N 
ATOM     13  H   UNL     1      36.214 -22.186 -17.925  0.00  0.00    +0.150 HD
ENDROOT
BRANCH   1  14
ATOM     14  C   UNL     1      36.386 -23.515 -11.960  0.00  0.00    +0.077 C 
ATOM     15  C   UNL     1      36.441 -25.025 -11.716  0.00  0.00    +0.022 C 
ATOM     16  C   UNL     1      37.506 -22.783 -11.218  0.00  0.00    +0.022 C 
ENDBRANCH   1  14
BRANCH  12  17
ATOM     17  C   UNL     1      34.386 -22.425 -18.910  0.00  0.00    +0.116 C 
BRANCH  17  18
ATOM     18  C   UNL     1      34.521 -21.123 -19.653  0.00  0.00    -0.003 C 
ATOM     19  C   UNL     1      33.380 -20.462 -20.088  0.00  0.00    -0.003 C 
ATOM     20  C   UNL     1      35.784 -20.601 -19.894  0.00  0.00    -0.003 C 
ATOM     21  C   UNL     1      34.770 -18.721 -21.024  0.00  0.00    +0.018 C 
ATOM     22  C   UNL     1      33.505 -19.256 -20.777  0.00  0.00    +0.001 C 
ATOM     23  C   UNL     1      35.909 -19.393 -20.583  0.00  0.00    +0.001 C 
BRANCH  21  25
ATOM     24  N   UNL     1      34.922 -16.369 -20.956  0.00  0.00    -0.244 NA
ATOM     25  C   UNL     1      34.898 -17.470 -21.739  0.00  0.00    +0.081 C 
ATOM     26  C   UNL     1      34.985 -17.447 -23.120  0.00  0.00    +0.019 C 
ATOM     27  C   UNL     1      35.108 -16.209 -23.741  0.00  0.00    +0.003 C 
ATOM     28  C   UNL     1      35.042 -15.184 -21.595  0.00  0.00    +0.099 C 
ATOM     29  C   UNL     1      35.137 -15.051 -22.972  0.00  0.00    +0.021 C 
ENDBRANCH  21  25
ENDBRANCH  17  18
ENDBRANCH  12  17
BRANCH   2  30
ATOM     30  CA  UNL     1      31.384 -24.430 -13.548  0.00  0.00    +0.109 C 
BRANCH  30  31
ATOM     31  C   UNL     1      30.191 -25.365 -13.776  0.00  0.00    +0.023 C 
ATOM     32  C   UNL     1      29.061 -24.700 -14.551  0.00  0.00    +0.002 C 
ENDBRANCH  30  31
BRANCH  30  33
ATOM     33  C   UNL     1      30.966 -23.198 -12.746  0.00  0.00    +0.157 C 
BRANCH  33  34
ATOM     34  O   UNL     1      32.061 -22.759 -11.949  0.00  0.00    -0.380 OA
ATOM     35  H   UNL     1      31.760 -22.071 -11.335  0.00  0.00    +0.211 HD
ENDBRANCH  33  34
ENDBRANCH  30  33
ENDBRANCH   2  30
TORSDOF 8
ENDMDL
