MODEL 1
REMARK VINA RESULT:     -12.6      0.000      0.000
REMARK  Name = 9999276
REMARK  5 active torsions:
REMARK  status: ('A' for Active; 'I' for Inactive)
REMARK    1  A    between atoms: C_3  and  C_11
REMARK    2  A    between atoms: C_6  and  C_20
REMARK    3  A    between atoms: C_14  and  N_19
REMARK    4  A    between atoms: C_25  and  C_27
REMARK    5  A    between atoms: C_27  and  O_28
REMARK                            x       y       z     vdW  Elec       q    Type
REMARK                         _______ _______ _______ _____ _____    ______ ____
ROOT
ATOM      1  N   UNL     1      34.858 -23.052 -16.149  0.00  0.00    -0.400 NA
ATOM      2  N   UNL     1      33.012 -24.828 -13.548  0.00  0.00    -0.242 NA
ATOM      3  C   UNL     1      34.532 -23.778 -15.054  0.00  0.00    +0.149 C 
ATOM      4  C   UNL     1      33.244 -24.097 -14.656  0.00  0.00    +0.107 C 
ATOM      5  C   UNL     1      32.205 -23.615 -15.471  0.00  0.00    +0.005 C 
ATOM      6  C   UNL     1      33.831 -22.611 -16.902  0.00  0.00    +0.131 C 
ATOM      7  C   UNL     1      32.502 -22.860 -16.612  0.00  0.00    +0.030 C 
ATOM      8  C   UNL     1      30.887 -23.916 -15.102  0.00  0.00    +0.056 C 
ATOM      9  C   UNL     1      30.638 -24.669 -13.962  0.00  0.00    -0.001 C 
ATOM     10  C   UNL     1      31.725 -25.097 -13.227  0.00  0.00    +0.095 C 
ENDROOT
BRANCH   3  11
ATOM     11  C   UNL     1      35.687 -24.218 -14.297  0.00  0.00    +0.033 C 
ATOM     12  C   UNL     1      36.187 -23.423 -13.267  0.00  0.00    +0.027 C 
ATOM     13  C   UNL     1      36.296 -25.434 -14.602  0.00  0.00    +0.003 C 
ATOM     14  C   UNL     1      37.298 -23.847 -12.538  0.00  0.00    +0.143 C 
ATOM     15  C   UNL     1      37.408 -25.858 -13.874  0.00  0.00    +0.002 C 
ATOM     16  C   UNL     1      37.910 -25.063 -12.843  0.00  0.00    +0.024 C 
BRANCH  14  19
ATOM     17  O   UNL     1      39.037 -23.079 -11.240  0.00  0.00    -0.126 OA
ATOM     18  O   UNL     1      37.015 -22.313 -10.845  0.00  0.00    -0.126 OA
ATOM     19  N   UNL     1      37.809 -23.039 -11.488  0.00  0.00    +0.058 N 
ENDBRANCH  14  19
ENDBRANCH   3  11
BRANCH   6  20
ATOM     20  C   UNL     1      34.210 -21.839 -18.062  0.00  0.00    +0.030 C 
ATOM     21  C   UNL     1      35.559 -21.667 -18.381  0.00  0.00    +0.003 C 
ATOM     22  C   UNL     1      33.228 -21.259 -18.868  0.00  0.00    +0.003 C 
ATOM     23  C   UNL     1      35.925 -20.922 -19.502  0.00  0.00    +0.007 C 
ATOM     24  C   UNL     1      33.594 -20.513 -19.989  0.00  0.00    +0.007 C 
ATOM     25  C   UNL     1      34.941 -20.344 -20.305  0.00  0.00    +0.075 C 
BRANCH  25  27
ATOM     26  O   UNL     1      34.862 -19.712 -22.612  0.00  0.00    -0.245 OA
ATOM     27  C   UNL     1      35.321 -19.566 -21.474  0.00  0.00    +0.338 C 
BRANCH  27  28
ATOM     28  O   UNL     1      36.264 -18.626 -21.190  0.00  0.00    -0.477 OA
ATOM     29  H   UNL     1      36.522 -18.007 -21.844  0.00  0.00    +0.295 HD
ENDBRANCH  27  28
ENDBRANCH  25  27
ENDBRANCH   6  20
TORSDOF 5
ENDMDL
MODEL 2
REMARK VINA RESULT:     -12.2      1.644      1.937
REMARK  Name = 9999276
REMARK  5 active torsions:
REMARK  status: ('A' for Active; 'I' for Inactive)
REMARK    1  A    between atoms: C_3  and  C_11
REMARK    2  A    between atoms: C_6  and  C_20
REMARK    3  A    between atoms: C_14  and  N_19
REMARK    4  A    between atoms: C_25  and  C_27
REMARK    5  A    between atoms: C_27  and  O_28
REMARK                            x       y       z     vdW  Elec       q    Type
REMARK                         _______ _______ _______ _____ _____    ______ ____
ROOT
ATOM      1  N   UNL     1      34.867 -22.844 -16.243  0.00  0.00    -0.400 NA
ATOM      2  N   UNL     1      33.077 -24.670 -13.637  0.00  0.00    -0.242 NA
ATOM      3  C   UNL     1      34.562 -23.557 -15.133  0.00  0.00    +0.149 C 
ATOM      4  C   UNL     1      33.289 -23.959 -14.762  0.00  0.00    +0.107 C 
ATOM      5  C   UNL     1      32.243 -23.585 -15.623  0.00  0.00    +0.005 C 
ATOM      6  C   UNL     1      33.834 -22.506 -17.040  0.00  0.00    +0.131 C 
ATOM      7  C   UNL     1      32.519 -22.847 -16.781  0.00  0.00    +0.030 C 
ATOM      8  C   UNL     1      30.941 -23.973 -15.283  0.00  0.00    +0.056 C 
ATOM      9  C   UNL     1      30.712 -24.705 -14.126  0.00  0.00    -0.001 C 
ATOM     10  C   UNL     1      31.804 -25.025 -13.344  0.00  0.00    +0.095 C 
ENDROOT
BRANCH   3  11
ATOM     11  C   UNL     1      35.721 -23.883 -14.328  0.00  0.00    +0.033 C 
ATOM     12  C   UNL     1      36.479 -25.013 -14.626  0.00  0.00    +0.027 C 
ATOM     13  C   UNL     1      36.075 -23.065 -13.256  0.00  0.00    +0.003 C 
ATOM     14  C   UNL     1      37.596 -25.327 -13.851  0.00  0.00    +0.143 C 
ATOM     15  C   UNL     1      37.191 -23.378 -12.480  0.00  0.00    +0.002 C 
ATOM     16  C   UNL     1      37.951 -24.509 -12.777  0.00  0.00    +0.024 C 
BRANCH  14  19
ATOM     17  O   UNL     1      39.619 -26.373 -14.183  0.00  0.00    -0.126 OA
ATOM     18  O   UNL     1      37.779 -27.560 -14.378  0.00  0.00    -0.126 OA
ATOM     19  N   UNL     1      38.370 -26.478 -14.153  0.00  0.00    +0.058 N 
ENDBRANCH  14  19
ENDBRANCH   3  11
BRANCH   6  20
ATOM     20  C   UNL     1      34.191 -21.746 -18.214  0.00  0.00    +0.030 C 
ATOM     21  C   UNL     1      35.532 -21.596 -18.574  0.00  0.00    +0.003 C 
ATOM     22  C   UNL     1      33.195 -21.154 -18.995  0.00  0.00    +0.003 C 
ATOM     23  C   UNL     1      35.876 -20.862 -19.709  0.00  0.00    +0.007 C 
ATOM     24  C   UNL     1      33.539 -20.419 -20.130  0.00  0.00    +0.007 C 
ATOM     25  C   UNL     1      34.879 -20.273 -20.486  0.00  0.00    +0.075 C 
BRANCH  25  27
ATOM     26  O   UNL     1      34.649 -19.550 -22.755  0.00  0.00    -0.245 OA
ATOM     27  C   UNL     1      35.236 -19.506 -21.669  0.00  0.00    +0.338 C 
BRANCH  27  28
ATOM     28  O   UNL     1      36.317 -18.705 -21.463  0.00  0.00    -0.477 OA
ATOM     29  H   UNL     1      36.382 -18.196 -20.679  0.00  0.00    +0.295 HD
ENDBRANCH  27  28
ENDBRANCH  25  27
ENDBRANCH   6  20
TORSDOF 5
ENDMDL
MODEL 3
REMARK VINA RESULT:     -11.3      3.237      5.272
REMARK  Name = 9999276
REMARK  5 active torsions:
REMARK  status: ('A' for Active; 'I' for Inactive)
REMARK    1  A    between atoms: C_3  and  C_11
REMARK    2  A    between atoms: C_6  and  C_20
REMARK    3  A    between atoms: C_14  and  N_19
REMARK    4  A    between atoms: C_25  and  C_27
REMARK    5  A    between atoms: C_27  and  O_28
REMARK                            x       y       z     vdW  Elec       q    Type
REMARK                         _______ _______ _______ _____ _____    ______ ____
ROOT
ATOM      1  N   UNL     1      33.503 -22.646 -16.700  0.00  0.00    -0.400 NA
ATOM      2  N   UNL     1      34.428 -24.423 -13.649  0.00  0.00    -0.242 NA
ATOM      3  C   UNL     1      33.462 -23.355 -15.547  0.00  0.00    +0.149 C 
ATOM      4  C   UNL     1      34.563 -23.716 -14.787  0.00  0.00    +0.107 C 
ATOM      5  C   UNL     1      35.815 -23.302 -15.272  0.00  0.00    +0.005 C 
ATOM      6  C   UNL     1      34.724 -22.269 -17.128  0.00  0.00    +0.131 C 
ATOM      7  C   UNL     1      35.899 -22.567 -16.461  0.00  0.00    +0.030 C 
ATOM      8  C   UNL     1      36.954 -23.647 -14.531  0.00  0.00    +0.056 C 
ATOM      9  C   UNL     1      36.825 -24.376 -13.357  0.00  0.00    -0.001 C 
ATOM     10  C   UNL     1      35.552 -24.736 -12.962  0.00  0.00    +0.095 C 
ENDROOT
BRANCH   3  11
ATOM     11  C   UNL     1      32.118 -23.722 -15.151  0.00  0.00    +0.033 C 
ATOM     12  C   UNL     1      31.031 -23.326 -15.928  0.00  0.00    +0.027 C 
ATOM     13  C   UNL     1      31.915 -24.471 -13.992  0.00  0.00    +0.003 C 
ATOM     14  C   UNL     1      29.737 -23.680 -15.546  0.00  0.00    +0.143 C 
ATOM     15  C   UNL     1      30.621 -24.825 -13.611  0.00  0.00    +0.002 C 
ATOM     16  C   UNL     1      29.532 -24.428 -14.387  0.00  0.00    +0.024 C 
BRANCH  14  19
ATOM     17  O   UNL     1      28.494 -22.060 -16.610  0.00  0.00    -0.126 OA
ATOM     18  O   UNL     1      27.822 -24.149 -16.735  0.00  0.00    -0.126 OA
ATOM     19  N   UNL     1      28.628 -23.276 -16.337  0.00  0.00    +0.058 N 
ENDBRANCH  14  19
ENDBRANCH   3  11
BRANCH   6  20
ATOM     20  C   UNL     1      34.735 -21.517 -18.360  0.00  0.00    +0.030 C 
ATOM     21  C   UNL     1      33.534 -21.151 -18.971  0.00  0.00    +0.003 C 
ATOM     22  C   UNL     1      35.950 -21.152 -18.947  0.00  0.00    +0.003 C 
ATOM     23  C   UNL     1      33.545 -20.423 -20.160  0.00  0.00    +0.007 C 
ATOM     24  C   UNL     1      35.961 -20.424 -20.137  0.00  0.00    +0.007 C 
ATOM     25  C   UNL     1      34.760 -20.060 -20.743  0.00  0.00    +0.075 C 
BRANCH  25  27
ATOM     26  O   UNL     1      33.851 -19.256 -22.806  0.00  0.00    -0.245 OA
ATOM     27  C   UNL     1      34.773 -19.302 -21.985  0.00  0.00    +0.338 C 
BRANCH  27  28
ATOM     28  O   UNL     1      35.937 -18.620 -22.166  0.00  0.00    -0.477 OA
ATOM     29  H   UNL     1      36.685 -18.819 -21.637  0.00  0.00    +0.295 HD
ENDBRANCH  27  28
ENDBRANCH  25  27
ENDBRANCH   6  20
TORSDOF 5
ENDMDL
MODEL 4
REMARK VINA RESULT:     -10.1      2.150      6.997
REMARK  Name = 9999276
REMARK  5 active torsions:
REMARK  status: ('A' for Active; 'I' for Inactive)
REMARK    1  A    between atoms: C_3  and  C_11
REMARK    2  A    between atoms: C_6  and  C_20
REMARK    3  A    between atoms: C_14  and  N_19
REMARK    4  A    between atoms: C_25  and  C_27
REMARK    5  A    between atoms: C_27  and  O_28
REMARK                            x       y       z     vdW  Elec       q    Type
REMARK                         _______ _______ _______ _____ _____    ______ ____
ROOT
ATOM      1  N   UNL     1      34.880 -23.066 -16.482  0.00  0.00    -0.400 NA
ATOM      2  N   UNL     1      31.276 -22.528 -16.693  0.00  0.00    -0.242 NA
ATOM      3  C   UNL     1      33.649 -22.660 -16.871  0.00  0.00    +0.149 C 
ATOM      4  C   UNL     1      32.460 -22.979 -16.235  0.00  0.00    +0.107 C 
ATOM      5  C   UNL     1      32.565 -23.793 -15.094  0.00  0.00    +0.005 C 
ATOM      6  C   UNL     1      34.935 -23.845 -15.383  0.00  0.00    +0.131 C 
ATOM      7  C   UNL     1      33.822 -24.234 -14.660  0.00  0.00    +0.030 C 
ATOM      8  C   UNL     1      31.385 -24.138 -14.422  0.00  0.00    +0.056 C 
ATOM      9  C   UNL     1      30.160 -23.679 -14.887  0.00  0.00    -0.001 C 
ATOM     10  C   UNL     1      30.160 -22.884 -16.016  0.00  0.00    +0.095 C 
ENDROOT
BRANCH   3  11
ATOM     11  C   UNL     1      33.672 -21.827 -18.056  0.00  0.00    +0.033 C 
ATOM     12  C   UNL     1      34.885 -21.356 -18.552  0.00  0.00    +0.027 C 
ATOM     13  C   UNL     1      32.477 -21.498 -18.697  0.00  0.00    +0.003 C 
ATOM     14  C   UNL     1      34.907 -20.555 -19.694  0.00  0.00    +0.143 C 
ATOM     15  C   UNL     1      32.499 -20.696 -19.838  0.00  0.00    +0.002 C 
ATOM     16  C   UNL     1      33.713 -20.223 -20.336  0.00  0.00    +0.024 C 
BRANCH  14  19
ATOM     17  O   UNL     1      37.206 -20.456 -19.658  0.00  0.00    -0.126 OA
ATOM     18  O   UNL     1      36.129 -19.285 -21.174  0.00  0.00    -0.126 OA
ATOM     19  N   UNL     1      36.143 -20.074 -20.201  0.00  0.00    +0.058 N 
ENDBRANCH  14  19
ENDBRANCH   3  11
BRANCH   6  20
ATOM     20  C   UNL     1      36.261 -24.262 -14.994  0.00  0.00    +0.030 C 
ATOM     21  C   UNL     1      36.487 -25.571 -14.561  0.00  0.00    +0.003 C 
ATOM     22  C   UNL     1      37.324 -23.357 -15.047  0.00  0.00    +0.003 C 
ATOM     23  C   UNL     1      37.768 -25.974 -14.187  0.00  0.00    +0.007 C 
ATOM     24  C   UNL     1      38.606 -23.761 -14.672  0.00  0.00    +0.007 C 
ATOM     25  C   UNL     1      38.828 -25.068 -14.242  0.00  0.00    +0.075 C 
BRANCH  25  27
ATOM     26  O   UNL     1      40.437 -26.515 -13.221  0.00  0.00    -0.245 OA
ATOM     27  C   UNL     1      40.165 -25.487 -13.850  0.00  0.00    +0.338 C 
BRANCH  27  28
ATOM     28  O   UNL     1      41.124 -24.612 -14.257  0.00  0.00    -0.477 OA
ATOM     29  H   UNL     1      41.574 -24.752 -15.067  0.00  0.00    +0.295 HD
ENDBRANCH  27  28
ENDBRANCH  25  27
ENDBRANCH   6  20
TORSDOF 5
ENDMDL
MODEL 5
REMARK VINA RESULT:      -9.9      2.364      4.527
REMARK  Name = 9999276
REMARK  5 active torsions:
REMARK  status: ('A' for Active; 'I' for Inactive)
REMARK    1  A    between atoms: C_3  and  C_11
REMARK    2  A    between atoms: C_6  and  C_20
REMARK    3  A    between atoms: C_14  and  N_19
REMARK    4  A    between atoms: C_25  and  C_27
REMARK    5  A    between atoms: C_27  and  O_28
REMARK                            x       y       z     vdW  Elec       q    Type
REMARK                         _______ _______ _______ _____ _____    ______ ____
ROOT
ATOM      1  N   UNL     1      34.205 -21.997 -17.350  0.00  0.00    -0.400 NA
ATOM      2  N   UNL     1      35.245 -23.831 -14.370  0.00  0.00    -0.242 NA
ATOM      3  C   UNL     1      34.207 -22.722 -16.206  0.00  0.00    +0.149 C 
ATOM      4  C   UNL     1      35.337 -23.110 -15.504  0.00  0.00    +0.107 C 
ATOM      5  C   UNL     1      36.571 -22.707 -16.042  0.00  0.00    +0.005 C 
ATOM      6  C   UNL     1      35.410 -21.632 -17.830  0.00  0.00    +0.131 C 
ATOM      7  C   UNL     1      36.610 -21.957 -17.224  0.00  0.00    +0.030 C 
ATOM      8  C   UNL     1      37.738 -23.080 -15.362  0.00  0.00    +0.056 C 
ATOM      9  C   UNL     1      37.654 -23.824 -14.192  0.00  0.00    -0.001 C 
ATOM     10  C   UNL     1      36.396 -24.171 -13.742  0.00  0.00    +0.095 C 
ENDROOT
BRANCH   3  11
ATOM     11  C   UNL     1      32.878 -23.075 -15.751  0.00  0.00    +0.033 C 
ATOM     12  C   UNL     1      32.690 -23.558 -14.458  0.00  0.00    +0.027 C 
ATOM     13  C   UNL     1      31.788 -22.931 -16.610  0.00  0.00    +0.003 C 
ATOM     14  C   UNL     1      31.410 -23.898 -14.021  0.00  0.00    +0.143 C 
ATOM     15  C   UNL     1      30.508 -23.270 -16.173  0.00  0.00    +0.002 C 
ATOM     16  C   UNL     1      30.319 -23.755 -14.879  0.00  0.00    +0.024 C 
BRANCH  14  19
ATOM     17  O   UNL     1      31.713 -25.501 -12.397  0.00  0.00    -0.126 OA
ATOM     18  O   UNL     1      30.559 -23.700 -11.891  0.00  0.00    -0.126 OA
ATOM     19  N   UNL     1      31.217 -24.391 -12.703  0.00  0.00    +0.058 N 
ENDBRANCH  14  19
ENDBRANCH   3  11
BRANCH   6  20
ATOM     20  C   UNL     1      35.374 -20.863 -19.051  0.00  0.00    +0.030 C 
ATOM     21  C   UNL     1      36.550 -20.321 -19.575  0.00  0.00    +0.003 C 
ATOM     22  C   UNL     1      34.161 -20.654 -19.712  0.00  0.00    +0.003 C 
ATOM     23  C   UNL     1      36.515 -19.579 -20.755  0.00  0.00    +0.007 C 
ATOM     24  C   UNL     1      34.126 -19.911 -20.893  0.00  0.00    +0.007 C 
ATOM     25  C   UNL     1      35.302 -19.373 -21.413  0.00  0.00    +0.075 C 
BRANCH  25  27
ATOM     26  O   UNL     1      34.525 -18.821 -23.608  0.00  0.00    -0.245 OA
ATOM     27  C   UNL     1      35.264 -18.598 -22.643  0.00  0.00    +0.338 C 
BRANCH  27  28
ATOM     28  O   UNL     1      36.150 -17.564 -22.634  0.00  0.00    -0.477 OA
ATOM     29  H   UNL     1      35.941 -16.763 -23.073  0.00  0.00    +0.295 HD
ENDBRANCH  27  28
ENDBRANCH  25  27
ENDBRANCH   6  20
TORSDOF 5
ENDMDL
