MODEL 1
REMARK VINA RESULT:     -11.3      0.000      0.000
REMARK  Name = 5288017
REMARK  6 active torsions:
REMARK  status: ('A' for Active; 'I' for Inactive)
REMARK    1  A    between atoms: C_4  and  C_15
REMARK    2  A    between atoms: C_10  and  N_22
REMARK    3  A    between atoms: C_23  and  C_25
REMARK    4  A    between atoms: C_25  and  N_26
REMARK    5  A    between atoms: C_27  and  C_33
REMARK    6  A    between atoms: C_33  and  N_34
REMARK                            x       y       z     vdW  Elec       q    Type
REMARK                         _______ _______ _______ _____ _____    ______ ____
ROOT
ATOM      1  O   UNL     1      33.338 -23.395 -16.208  0.00  0.00    -0.286 OA
ATOM      2  N   UNL     1      37.166 -21.461 -17.437  0.00  0.00    -0.280 N 
ATOM      3  N   UNL     1      37.702 -21.818 -16.236  0.00  0.00    -0.173 NA
ATOM      4  C   UNL     1      35.853 -21.848 -17.620  0.00  0.00    +0.056 A 
ATOM      5  C   UNL     1      35.532 -22.490 -16.465  0.00  0.00    +0.071 A 
ATOM      6  C   UNL     1      36.684 -22.444 -15.664  0.00  0.00    +0.105 A 
ATOM      7  C   UNL     1      34.460 -23.179 -15.800  0.00  0.00    +0.199 C 
ATOM      8  C   UNL     1      35.070 -23.564 -14.478  0.00  0.00    +0.054 C 
ATOM      9  C   UNL     1      36.416 -23.106 -14.425  0.00  0.00    +0.024 C 
ATOM     10  C   UNL     1      34.514 -24.241 -13.431  0.00  0.00    +0.053 C 
ATOM     11  C   UNL     1      37.209 -23.327 -13.322  0.00  0.00    +0.002 C 
ATOM     12  C   UNL     1      35.293 -24.476 -12.308  0.00  0.00    +0.015 C 
ATOM     13  C   UNL     1      36.630 -24.023 -12.254  0.00  0.00    +0.001 C 
ATOM     14  H   UNL     1      37.674 -20.967 -18.120  0.00  0.00    +0.189 HD
ENDROOT
BRANCH   4  15
ATOM     15  C   UNL     1      35.077 -21.544 -18.893  0.00  0.00    +0.040 C 
ATOM     16  C   UNL     1      33.603 -21.218 -18.601  0.00  0.00    +0.006 C 
ATOM     17  C   UNL     1      35.742 -20.426 -19.715  0.00  0.00    +0.006 C 
ATOM     18  C   UNL     1      32.831 -20.923 -19.886  0.00  0.00    +0.000 C 
ATOM     19  C   UNL     1      34.960 -20.136 -20.995  0.00  0.00    +0.000 C 
ATOM     20  C   UNL     1      33.496 -19.817 -20.702  0.00  0.00    +0.000 C 
ENDBRANCH   4  15
BRANCH  10  22
ATOM     21  O   UNL     1      32.030 -23.112 -12.182  0.00  0.00    -0.277 OA
ATOM     22  N   UNL     1      33.177 -24.704 -13.470  0.00  0.00    -0.286 N 
ATOM     23  C   UNL     1      32.060 -24.129 -12.868  0.00  0.00    +0.205 C 
ATOM     24  H   UNL     1      33.017 -25.528 -13.985  0.00  0.00    +0.155 HD
BRANCH  23  25
ATOM     25  C   UNL     1      30.820 -24.952 -13.167  0.00  0.00    +0.010 C 
BRANCH  25  26
ATOM     26  N   UNL     1      30.154 -24.416 -14.354  0.00  0.00    +0.393 N 
ATOM     27  C   UNL     1      27.977 -23.086 -15.800  0.00  0.00    -0.026 C 
ATOM     28  C   UNL     1      29.298 -22.381 -15.472  0.00  0.00    -0.025 C 
ATOM     29  C   UNL     1      28.199 -24.601 -15.860  0.00  0.00    -0.025 C 
ATOM     30  C   UNL     1      29.946 -22.967 -14.216  0.00  0.00    -0.077 C 
ATOM     31  C   UNL     1      28.882 -25.113 -14.590  0.00  0.00    -0.077 C 
ATOM     32  H   UNL     1      30.754 -24.572 -15.163  0.00  0.00    -0.079 HD
BRANCH  27  33
ATOM     33  C   UNL     1      27.388 -22.565 -17.108  0.00  0.00    -0.086 C 
BRANCH  33  34
ATOM     34  N   UNL     1      26.308 -21.624 -16.853  0.00  0.00    +0.380 N 
ATOM     35  H   UNL     1      25.488 -22.130 -16.518  0.00  0.00    -0.089 HD
ATOM     36  H   UNL     1      26.074 -21.131 -17.715  0.00  0.00    -0.089 HD
ATOM     37  H   UNL     1      26.603 -20.951 -16.146  0.00  0.00    -0.089 HD
ENDBRANCH  33  34
ENDBRANCH  27  33
ENDBRANCH  25  26
ENDBRANCH  23  25
ENDBRANCH  10  22
TORSDOF 6
ENDMDL
MODEL 2
REMARK VINA RESULT:     -11.2      9.311     13.509
REMARK  Name = 5288017
REMARK  6 active torsions:
REMARK  status: ('A' for Active; 'I' for Inactive)
REMARK    1  A    between atoms: C_4  and  C_15
REMARK    2  A    between atoms: C_10  and  N_22
REMARK    3  A    between atoms: C_23  and  C_25
REMARK    4  A    between atoms: C_25  and  N_26
REMARK    5  A    between atoms: C_27  and  C_33
REMARK    6  A    between atoms: C_33  and  N_34
REMARK                            x       y       z     vdW  Elec       q    Type
REMARK                         _______ _______ _______ _____ _____    ______ ____
ROOT
ATOM      1  O   UNL     1      34.146 -14.354 -21.380  0.00  0.00    -0.286 OA
ATOM      2  N   UNL     1      34.885 -17.701 -24.237  0.00  0.00    -0.280 N 
ATOM      3  N   UNL     1      34.582 -16.858 -25.263  0.00  0.00    -0.173 NA
ATOM      4  C   UNL     1      34.811 -17.131 -22.981  0.00  0.00    +0.056 A 
ATOM      5  C   UNL     1      34.437 -15.846 -23.222  0.00  0.00    +0.071 A 
ATOM      6  C   UNL     1      34.312 -15.734 -24.615  0.00  0.00    +0.105 A 
ATOM      7  C   UNL     1      34.134 -14.602 -22.568  0.00  0.00    +0.199 C 
ATOM      8  C   UNL     1      33.802 -13.685 -23.716  0.00  0.00    +0.054 C 
ATOM      9  C   UNL     1      33.918 -14.398 -24.942  0.00  0.00    +0.024 C 
ATOM     10  C   UNL     1      33.437 -12.370 -23.697  0.00  0.00    +0.053 C 
ATOM     11  C   UNL     1      33.669 -13.794 -26.152  0.00  0.00    +0.002 C 
ATOM     12  C   UNL     1      33.180 -11.738 -24.905  0.00  0.00    +0.015 C 
ATOM     13  C   UNL     1      33.296 -12.445 -26.123  0.00  0.00    +0.001 C 
ATOM     14  H   UNL     1      35.138 -18.641 -24.379  0.00  0.00    +0.189 HD
ENDROOT
BRANCH   4  15
ATOM     15  C   UNL     1      35.113 -17.907 -21.708  0.00  0.00    +0.040 C 
ATOM     16  C   UNL     1      34.208 -19.141 -21.562  0.00  0.00    +0.006 C 
ATOM     17  C   UNL     1      36.599 -18.293 -21.611  0.00  0.00    +0.006 C 
ATOM     18  C   UNL     1      34.513 -19.909 -20.276  0.00  0.00    +0.000 C 
ATOM     19  C   UNL     1      36.892 -19.064 -20.325  0.00  0.00    +0.000 C 
ATOM     20  C   UNL     1      35.989 -20.285 -20.182  0.00  0.00    +0.000 C 
ENDBRANCH   4  15
BRANCH  10  22
ATOM     21  O   UNL     1      31.261 -12.384 -21.630  0.00  0.00    -0.277 OA
ATOM     22  N   UNL     1      33.319 -11.647 -22.486  0.00  0.00    -0.286 N 
ATOM     23  C   UNL     1      32.277 -11.701 -21.562  0.00  0.00    +0.205 C 
ATOM     24  H   UNL     1      34.060 -11.037 -22.270  0.00  0.00    +0.155 HD
BRANCH  23  25
ATOM     25  C   UNL     1      32.556 -10.763 -20.401  0.00  0.00    +0.010 C 
BRANCH  25  26
ATOM     26  N   UNL     1      32.527  -9.379 -20.876  0.00  0.00    +0.393 N 
ATOM     27  C   UNL     1      31.461  -6.652 -21.037  0.00  0.00    -0.026 C 
ATOM     28  C   UNL     1      32.725  -6.996 -20.241  0.00  0.00    -0.025 C 
ATOM     29  C   UNL     1      31.255  -7.683 -22.152  0.00  0.00    -0.025 C 
ATOM     30  C   UNL     1      32.700  -8.446 -19.754  0.00  0.00    -0.077 C 
ATOM     31  C   UNL     1      31.277  -9.110 -21.601  0.00  0.00    -0.077 C 
ATOM     32  H   UNL     1      33.302  -9.240 -21.524  0.00  0.00    -0.079 HD
BRANCH  27  33
ATOM     33  C   UNL     1      31.538  -5.238 -21.604  0.00  0.00    -0.086 C 
BRANCH  33  34
ATOM     34  N   UNL     1      30.206  -4.686 -21.807  0.00  0.00    +0.380 N 
ATOM     35  H   UNL     1      29.572  -5.430 -22.096  0.00  0.00    -0.089 HD
ATOM     36  H   UNL     1      30.242  -3.968 -22.531  0.00  0.00    -0.089 HD
ATOM     37  H   UNL     1      29.873  -4.275 -20.936  0.00  0.00    -0.089 HD
ENDBRANCH  33  34
ENDBRANCH  27  33
ENDBRANCH  25  26
ENDBRANCH  23  25
ENDBRANCH  10  22
TORSDOF 6
ENDMDL
MODEL 3
REMARK VINA RESULT:     -10.6      2.327      7.373
REMARK  Name = 5288017
REMARK  6 active torsions:
REMARK  status: ('A' for Active; 'I' for Inactive)
REMARK    1  A    between atoms: C_4  and  C_15
REMARK    2  A    between atoms: C_10  and  N_22
REMARK    3  A    between atoms: C_23  and  C_25
REMARK    4  A    between atoms: C_25  and  N_26
REMARK    5  A    between atoms: C_27  and  C_33
REMARK    6  A    between atoms: C_33  and  N_34
REMARK                            x       y       z     vdW  Elec       q    Type
REMARK                         _______ _______ _______ _____ _____    ______ ____
ROOT
ATOM      1  O   UNL     1      32.629 -22.899 -16.763  0.00  0.00    -0.286 OA
ATOM      2  N   UNL     1      31.416 -24.093 -12.640  0.00  0.00    -0.280 N 
ATOM      3  N   UNL     1      32.728 -24.068 -12.274  0.00  0.00    -0.173 NA
ATOM      4  C   UNL     1      31.179 -23.768 -13.961  0.00  0.00    +0.056 A 
ATOM      5  C   UNL     1      32.416 -23.521 -14.468  0.00  0.00    +0.071 A 
ATOM      6  C   UNL     1      33.315 -23.716 -13.409  0.00  0.00    +0.105 A 
ATOM      7  C   UNL     1      33.102 -23.142 -15.673  0.00  0.00    +0.199 C 
ATOM      8  C   UNL     1      34.547 -23.119 -15.250  0.00  0.00    +0.054 C 
ATOM      9  C   UNL     1      34.645 -23.471 -13.875  0.00  0.00    +0.024 C 
ATOM     10  C   UNL     1      35.661 -22.825 -15.983  0.00  0.00    +0.053 C 
ATOM     11  C   UNL     1      35.859 -23.527 -13.231  0.00  0.00    +0.002 C 
ATOM     12  C   UNL     1      36.897 -22.875 -15.356  0.00  0.00    +0.015 C 
ATOM     13  C   UNL     1      36.995 -23.223 -13.990  0.00  0.00    +0.001 C 
ATOM     14  H   UNL     1      30.694 -24.324 -12.012  0.00  0.00    +0.189 HD
ENDROOT
BRANCH   4  15
ATOM     15  C   UNL     1      29.781 -23.739 -14.561  0.00  0.00    +0.040 C 
ATOM     16  C   UNL     1      29.298 -22.302 -14.816  0.00  0.00    +0.006 C 
ATOM     17  C   UNL     1      29.690 -24.591 -15.839  0.00  0.00    +0.006 C 
ATOM     18  C   UNL     1      27.890 -22.284 -15.411  0.00  0.00    +0.000 C 
ATOM     19  C   UNL     1      28.281 -24.562 -16.429  0.00  0.00    +0.000 C 
ATOM     20  C   UNL     1      27.803 -23.135 -16.676  0.00  0.00    +0.000 C 
ENDBRANCH   4  15
BRANCH  10  22
ATOM     21  O   UNL     1      37.007 -20.615 -17.504  0.00  0.00    -0.277 OA
ATOM     22  N   UNL     1      35.579 -22.472 -17.351  0.00  0.00    -0.286 N 
ATOM     23  C   UNL     1      36.236 -21.429 -18.001  0.00  0.00    +0.205 C 
ATOM     24  H   UNL     1      34.991 -23.030 -17.910  0.00  0.00    +0.155 HD
BRANCH  23  25
ATOM     25  C   UNL     1      35.863 -21.411 -19.473  0.00  0.00    +0.010 C 
BRANCH  25  26
ATOM     26  N   UNL     1      35.685 -20.027 -19.913  0.00  0.00    +0.393 N 
ATOM     27  C   UNL     1      35.495 -17.878 -21.899  0.00  0.00    -0.026 C 
ATOM     28  C   UNL     1      34.264 -18.457 -21.193  0.00  0.00    -0.025 C 
ATOM     29  C   UNL     1      36.738 -18.084 -21.027  0.00  0.00    -0.025 C 
ATOM     30  C   UNL     1      34.496 -19.908 -20.768  0.00  0.00    -0.077 C 
ATOM     31  C   UNL     1      36.887 -19.548 -20.608  0.00  0.00    -0.077 C 
ATOM     32  H   UNL     1      35.542 -19.439 -19.092  0.00  0.00    -0.079 HD
BRANCH  27  33
ATOM     33  C   UNL     1      35.295 -16.402 -22.231  0.00  0.00    -0.086 C 
BRANCH  33  34
ATOM     34  N   UNL     1      35.497 -16.157 -23.651  0.00  0.00    +0.380 N 
ATOM     35  H   UNL     1      36.431 -16.462 -23.919  0.00  0.00    -0.089 HD
ATOM     36  H   UNL     1      35.397 -15.159 -23.841  0.00  0.00    -0.089 HD
ATOM     37  H   UNL     1      34.803 -16.676 -24.188  0.00  0.00    -0.089 HD
ENDBRANCH  33  34
ENDBRANCH  27  33
ENDBRANCH  25  26
ENDBRANCH  23  25
ENDBRANCH  10  22
TORSDOF 6
ENDMDL
MODEL 4
REMARK VINA RESULT:     -10.6      3.107      7.962
REMARK  Name = 5288017
REMARK  6 active torsions:
REMARK  status: ('A' for Active; 'I' for Inactive)
REMARK    1  A    between atoms: C_4  and  C_15
REMARK    2  A    between atoms: C_10  and  N_22
REMARK    3  A    between atoms: C_23  and  C_25
REMARK    4  A    between atoms: C_25  and  N_26
REMARK    5  A    between atoms: C_27  and  C_33
REMARK    6  A    between atoms: C_33  and  N_34
REMARK                            x       y       z     vdW  Elec       q    Type
REMARK                         _______ _______ _______ _____ _____    ______ ____
ROOT
ATOM      1  O   UNL     1      32.809 -22.309 -18.095  0.00  0.00    -0.286 OA
ATOM      2  N   UNL     1      32.758 -24.198 -14.054  0.00  0.00    -0.280 N 
ATOM      3  N   UNL     1      34.092 -23.946 -13.948  0.00  0.00    -0.173 NA
ATOM      4  C   UNL     1      32.184 -23.778 -15.238  0.00  0.00    +0.056 A 
ATOM      5  C   UNL     1      33.217 -23.224 -15.928  0.00  0.00    +0.071 A 
ATOM      6  C   UNL     1      34.345 -23.352 -15.105  0.00  0.00    +0.105 A 
ATOM      7  C   UNL     1      33.545 -22.574 -17.168  0.00  0.00    +0.199 C 
ATOM      8  C   UNL     1      35.020 -22.304 -17.031  0.00  0.00    +0.054 C 
ATOM      9  C   UNL     1      35.477 -22.786 -15.773  0.00  0.00    +0.024 C 
ATOM     10  C   UNL     1      35.877 -21.704 -17.909  0.00  0.00    +0.053 C 
ATOM     11  C   UNL     1      36.792 -22.665 -15.390  0.00  0.00    +0.002 C 
ATOM     12  C   UNL     1      37.208 -21.571 -17.546  0.00  0.00    +0.015 C 
ATOM     13  C   UNL     1      37.663 -22.048 -16.296  0.00  0.00    +0.001 C 
ATOM     14  H   UNL     1      32.243 -24.644 -13.344  0.00  0.00    +0.189 HD
ENDROOT
BRANCH   4  15
ATOM     15  C   UNL     1      30.707 -23.967 -15.548  0.00  0.00    +0.040 C 
ATOM     16  C   UNL     1      29.937 -24.534 -14.343  0.00  0.00    +0.006 C 
ATOM     17  C   UNL     1      30.058 -22.670 -16.061  0.00  0.00    +0.006 C 
ATOM     18  C   UNL     1      28.457 -24.729 -14.667  0.00  0.00    +0.000 C 
ATOM     19  C   UNL     1      28.578 -22.874 -16.377  0.00  0.00    +0.000 C 
ATOM     20  C   UNL     1      27.819 -23.440 -15.181  0.00  0.00    +0.000 C 
ENDBRANCH   4  15
BRANCH  10  22
ATOM     21  O   UNL     1      36.889 -19.422 -19.574  0.00  0.00    -0.277 OA
ATOM     22  N   UNL     1      35.437 -21.219 -19.164  0.00  0.00    -0.286 N 
ATOM     23  C   UNL     1      35.955 -20.150 -19.892  0.00  0.00    +0.205 C 
ATOM     24  H   UNL     1      34.677 -21.694 -19.572  0.00  0.00    +0.155 HD
BRANCH  23  25
ATOM     25  C   UNL     1      35.184 -19.974 -21.188  0.00  0.00    +0.010 C 
BRANCH  25  26
ATOM     26  N   UNL     1      35.405 -18.624 -21.707  0.00  0.00    +0.393 N 
ATOM     27  C   UNL     1      34.575 -15.959 -22.606  0.00  0.00    -0.026 C 
ATOM     28  C   UNL     1      35.225 -16.201 -21.240  0.00  0.00    -0.025 C 
ATOM     29  C   UNL     1      34.996 -17.063 -23.583  0.00  0.00    -0.025 C 
ATOM     30  C   UNL     1      34.952 -17.619 -20.735  0.00  0.00    -0.077 C 
ATOM     31  C   UNL     1      34.729 -18.452 -23.000  0.00  0.00    -0.077 C 
ATOM     32  H   UNL     1      36.405 -18.491 -21.854  0.00  0.00    -0.079 HD
BRANCH  27  33
ATOM     33  C   UNL     1      34.935 -14.579 -23.149  0.00  0.00    -0.086 C 
BRANCH  33  34
ATOM     34  N   UNL     1      34.514 -13.533 -22.229  0.00  0.00    +0.380 N 
ATOM     35  H   UNL     1      35.114 -13.545 -21.405  0.00  0.00    -0.089 HD
ATOM     36  H   UNL     1      33.547 -13.696 -21.947  0.00  0.00    -0.089 HD
ATOM     37  H   UNL     1      34.587 -12.626 -22.689  0.00  0.00    -0.089 HD
ENDBRANCH  33  34
ENDBRANCH  27  33
ENDBRANCH  25  26
ENDBRANCH  23  25
ENDBRANCH  10  22
TORSDOF 6
ENDMDL
MODEL 5
REMARK VINA RESULT:     -10.5      2.924      8.089
REMARK  Name = 5288017
REMARK  6 active torsions:
REMARK  status: ('A' for Active; 'I' for Inactive)
REMARK    1  A    between atoms: C_4  and  C_15
REMARK    2  A    between atoms: C_10  and  N_22
REMARK    3  A    between atoms: C_23  and  C_25
REMARK    4  A    between atoms: C_25  and  N_26
REMARK    5  A    between atoms: C_27  and  C_33
REMARK    6  A    between atoms: C_33  and  N_34
REMARK                            x       y       z     vdW  Elec       q    Type
REMARK                         _______ _______ _______ _____ _____    ______ ____
ROOT
ATOM      1  O   UNL     1      35.744 -22.916 -16.333  0.00  0.00    -0.286 OA
ATOM      2  N   UNL     1      34.361 -24.650 -12.463  0.00  0.00    -0.280 N 
ATOM      3  N   UNL     1      33.074 -24.424 -12.851  0.00  0.00    -0.173 NA
ATOM      4  C   UNL     1      35.316 -24.262 -13.380  0.00  0.00    +0.056 A 
ATOM      5  C   UNL     1      34.595 -23.757 -14.417  0.00  0.00    +0.071 A 
ATOM      6  C   UNL     1      33.248 -23.879 -14.045  0.00  0.00    +0.105 A 
ATOM      7  C   UNL     1      34.727 -23.161 -15.718  0.00  0.00    +0.199 C 
ATOM      8  C   UNL     1      33.299 -22.919 -16.129  0.00  0.00    +0.054 C 
ATOM      9  C   UNL     1      32.426 -23.363 -15.097  0.00  0.00    +0.024 C 
ATOM     10  C   UNL     1      32.809 -22.369 -17.279  0.00  0.00    +0.053 C 
ATOM     11  C   UNL     1      31.059 -23.259 -15.215  0.00  0.00    +0.002 C 
ATOM     12  C   UNL     1      31.434 -22.253 -17.422  0.00  0.00    +0.015 C 
ATOM     13  C   UNL     1      30.566 -22.695 -16.398  0.00  0.00    +0.001 C 
ATOM     14  H   UNL     1      34.590 -25.059 -11.597  0.00  0.00    +0.189 HD
ENDROOT
BRANCH   4  15
ATOM     15  C   UNL     1      36.808 -24.431 -13.134  0.00  0.00    +0.040 C 
ATOM     16  C   UNL     1      37.100 -25.581 -12.155  0.00  0.00    +0.006 C 
ATOM     17  C   UNL     1      37.589 -24.608 -14.448  0.00  0.00    +0.006 C 
ATOM     18  C   UNL     1      38.600 -25.737 -11.908  0.00  0.00    +0.000 C 
ATOM     19  C   UNL     1      39.086 -24.768 -14.189  0.00  0.00    +0.000 C 
ATOM     20  C   UNL     1      39.371 -25.907 -13.214  0.00  0.00    +0.000 C 
ENDBRANCH   4  15
BRANCH  10  22
ATOM     21  O   UNL     1      32.345 -20.349 -19.450  0.00  0.00    -0.277 OA
ATOM     22  N   UNL     1      33.665 -21.924 -18.315  0.00  0.00    -0.286 N 
ATOM     23  C   UNL     1      33.390 -20.975 -19.296  0.00  0.00    +0.205 C 
ATOM     24  H   UNL     1      34.560 -22.332 -18.343  0.00  0.00    +0.155 HD
BRANCH  23  25
ATOM     25  C   UNL     1      34.591 -20.798 -20.208  0.00  0.00    +0.010 C 
BRANCH  25  26
ATOM     26  N   UNL     1      34.486 -19.518 -20.909  0.00  0.00    +0.393 N 
ATOM     27  C   UNL     1      35.457 -17.345 -22.621  0.00  0.00    -0.026 C 
ATOM     28  C   UNL     1      34.453 -18.393 -23.112  0.00  0.00    -0.025 C 
ATOM     29  C   UNL     1      35.365 -17.212 -21.097  0.00  0.00    -0.025 C 
ATOM     30  C   UNL     1      34.613 -19.715 -22.360  0.00  0.00    -0.077 C 
ATOM     31  C   UNL     1      35.496 -18.574 -20.412  0.00  0.00    -0.077 C 
ATOM     32  H   UNL     1      33.566 -19.120 -20.725  0.00  0.00    -0.079 HD
BRANCH  27  33
ATOM     33  C   UNL     1      35.226 -16.000 -23.304  0.00  0.00    -0.086 C 
BRANCH  33  34
ATOM     34  N   UNL     1      34.818 -16.184 -24.689  0.00  0.00    +0.380 N 
ATOM     35  H   UNL     1      34.728 -15.274 -25.140  0.00  0.00    -0.089 HD
ATOM     36  H   UNL     1      33.920 -16.668 -24.718  0.00  0.00    -0.089 HD
ATOM     37  H   UNL     1      35.520 -16.737 -25.179  0.00  0.00    -0.089 HD
ENDBRANCH  33  34
ENDBRANCH  27  33
ENDBRANCH  25  26
ENDBRANCH  23  25
ENDBRANCH  10  22
TORSDOF 6
ENDMDL
MODEL 6
REMARK VINA RESULT:     -10.3     11.303     15.067
REMARK  Name = 5288017
REMARK  6 active torsions:
REMARK  status: ('A' for Active; 'I' for Inactive)
REMARK    1  A    between atoms: C_4  and  C_15
REMARK    2  A    between atoms: C_10  and  N_22
REMARK    3  A    between atoms: C_23  and  C_25
REMARK    4  A    between atoms: C_25  and  N_26
REMARK    5  A    between atoms: C_27  and  C_33
REMARK    6  A    between atoms: C_33  and  N_34
REMARK                            x       y       z     vdW  Elec       q    Type
REMARK                         _______ _______ _______ _____ _____    ______ ____
ROOT
ATOM      1  O   UNL     1      33.060  -9.674 -23.956  0.00  0.00    -0.286 OA
ATOM      2  N   UNL     1      32.230  -5.925 -21.685  0.00  0.00    -0.280 N 
ATOM      3  N   UNL     1      31.914  -6.684 -20.598  0.00  0.00    -0.173 NA
ATOM      4  C   UNL     1      32.603  -6.646 -22.802  0.00  0.00    +0.056 A 
ATOM      5  C   UNL     1      32.518  -7.943 -22.404  0.00  0.00    +0.071 A 
ATOM      6  C   UNL     1      32.098  -7.910 -21.065  0.00  0.00    +0.105 A 
ATOM      7  C   UNL     1      32.704  -9.293 -22.860  0.00  0.00    +0.199 C 
ATOM      8  C   UNL     1      32.350 -10.115 -21.649  0.00  0.00    +0.054 C 
ATOM      9  C   UNL     1      31.988  -9.251 -20.578  0.00  0.00    +0.024 C 
ATOM     10  C   UNL     1      32.343 -11.471 -21.492  0.00  0.00    +0.053 C 
ATOM     11  C   UNL     1      31.619  -9.743 -19.348  0.00  0.00    +0.002 C 
ATOM     12  C   UNL     1      31.975 -11.993 -20.261  0.00  0.00    +0.015 C 
ATOM     13  C   UNL     1      31.616 -11.135 -19.197  0.00  0.00    +0.001 C 
ATOM     14  H   UNL     1      32.197  -4.942 -21.674  0.00  0.00    +0.189 HD
ENDROOT
BRANCH   4  15
ATOM     15  C   UNL     1      32.993  -5.982 -24.115  0.00  0.00    +0.040 C 
ATOM     16  C   UNL     1      32.052  -4.819 -24.470  0.00  0.00    +0.006 C 
ATOM     17  C   UNL     1      34.463  -5.526 -24.111  0.00  0.00    +0.006 C 
ATOM     18  C   UNL     1      32.447  -4.166 -25.794  0.00  0.00    +0.000 C 
ATOM     19  C   UNL     1      34.846  -4.870 -25.436  0.00  0.00    +0.000 C 
ATOM     20  C   UNL     1      33.907  -3.720 -25.788  0.00  0.00    +0.000 C 
ENDBRANCH   4  15
BRANCH  10  22
ATOM     21  O   UNL     1      34.896 -12.968 -21.993  0.00  0.00    -0.277 OA
ATOM     22  N   UNL     1      32.702 -12.344 -22.548  0.00  0.00    -0.286 N 
ATOM     23  C   UNL     1      33.911 -13.014 -22.723  0.00  0.00    +0.205 C 
ATOM     24  H   UNL     1      32.017 -12.495 -23.238  0.00  0.00    +0.155 HD
BRANCH  23  25
ATOM     25  C   UNL     1      33.870 -13.848 -23.991  0.00  0.00    +0.010 C 
BRANCH  25  26
ATOM     26  N   UNL     1      33.886 -15.269 -23.640  0.00  0.00    +0.393 N 
ATOM     27  C   UNL     1      34.986 -17.987 -23.635  0.00  0.00    -0.026 C 
ATOM     28  C   UNL     1      35.083 -17.058 -22.420  0.00  0.00    -0.025 C 
ATOM     29  C   UNL     1      33.784 -17.587 -24.498  0.00  0.00    -0.025 C 
ATOM     30  C   UNL     1      35.077 -15.587 -22.841  0.00  0.00    -0.077 C 
ATOM     31  C   UNL     1      33.823 -16.099 -24.851  0.00  0.00    -0.077 C 
ATOM     32  H   UNL     1      33.063 -15.475 -23.074  0.00  0.00    -0.079 HD
BRANCH  27  33
ATOM     33  C   UNL     1      34.890 -19.447 -23.204  0.00  0.00    -0.086 C 
BRANCH  33  34
ATOM     34  N   UNL     1      34.854 -19.559 -21.753  0.00  0.00    +0.380 N 
ATOM     35  H   UNL     1      35.788 -19.402 -21.377  0.00  0.00    -0.089 HD
ATOM     36  H   UNL     1      34.535 -20.492 -21.491  0.00  0.00    -0.089 HD
ATOM     37  H   UNL     1      34.214 -18.862 -21.374  0.00  0.00    -0.089 HD
ENDBRANCH  33  34
ENDBRANCH  27  33
ENDBRANCH  25  26
ENDBRANCH  23  25
ENDBRANCH  10  22
TORSDOF 6
ENDMDL
MODEL 7
REMARK VINA RESULT:     -10.3      2.260      6.475
REMARK  Name = 5288017
REMARK  6 active torsions:
REMARK  status: ('A' for Active; 'I' for Inactive)
REMARK    1  A    between atoms: C_4  and  C_15
REMARK    2  A    between atoms: C_10  and  N_22
REMARK    3  A    between atoms: C_23  and  C_25
REMARK    4  A    between atoms: C_25  and  N_26
REMARK    5  A    between atoms: C_27  and  C_33
REMARK    6  A    between atoms: C_33  and  N_34
REMARK                            x       y       z     vdW  Elec       q    Type
REMARK                         _______ _______ _______ _____ _____    ______ ____
ROOT
ATOM      1  O   UNL     1      34.869 -23.785 -15.135  0.00  0.00    -0.286 OA
ATOM      2  N   UNL     1      32.090 -21.981 -18.122  0.00  0.00    -0.280 N 
ATOM      3  N   UNL     1      31.046 -22.309 -17.310  0.00  0.00    -0.173 NA
ATOM      4  C   UNL     1      33.331 -22.344 -17.639  0.00  0.00    +0.056 A 
ATOM      5  C   UNL     1      33.062 -22.941 -16.447  0.00  0.00    +0.071 A 
ATOM      6  C   UNL     1      31.668 -22.893 -16.297  0.00  0.00    +0.105 A 
ATOM      7  C   UNL     1      33.688 -23.582 -15.323  0.00  0.00    +0.199 C 
ATOM      8  C   UNL     1      32.521 -23.936 -14.439  0.00  0.00    +0.054 C 
ATOM      9  C   UNL     1      31.312 -23.507 -15.054  0.00  0.00    +0.024 C 
ATOM     10  C   UNL     1      32.510 -24.566 -13.228  0.00  0.00    +0.053 C 
ATOM     11  C   UNL     1      30.089 -23.707 -14.457  0.00  0.00    +0.002 C 
ATOM     12  C   UNL     1      31.290 -24.779 -12.605  0.00  0.00    +0.015 C 
ATOM     13  C   UNL     1      30.088 -24.352 -13.215  0.00  0.00    +0.001 C 
ATOM     14  H   UNL     1      31.969 -21.521 -18.984  0.00  0.00    +0.189 HD
ENDROOT
BRANCH   4  15
ATOM     15  C   UNL     1      34.621 -22.066 -18.398  0.00  0.00    +0.040 C 
ATOM     16  C   UNL     1      34.437 -20.964 -19.454  0.00  0.00    +0.006 C 
ATOM     17  C   UNL     1      35.784 -21.736 -17.447  0.00  0.00    +0.006 C 
ATOM     18  C   UNL     1      35.735 -20.698 -20.215  0.00  0.00    +0.000 C 
ATOM     19  C   UNL     1      37.075 -21.467 -18.218  0.00  0.00    +0.000 C 
ATOM     20  C   UNL     1      36.888 -20.376 -19.268  0.00  0.00    +0.000 C 
ENDBRANCH   4  15
BRANCH  10  22
ATOM     21  O   UNL     1      34.357 -23.118 -11.357  0.00  0.00    -0.277 OA
ATOM     22  N   UNL     1      33.705 -24.997 -12.603  0.00  0.00    -0.286 N 
ATOM     23  C   UNL     1      34.521 -24.273 -11.736  0.00  0.00    +0.205 C 
ATOM     24  H   UNL     1      33.992 -25.917 -12.803  0.00  0.00    +0.155 HD
BRANCH  23  25
ATOM     25  C   UNL     1      35.702 -25.120 -11.297  0.00  0.00    +0.010 C 
BRANCH  25  26
ATOM     26  N   UNL     1      36.738 -25.084 -12.331  0.00  0.00    +0.393 N 
ATOM     27  C   UNL     1      39.347 -25.742 -13.495  0.00  0.00    -0.026 C 
ATOM     28  C   UNL     1      38.048 -26.410 -13.957  0.00  0.00    -0.025 C 
ATOM     29  C   UNL     1      39.037 -24.366 -12.895  0.00  0.00    -0.025 C 
ATOM     30  C   UNL     1      37.005 -26.437 -12.838  0.00  0.00    -0.077 C 
ATOM     31  C   UNL     1      37.963 -24.461 -11.811  0.00  0.00    -0.077 C 
ATOM     32  H   UNL     1      36.402 -24.516 -13.109  0.00  0.00    -0.079 HD
BRANCH  27  33
ATOM     33  C   UNL     1      40.345 -25.629 -14.643  0.00  0.00    -0.086 C 
BRANCH  33  34
ATOM     34  N   UNL     1      40.033 -24.489 -15.492  0.00  0.00    +0.380 N 
ATOM     35  H   UNL     1      40.086 -23.631 -14.943  0.00  0.00    -0.089 HD
ATOM     36  H   UNL     1      39.090 -24.593 -15.869  0.00  0.00    -0.089 HD
ATOM     37  H   UNL     1      40.703 -24.443 -16.260  0.00  0.00    -0.089 HD
ENDBRANCH  33  34
ENDBRANCH  27  33
ENDBRANCH  25  26
ENDBRANCH  23  25
ENDBRANCH  10  22
TORSDOF 6
ENDMDL
MODEL 8
REMARK VINA RESULT:     -10.0      2.868      7.355
REMARK  Name = 5288017
REMARK  6 active torsions:
REMARK  status: ('A' for Active; 'I' for Inactive)
REMARK    1  A    between atoms: C_4  and  C_15
REMARK    2  A    between atoms: C_10  and  N_22
REMARK    3  A    between atoms: C_23  and  C_25
REMARK    4  A    between atoms: C_25  and  N_26
REMARK    5  A    between atoms: C_27  and  C_33
REMARK    6  A    between atoms: C_33  and  N_34
REMARK                            x       y       z     vdW  Elec       q    Type
REMARK                         _______ _______ _______ _____ _____    ______ ____
ROOT
ATOM      1  O   UNL     1      35.903 -24.194 -15.498  0.00  0.00    -0.286 OA
ATOM      2  N   UNL     1      36.073 -25.090 -11.130  0.00  0.00    -0.280 N 
ATOM      3  N   UNL     1      34.773 -24.696 -11.025  0.00  0.00    -0.173 NA
ATOM      4  C   UNL     1      36.597 -25.012 -12.405  0.00  0.00    +0.056 A 
ATOM      5  C   UNL     1      35.569 -24.538 -13.159  0.00  0.00    +0.071 A 
ATOM      6  C   UNL     1      34.492 -24.364 -12.277  0.00  0.00    +0.105 A 
ATOM      7  C   UNL     1      35.212 -24.165 -14.500  0.00  0.00    +0.199 C 
ATOM      8  C   UNL     1      33.776 -23.734 -14.364  0.00  0.00    +0.054 C 
ATOM      9  C   UNL     1      33.367 -23.865 -13.008  0.00  0.00    +0.024 C 
ATOM     10  C   UNL     1      32.914 -23.274 -15.318  0.00  0.00    +0.053 C 
ATOM     11  C   UNL     1      32.094 -23.537 -12.604  0.00  0.00    +0.002 C 
ATOM     12  C   UNL     1      31.624 -22.937 -14.936  0.00  0.00    +0.015 C 
ATOM     13  C   UNL     1      31.217 -23.068 -13.589  0.00  0.00    +0.001 C 
ATOM     14  H   UNL     1      36.596 -25.406 -10.359  0.00  0.00    +0.189 HD
ENDROOT
BRANCH   4  15
ATOM     15  C   UNL     1      38.031 -25.406 -12.729  0.00  0.00    +0.040 C 
ATOM     16  C   UNL     1      38.099 -26.404 -13.898  0.00  0.00    +0.006 C 
ATOM     17  C   UNL     1      38.917 -24.177 -12.994  0.00  0.00    +0.006 C 
ATOM     18  C   UNL     1      39.542 -26.800 -14.209  0.00  0.00    +0.000 C 
ATOM     19  C   UNL     1      40.355 -24.585 -13.309  0.00  0.00    +0.000 C 
ATOM     20  C   UNL     1      40.419 -25.577 -14.467  0.00  0.00    +0.000 C 
ENDBRANCH   4  15
BRANCH  10  22
ATOM     21  O   UNL     1      31.676 -21.698 -17.552  0.00  0.00    -0.277 OA
ATOM     22  N   UNL     1      33.306 -23.139 -16.672  0.00  0.00    -0.286 N 
ATOM     23  C   UNL     1      32.686 -22.385 -17.665  0.00  0.00    +0.205 C 
ATOM     24  H   UNL     1      34.112 -23.636 -16.942  0.00  0.00    +0.155 HD
BRANCH  23  25
ATOM     25  C   UNL     1      33.440 -22.522 -18.976  0.00  0.00    +0.010 C 
BRANCH  25  26
ATOM     26  N   UNL     1      34.198 -21.297 -19.233  0.00  0.00    +0.393 N 
ATOM     27  C   UNL     1      35.811 -19.469 -20.861  0.00  0.00    -0.026 C 
ATOM     28  C   UNL     1      34.329 -19.217 -20.565  0.00  0.00    -0.025 C 
ATOM     29  C   UNL     1      36.419 -20.341 -19.758  0.00  0.00    -0.025 C 
ATOM     30  C   UNL     1      33.578 -20.527 -20.320  0.00  0.00    -0.077 C 
ATOM     31  C   UNL     1      35.600 -21.615 -19.540  0.00  0.00    -0.077 C 
ATOM     32  H   UNL     1      34.183 -20.722 -18.391  0.00  0.00    -0.079 HD
BRANCH  27  33
ATOM     33  C   UNL     1      36.573 -18.155 -21.005  0.00  0.00    -0.086 C 
BRANCH  33  34
ATOM     34  N   UNL     1      37.862 -18.370 -21.648  0.00  0.00    +0.380 N 
ATOM     35  H   UNL     1      37.799 -18.109 -22.631  0.00  0.00    -0.089 HD
ATOM     36  H   UNL     1      38.120 -19.354 -21.572  0.00  0.00    -0.089 HD
ATOM     37  H   UNL     1      38.570 -17.796 -21.189  0.00  0.00    -0.089 HD
ENDBRANCH  33  34
ENDBRANCH  27  33
ENDBRANCH  25  26
ENDBRANCH  23  25
ENDBRANCH  10  22
TORSDOF 6
ENDMDL
MODEL 9
REMARK VINA RESULT:      -9.2      7.648     11.753
REMARK  Name = 5288017
REMARK  6 active torsions:
REMARK  status: ('A' for Active; 'I' for Inactive)
REMARK    1  A    between atoms: C_4  and  C_15
REMARK    2  A    between atoms: C_10  and  N_22
REMARK    3  A    between atoms: C_23  and  C_25
REMARK    4  A    between atoms: C_25  and  N_26
REMARK    5  A    between atoms: C_27  and  C_33
REMARK    6  A    between atoms: C_33  and  N_34
REMARK                            x       y       z     vdW  Elec       q    Type
REMARK                         _______ _______ _______ _____ _____    ______ ____
ROOT
ATOM      1  O   UNL     1      34.168 -13.759 -21.014  0.00  0.00    -0.286 OA
ATOM      2  N   UNL     1      32.713 -10.465 -23.647  0.00  0.00    -0.280 N 
ATOM      3  N   UNL     1      32.885 -11.283 -24.722  0.00  0.00    -0.173 NA
ATOM      4  C   UNL     1      33.046 -11.031 -22.433  0.00  0.00    +0.056 A 
ATOM      5  C   UNL     1      33.457 -12.287 -22.754  0.00  0.00    +0.071 A 
ATOM      6  C   UNL     1      33.340 -12.387 -24.149  0.00  0.00    +0.105 A 
ATOM      7  C   UNL     1      33.953 -13.509 -22.182  0.00  0.00    +0.199 C 
ATOM      8  C   UNL     1      34.137 -14.398 -23.383  0.00  0.00    +0.054 C 
ATOM      9  C   UNL     1      33.759 -13.692 -24.559  0.00  0.00    +0.024 C 
ATOM     10  C   UNL     1      34.588 -15.685 -23.449  0.00  0.00    +0.053 C 
ATOM     11  C   UNL     1      33.829 -14.275 -25.803  0.00  0.00    +0.002 C 
ATOM     12  C   UNL     1      34.668 -16.295 -24.692  0.00  0.00    +0.015 C 
ATOM     13  C   UNL     1      34.291 -15.595 -25.860  0.00  0.00    +0.001 C 
ATOM     14  H   UNL     1      32.376  -9.543 -23.728  0.00  0.00    +0.189 HD
ENDROOT
BRANCH   4  15
ATOM     15  C   UNL     1      32.923 -10.280 -21.115  0.00  0.00    +0.040 C 
ATOM     16  C   UNL     1      32.611  -8.790 -21.332  0.00  0.00    +0.006 C 
ATOM     17  C   UNL     1      31.893 -10.934 -20.178  0.00  0.00    +0.006 C 
ATOM     18  C   UNL     1      32.498  -8.044 -20.003  0.00  0.00    +0.000 C 
ATOM     19  C   UNL     1      31.784 -10.177 -18.855  0.00  0.00    +0.000 C 
ATOM     20  C   UNL     1      31.478  -8.699 -19.075  0.00  0.00    +0.000 C 
ENDBRANCH   4  15
BRANCH  10  22
ATOM     21  O   UNL     1      35.381 -18.560 -23.109  0.00  0.00    -0.277 OA
ATOM     22  N   UNL     1      34.967 -16.400 -22.287  0.00  0.00    -0.286 N 
ATOM     23  C   UNL     1      35.329 -17.742 -22.196  0.00  0.00    +0.205 C 
ATOM     24  H   UNL     1      34.978 -15.889 -21.446  0.00  0.00    +0.155 HD
BRANCH  23  25
ATOM     25  C   UNL     1      35.664 -18.099 -20.758  0.00  0.00    +0.010 C 
BRANCH  25  26
ATOM     26  N   UNL     1      35.240 -19.473 -20.487  0.00  0.00    +0.393 N 
ATOM     27  C   UNL     1      34.289 -21.669 -18.792  0.00  0.00    -0.026 C 
ATOM     28  C   UNL     1      33.373 -20.932 -19.774  0.00  0.00    -0.025 C 
ATOM     29  C   UNL     1      35.744 -21.563 -19.261  0.00  0.00    -0.025 C 
ATOM     30  C   UNL     1      33.849 -19.498 -20.013  0.00  0.00    -0.077 C 
ATOM     31  C   UNL     1      36.142 -20.107 -19.515  0.00  0.00    -0.077 C 
ATOM     32  H   UNL     1      35.286 -20.007 -21.354  0.00  0.00    -0.079 HD
BRANCH  27  33
ATOM     33  C   UNL     1      33.868 -23.127 -18.636  0.00  0.00    -0.086 C 
BRANCH  33  34
ATOM     34  N   UNL     1      33.421 -23.397 -17.277  0.00  0.00    +0.380 N 
ATOM     35  H   UNL     1      33.901 -22.771 -16.632  0.00  0.00    -0.089 HD
ATOM     36  H   UNL     1      33.635 -24.364 -17.034  0.00  0.00    -0.089 HD
ATOM     37  H   UNL     1      32.415 -23.244 -17.214  0.00  0.00    -0.089 HD
ENDBRANCH  33  34
ENDBRANCH  27  33
ENDBRANCH  25  26
ENDBRANCH  23  25
ENDBRANCH  10  22
TORSDOF 6
ENDMDL
