MODEL 1
REMARK VINA RESULT:     -11.8      0.000      0.000
REMARK  Name = 9912771
REMARK  7 active torsions:
REMARK  status: ('A' for Active; 'I' for Inactive)
REMARK    1  A    between atoms: C_1  and  N_8
REMARK    2  A    between atoms: C_2  and  N_27
REMARK    3  A    between atoms: C_3  and  O_38
REMARK    4  A    between atoms: C_9  and  C_16
REMARK    5  A    between atoms: C_11  and  N_17
REMARK    6  A    between atoms: C_28  and  C_30
REMARK    7  A    between atoms: C_35  and  O_36
REMARK                            x       y       z     vdW  Elec       q    Type
REMARK                         _______ _______ _______ _____ _____    ______ ____
ROOT
ATOM      1  C   UNL     1      31.372 -22.995 -15.795  0.00  0.00    +0.098 C 
ATOM      2  C   UNL     1      31.985 -23.689 -14.763  0.00  0.00    +0.067 C 
ATOM      3  C   UNL     1      29.992 -22.862 -15.851  0.00  0.00    +0.148 C 
ATOM      4  C   UNL     1      31.200 -24.264 -13.763  0.00  0.00    +0.016 C 
ATOM      5  C   UNL     1      29.208 -23.438 -14.852  0.00  0.00    +0.038 C 
ATOM      6  C   UNL     1      29.812 -24.139 -13.808  0.00  0.00    +0.004 C 
ENDROOT
BRANCH   1   8
ATOM      7  O   UNL     1      33.573 -24.164 -17.459  0.00  0.00    -0.270 OA
ATOM      8  N   UNL     1      32.161 -22.406 -16.813  0.00  0.00    -0.277 N 
ATOM      9  C   UNL     1      33.185 -22.990 -17.571  0.00  0.00    +0.250 C 
ATOM     10  H   UNL     1      31.964 -21.463 -17.015  0.00  0.00    +0.155 HD
BRANCH   9  16
ATOM     11  C   UNL     1      35.106 -20.427 -20.408  0.00  0.00    +0.048 C 
ATOM     12  C   UNL     1      33.704 -20.407 -20.235  0.00  0.00    +0.015 C 
ATOM     13  C   UNL     1      35.851 -21.323 -19.608  0.00  0.00    +0.015 C 
ATOM     14  C   UNL     1      33.079 -21.242 -19.309  0.00  0.00    +0.006 C 
ATOM     15  C   UNL     1      35.225 -22.159 -18.684  0.00  0.00    +0.006 C 
ATOM     16  C   UNL     1      33.838 -22.118 -18.535  0.00  0.00    +0.054 C 
BRANCH  11  17
ATOM     17  N   UNL     1      35.732 -19.594 -21.333  0.00  0.00    -0.310 N 
ATOM     18  N   UNL     1      34.906 -16.935 -20.672  0.00  0.00    +0.387 N 
ATOM     19  C   UNL     1      35.195 -19.365 -22.677  0.00  0.00    +0.089 C 
ATOM     20  C   UNL     1      34.199 -18.205 -22.689  0.00  0.00    -0.001 C 
ATOM     21  C   UNL     1      36.788 -18.654 -20.940  0.00  0.00    +0.068 C 
ATOM     22  C   UNL     1      34.742 -16.879 -22.130  0.00  0.00    -0.076 C 
ATOM     23  C   UNL     1      36.225 -17.419 -20.226  0.00  0.00    -0.056 C 
ATOM     24  C   UNL     1      34.625 -15.636 -20.059  0.00  0.00    -0.101 C 
ATOM     25  H   UNL     1      34.224 -17.626 -20.359  0.00  0.00    -0.080 HD
ENDBRANCH  11  17
ENDBRANCH   9  16
ENDBRANCH   1   8
BRANCH   2  27
ATOM     26  O   UNL     1      33.800 -23.889 -12.386  0.00  0.00    -0.270 OA
ATOM     27  N   UNL     1      33.374 -23.829 -14.697  0.00  0.00    -0.279 N 
ATOM     28  C   UNL     1      34.175 -23.917 -13.552  0.00  0.00    +0.250 C 
ATOM     29  H   UNL     1      33.846 -23.870 -15.559  0.00  0.00    +0.155 HD
BRANCH  28  30
ATOM     30  C   UNL     1      35.635 -24.033 -13.807  0.00  0.00    +0.054 C 
ATOM     31  C   UNL     1      36.373 -24.925 -13.056  0.00  0.00    +0.008 C 
ATOM     32  C   UNL     1      36.204 -23.246 -14.786  0.00  0.00    +0.008 C 
ATOM     33  C   UNL     1      37.742 -25.034 -13.295  0.00  0.00    +0.037 C 
ATOM     34  C   UNL     1      37.575 -23.356 -15.025  0.00  0.00    +0.037 C 
ATOM     35  C   UNL     1      38.343 -24.249 -14.280  0.00  0.00    +0.139 C 
BRANCH  35  36
ATOM     36  O   UNL     1      39.680 -24.358 -14.513  0.00  0.00    -0.471 OA
ATOM     37  C   UNL     1      40.280 -25.629 -14.270  0.00  0.00    +0.252 C 
ENDBRANCH  35  36
ENDBRANCH  28  30
ENDBRANCH   2  27
BRANCH   3  38
ATOM     38  O   UNL     1      29.380 -22.181 -16.860  0.00  0.00    -0.504 OA
ATOM     39  H   UNL     1      29.884 -21.634 -17.429  0.00  0.00    +0.292 HD
ENDBRANCH   3  38
TORSDOF 7
ENDMDL
MODEL 2
REMARK VINA RESULT:      -9.8      1.573      5.539
REMARK  Name = 9912771
REMARK  7 active torsions:
REMARK  status: ('A' for Active; 'I' for Inactive)
REMARK    1  A    between atoms: C_1  and  N_8
REMARK    2  A    between atoms: C_2  and  N_27
REMARK    3  A    between atoms: C_3  and  O_38
REMARK    4  A    between atoms: C_9  and  C_16
REMARK    5  A    between atoms: C_11  and  N_17
REMARK    6  A    between atoms: C_28  and  C_30
REMARK    7  A    between atoms: C_35  and  O_36
REMARK                            x       y       z     vdW  Elec       q    Type
REMARK                         _______ _______ _______ _____ _____    ______ ____
ROOT
ATOM      1  C   UNL     1      37.252 -24.512 -14.253  0.00  0.00    +0.098 C 
ATOM      2  C   UNL     1      36.196 -25.054 -13.535  0.00  0.00    +0.067 C 
ATOM      3  C   UNL     1      38.567 -24.729 -13.872  0.00  0.00    +0.148 C 
ATOM      4  C   UNL     1      36.463 -25.832 -12.409  0.00  0.00    +0.016 C 
ATOM      5  C   UNL     1      38.833 -25.508 -12.745  0.00  0.00    +0.038 C 
ATOM      6  C   UNL     1      37.781 -26.059 -12.014  0.00  0.00    +0.004 C 
ENDROOT
BRANCH   1   8
ATOM      7  O   UNL     1      35.663 -21.986 -14.544  0.00  0.00    -0.270 OA
ATOM      8  N   UNL     1      36.990 -23.721 -15.400  0.00  0.00    -0.277 N 
ATOM      9  C   UNL     1      36.239 -22.542 -15.493  0.00  0.00    +0.250 C 
ATOM     10  H   UNL     1      37.389 -24.043 -16.240  0.00  0.00    +0.155 HD
BRANCH   9  16
ATOM     11  C   UNL     1      35.905 -20.848 -19.408  0.00  0.00    +0.048 C 
ATOM     12  C   UNL     1      34.891 -21.678 -18.881  0.00  0.00    +0.015 C 
ATOM     13  C   UNL     1      37.033 -20.596 -18.595  0.00  0.00    +0.015 C 
ATOM     14  C   UNL     1      35.001 -22.229 -17.604  0.00  0.00    +0.006 C 
ATOM     15  C   UNL     1      37.142 -21.148 -17.319  0.00  0.00    +0.006 C 
ATOM     16  C   UNL     1      36.126 -21.965 -16.824  0.00  0.00    +0.054 C 
BRANCH  11  17
ATOM     17  N   UNL     1      35.797 -20.297 -20.684  0.00  0.00    -0.310 N 
ATOM     18  N   UNL     1      35.139 -17.541 -20.291  0.00  0.00    +0.387 N 
ATOM     19  C   UNL     1      34.580 -20.413 -21.492  0.00  0.00    +0.089 C 
ATOM     20  C   UNL     1      33.604 -19.275 -21.196  0.00  0.00    -0.001 C 
ATOM     21  C   UNL     1      36.760 -19.312 -21.187  0.00  0.00    +0.068 C 
ATOM     22  C   UNL     1      34.187 -17.862 -21.362  0.00  0.00    -0.076 C 
ATOM     23  C   UNL     1      36.533 -17.921 -20.580  0.00  0.00    -0.056 C 
ATOM     24  C   UNL     1      35.079 -16.121 -19.939  0.00  0.00    -0.101 C 
ATOM     25  H   UNL     1      34.842 -18.111 -19.499  0.00  0.00    -0.080 HD
ENDBRANCH  11  17
ENDBRANCH   9  16
ENDBRANCH   1   8
BRANCH   2  27
ATOM     26  O   UNL     1      33.942 -23.771 -12.033  0.00  0.00    -0.270 OA
ATOM     27  N   UNL     1      34.867 -24.840 -13.911  0.00  0.00    -0.279 N 
ATOM     28  C   UNL     1      33.850 -24.232 -13.165  0.00  0.00    +0.250 C 
ATOM     29  H   UNL     1      34.615 -25.155 -14.809  0.00  0.00    +0.155 HD
BRANCH  28  30
ATOM     30  C   UNL     1      32.522 -24.176 -13.830  0.00  0.00    +0.054 C 
ATOM     31  C   UNL     1      32.341 -23.299 -14.880  0.00  0.00    +0.008 C 
ATOM     32  C   UNL     1      31.515 -25.002 -13.378  0.00  0.00    +0.008 C 
ATOM     33  C   UNL     1      31.095 -23.246 -15.505  0.00  0.00    +0.037 C 
ATOM     34  C   UNL     1      30.270 -24.949 -14.004  0.00  0.00    +0.037 C 
ATOM     35  C   UNL     1      30.059 -24.072 -15.066  0.00  0.00    +0.139 C 
BRANCH  35  36
ATOM     36  O   UNL     1      28.845 -24.020 -15.677  0.00  0.00    -0.471 OA
ATOM     37  C   UNL     1      28.431 -22.756 -16.194  0.00  0.00    +0.252 C 
ENDBRANCH  35  36
ENDBRANCH  28  30
ENDBRANCH   2  27
BRANCH   3  38
ATOM     38  O   UNL     1      39.611 -24.202 -14.571  0.00  0.00    -0.504 OA
ATOM     39  H   UNL     1      39.449 -23.648 -15.309  0.00  0.00    +0.292 HD
ENDBRANCH   3  38
TORSDOF 7
ENDMDL
MODEL 3
REMARK VINA RESULT:      -9.6      1.537      5.480
REMARK  Name = 9912771
REMARK  7 active torsions:
REMARK  status: ('A' for Active; 'I' for Inactive)
REMARK    1  A    between atoms: C_1  and  N_8
REMARK    2  A    between atoms: C_2  and  N_27
REMARK    3  A    between atoms: C_3  and  O_38
REMARK    4  A    between atoms: C_9  and  C_16
REMARK    5  A    between atoms: C_11  and  N_17
REMARK    6  A    between atoms: C_28  and  C_30
REMARK    7  A    between atoms: C_35  and  O_36
REMARK                            x       y       z     vdW  Elec       q    Type
REMARK                         _______ _______ _______ _____ _____    ______ ____
ROOT
ATOM      1  C   UNL     1      35.582 -23.119 -13.774  0.00  0.00    +0.098 C 
ATOM      2  C   UNL     1      34.378 -23.519 -13.215  0.00  0.00    +0.067 C 
ATOM      3  C   UNL     1      36.776 -23.249 -13.078  0.00  0.00    +0.148 C 
ATOM      4  C   UNL     1      34.366 -24.063 -11.931  0.00  0.00    +0.016 C 
ATOM      5  C   UNL     1      36.762 -23.793 -11.794  0.00  0.00    +0.038 C 
ATOM      6  C   UNL     1      35.558 -24.199 -11.220  0.00  0.00    +0.004 C 
ENDROOT
BRANCH   1   8
ATOM      7  O   UNL     1      34.292 -24.078 -16.304  0.00  0.00    -0.270 OA
ATOM      8  N   UNL     1      35.605 -22.567 -15.079  0.00  0.00    -0.277 N 
ATOM      9  C   UNL     1      34.985 -23.049 -16.239  0.00  0.00    +0.250 C 
ATOM     10  H   UNL     1      36.123 -21.738 -15.183  0.00  0.00    +0.155 HD
BRANCH   9  16
ATOM     11  C   UNL     1      35.655 -20.771 -19.799  0.00  0.00    +0.048 C 
ATOM     12  C   UNL     1      34.396 -21.348 -19.526  0.00  0.00    +0.015 C 
ATOM     13  C   UNL     1      36.686 -20.972 -18.853  0.00  0.00    +0.015 C 
ATOM     14  C   UNL     1      34.178 -22.090 -18.365  0.00  0.00    +0.006 C 
ATOM     15  C   UNL     1      36.468 -21.715 -17.693  0.00  0.00    +0.006 C 
ATOM     16  C   UNL     1      35.213 -22.274 -17.449  0.00  0.00    +0.054 C 
BRANCH  11  17
ATOM     17  N   UNL     1      35.875 -20.030 -20.959  0.00  0.00    -0.310 N 
ATOM     18  N   UNL     1      35.047 -17.360 -20.349  0.00  0.00    +0.387 N 
ATOM     19  C   UNL     1      34.921 -20.010 -22.072  0.00  0.00    +0.089 C 
ATOM     20  C   UNL     1      33.866 -18.920 -21.882  0.00  0.00    -0.001 C 
ATOM     21  C   UNL     1      36.905 -18.989 -21.031  0.00  0.00    +0.068 C 
ATOM     22  C   UNL     1      34.427 -17.504 -21.672  0.00  0.00    -0.076 C 
ATOM     23  C   UNL     1      36.479 -17.705 -20.306  0.00  0.00    -0.056 C 
ATOM     24  C   UNL     1      34.850 -16.011 -19.817  0.00  0.00    -0.101 C 
ATOM     25  H   UNL     1      34.569 -18.043 -19.760  0.00  0.00    -0.080 HD
ENDBRANCH  11  17
ENDBRANCH   9  16
ENDBRANCH   1   8
BRANCH   2  27
ATOM     26  O   UNL     1      31.779 -24.968 -12.857  0.00  0.00    -0.270 OA
ATOM     27  N   UNL     1      33.170 -23.392 -13.908  0.00  0.00    -0.279 N 
ATOM     28  C   UNL     1      31.980 -24.098 -13.697  0.00  0.00    +0.250 C 
ATOM     29  H   UNL     1      33.154 -22.724 -14.631  0.00  0.00    +0.155 HD
BRANCH  28  30
ATOM     30  C   UNL     1      30.867 -23.756 -14.621  0.00  0.00    +0.054 C 
ATOM     31  C   UNL     1      31.101 -22.857 -15.641  0.00  0.00    +0.008 C 
ATOM     32  C   UNL     1      29.637 -24.349 -14.429  0.00  0.00    +0.008 C 
ATOM     33  C   UNL     1      30.058 -22.536 -16.508  0.00  0.00    +0.037 C 
ATOM     34  C   UNL     1      28.593 -24.028 -15.297  0.00  0.00    +0.037 C 
ATOM     35  C   UNL     1      28.803 -23.122 -16.336  0.00  0.00    +0.139 C 
BRANCH  35  36
ATOM     36  O   UNL     1      27.785 -22.810 -17.183  0.00  0.00    -0.471 OA
ATOM     37  C   UNL     1      26.747 -21.976 -16.671  0.00  0.00    +0.252 C 
ENDBRANCH  35  36
ENDBRANCH  28  30
ENDBRANCH   2  27
BRANCH   3  38
ATOM     38  O   UNL     1      37.965 -22.860 -13.618  0.00  0.00    -0.504 OA
ATOM     39  H   UNL     1      38.769 -23.103 -13.204  0.00  0.00    +0.292 HD
ENDBRANCH   3  38
TORSDOF 7
ENDMDL
MODEL 4
REMARK VINA RESULT:      -9.0      1.408      5.623
REMARK  Name = 9912771
REMARK  7 active torsions:
REMARK  status: ('A' for Active; 'I' for Inactive)
REMARK    1  A    between atoms: C_1  and  N_8
REMARK    2  A    between atoms: C_2  and  N_27
REMARK    3  A    between atoms: C_3  and  O_38
REMARK    4  A    between atoms: C_9  and  C_16
REMARK    5  A    between atoms: C_11  and  N_17
REMARK    6  A    between atoms: C_28  and  C_30
REMARK    7  A    between atoms: C_35  and  O_36
REMARK                            x       y       z     vdW  Elec       q    Type
REMARK                         _______ _______ _______ _____ _____    ______ ____
ROOT
ATOM      1  C   UNL     1      35.714 -23.503 -14.845  0.00  0.00    +0.098 C 
ATOM      2  C   UNL     1      34.694 -24.071 -14.096  0.00  0.00    +0.067 C 
ATOM      3  C   UNL     1      37.045 -23.679 -14.496  0.00  0.00    +0.148 C 
ATOM      4  C   UNL     1      35.013 -24.832 -12.972  0.00  0.00    +0.016 C 
ATOM      5  C   UNL     1      37.363 -24.440 -13.372  0.00  0.00    +0.038 C 
ATOM      6  C   UNL     1      36.347 -25.017 -12.610  0.00  0.00    +0.004 C 
ENDROOT
BRANCH   1   8
ATOM      7  O   UNL     1      33.880 -24.097 -17.141  0.00  0.00    -0.270 OA
ATOM      8  N   UNL     1      35.400 -22.729 -15.990  0.00  0.00    -0.277 N 
ATOM      9  C   UNL     1      34.534 -23.045 -17.045  0.00  0.00    +0.250 C 
ATOM     10  H   UNL     1      35.850 -21.857 -16.052  0.00  0.00    +0.155 HD
BRANCH   9  16
ATOM     11  C   UNL     1      34.245 -20.125 -20.159  0.00  0.00    +0.048 C 
ATOM     12  C   UNL     1      35.499 -20.559 -19.676  0.00  0.00    +0.015 C 
ATOM     13  C   UNL     1      33.089 -20.691 -19.576  0.00  0.00    +0.015 C 
ATOM     14  C   UNL     1      35.592 -21.511 -18.661  0.00  0.00    +0.006 C 
ATOM     15  C   UNL     1      33.182 -21.643 -18.561  0.00  0.00    +0.006 C 
ATOM     16  C   UNL     1      34.435 -22.053 -18.104  0.00  0.00    +0.054 C 
BRANCH  11  17
ATOM     17  N   UNL     1      34.150 -19.172 -21.172  0.00  0.00    -0.310 N 
ATOM     18  N   UNL     1      36.831 -18.317 -21.691  0.00  0.00    +0.387 N 
ATOM     19  C   UNL     1      33.816 -17.770 -20.906  0.00  0.00    +0.089 C 
ATOM     20  C   UNL     1      35.066 -16.947 -20.599  0.00  0.00    -0.001 C 
ATOM     21  C   UNL     1      34.671 -19.420 -22.520  0.00  0.00    +0.068 C 
ATOM     22  C   UNL     1      36.163 -17.009 -21.674  0.00  0.00    -0.076 C 
ATOM     23  C   UNL     1      36.201 -19.312 -22.577  0.00  0.00    -0.056 C 
ATOM     24  C   UNL     1      38.248 -18.182 -22.031  0.00  0.00    -0.101 C 
ATOM     25  H   UNL     1      36.730 -18.673 -20.740  0.00  0.00    -0.080 HD
ENDBRANCH  11  17
ENDBRANCH   9  16
ENDBRANCH   1   8
BRANCH   2  27
ATOM     26  O   UNL     1      32.208 -24.990 -12.698  0.00  0.00    -0.270 OA
ATOM     27  N   UNL     1      33.350 -23.899 -14.439  0.00  0.00    -0.279 N 
ATOM     28  C   UNL     1      32.222 -24.353 -13.745  0.00  0.00    +0.250 C 
ATOM     29  H   UNL     1      33.176 -23.398 -15.268  0.00  0.00    +0.155 HD
BRANCH  28  30
ATOM     30  C   UNL     1      30.916 -24.036 -14.381  0.00  0.00    +0.054 C 
ATOM     31  C   UNL     1      29.819 -24.812 -14.070  0.00  0.00    +0.008 C 
ATOM     32  C   UNL     1      30.843 -22.975 -15.259  0.00  0.00    +0.008 C 
ATOM     33  C   UNL     1      28.594 -24.515 -14.665  0.00  0.00    +0.037 C 
ATOM     34  C   UNL     1      29.617 -22.678 -15.854  0.00  0.00    +0.037 C 
ATOM     35  C   UNL     1      28.493 -23.447 -15.557  0.00  0.00    +0.139 C 
BRANCH  35  36
ATOM     36  O   UNL     1      27.296 -23.157 -16.137  0.00  0.00    -0.471 OA
ATOM     37  C   UNL     1      26.531 -22.104 -15.553  0.00  0.00    +0.252 C 
ENDBRANCH  35  36
ENDBRANCH  28  30
ENDBRANCH   2  27
BRANCH   3  38
ATOM     38  O   UNL     1      38.055 -23.127 -15.226  0.00  0.00    -0.504 OA
ATOM     39  H   UNL     1      37.863 -22.482 -15.878  0.00  0.00    +0.292 HD
ENDBRANCH   3  38
TORSDOF 7
ENDMDL
