MODEL 1
REMARK VINA RESULT:     -13.7      0.000      0.000
REMARK  Name = 16741238
REMARK  6 active torsions:
REMARK  status: ('A' for Active; 'I' for Inactive)
REMARK    1  A    between atoms: N_1  and  C_22
REMARK    2  A    between atoms: C_10  and  C_15
REMARK    3  A    between atoms: C_15  and  C_16
REMARK    4  A    between atoms: C_22  and  C_23
REMARK    5  A    between atoms: C_23  and  C_26
REMARK    6  A    between atoms: N_25  and  C_28
REMARK                            x       y       z     vdW  Elec       q    Type
REMARK                         _______ _______ _______ _____ _____    ______ ____
ROOT
ATOM      1  N   UNL     1      33.998 -13.736 -23.820  0.00  0.00    -0.249 N 
ATOM      2  N   UNL     1      33.459 -15.765 -24.992  0.00  0.00    -0.373 NA
ATOM      3  N   UNL     1      32.791 -13.721 -25.844  0.00  0.00    -0.321 N 
ATOM      4  C   UNL     1      34.704 -14.413 -22.731  0.00  0.00    +0.071 C 
ATOM      5  C   UNL     1      34.721 -15.908 -22.891  0.00  0.00    +0.045 C 
ATOM      6  C   UNL     1      33.428 -14.460 -24.871  0.00  0.00    +0.239 C 
ATOM      7  C   UNL     1      34.108 -16.513 -23.997  0.00  0.00    +0.136 C 
ATOM      8  C   UNL     1      35.357 -16.702 -21.925  0.00  0.00    +0.007 C 
ATOM      9  C   UNL     1      34.141 -17.908 -24.120  0.00  0.00    +0.032 C 
ATOM     10  C   UNL     1      35.383 -18.090 -22.058  0.00  0.00    +0.039 C 
ATOM     11  C   UNL     1      34.775 -18.693 -23.156  0.00  0.00    +0.006 C 
ATOM     12  H   UNL     1      32.757 -12.740 -25.773  0.00  0.00    +0.146 HD
ATOM     13  H   UNL     1      32.370 -14.175 -26.610  0.00  0.00    +0.146 HD
ENDROOT
BRANCH  10  15
ATOM     14  O   UNL     1      37.252 -18.756 -20.820  0.00  0.00    -0.287 OA
ATOM     15  C   UNL     1      36.042 -18.906 -21.052  0.00  0.00    +0.196 C 
BRANCH  15  16
ATOM     16  C   UNL     1      35.316 -19.943 -20.260  0.00  0.00    +0.039 C 
ATOM     17  C   UNL     1      36.031 -20.892 -19.529  0.00  0.00    +0.003 C 
ATOM     18  C   UNL     1      33.921 -19.963 -20.250  0.00  0.00    +0.003 C 
ATOM     19  C   UNL     1      35.353 -21.859 -18.789  0.00  0.00    +0.000 C 
ATOM     20  C   UNL     1      33.242 -20.931 -19.510  0.00  0.00    +0.000 C 
ATOM     21  C   UNL     1      33.959 -21.880 -18.779  0.00  0.00    +0.000 C 
ENDBRANCH  15  16
ENDBRANCH  10  15
BRANCH   1  22
ATOM     22  C   UNL     1      33.947 -12.281 -23.714  0.00  0.00    +0.109 C 
BRANCH  22  23
ATOM     23  C   UNL     1      32.982 -11.860 -22.609  0.00  0.00    +0.107 C 
BRANCH  23  26
ATOM     24  O   UNL     1      33.442  -9.585 -23.223  0.00  0.00    -0.275 OA
ATOM     25  N   UNL     1      31.938  -9.906 -21.489  0.00  0.00    -0.279 N 
ATOM     26  C   UNL     1      32.820 -10.349 -22.480  0.00  0.00    +0.227 C 
ATOM     27  C   UNL     1      31.210 -10.829 -20.619  0.00  0.00    +0.115 C 
BRANCH  25  28
ATOM     28  C   UNL     1      31.680  -8.506 -21.250  0.00  0.00    +0.075 C 
ATOM     29  C   UNL     1      31.074  -7.854 -22.495  0.00  0.00    +0.020 C 
ATOM     30  C   UNL     1      32.958  -7.787 -20.810  0.00  0.00    +0.020 C 
ATOM     31  C   UNL     1      30.840  -6.359 -22.289  0.00  0.00    +0.002 C 
ATOM     32  C   UNL     1      32.720  -6.293 -20.605  0.00  0.00    +0.002 C 
ATOM     33  C   UNL     1      32.114  -5.645 -21.846  0.00  0.00    +0.000 C 
ENDBRANCH  25  28
ENDBRANCH  23  26
ENDBRANCH  22  23
ENDBRANCH   1  22
TORSDOF 6
ENDMDL
MODEL 2
REMARK VINA RESULT:     -12.1      6.290     10.941
REMARK  Name = 16741238
REMARK  6 active torsions:
REMARK  status: ('A' for Active; 'I' for Inactive)
REMARK    1  A    between atoms: N_1  and  C_22
REMARK    2  A    between atoms: C_10  and  C_15
REMARK    3  A    between atoms: C_15  and  C_16
REMARK    4  A    between atoms: C_22  and  C_23
REMARK    5  A    between atoms: C_23  and  C_26
REMARK    6  A    between atoms: N_25  and  C_28
REMARK                            x       y       z     vdW  Elec       q    Type
REMARK                         _______ _______ _______ _____ _____    ______ ____
ROOT
ATOM      1  N   UNL     1      36.120 -22.422 -16.473  0.00  0.00    -0.249 N 
ATOM      2  N   UNL     1      36.550 -23.497 -14.365  0.00  0.00    -0.373 NA
ATOM      3  N   UNL     1      38.312 -22.815 -15.699  0.00  0.00    -0.321 N 
ATOM      4  C   UNL     1      34.664 -22.486 -16.342  0.00  0.00    +0.071 C 
ATOM      5  C   UNL     1      34.223 -23.143 -15.064  0.00  0.00    +0.045 C 
ATOM      6  C   UNL     1      36.958 -22.931 -15.475  0.00  0.00    +0.239 C 
ATOM      7  C   UNL     1      35.169 -23.614 -14.142  0.00  0.00    +0.136 C 
ATOM      8  C   UNL     1      32.855 -23.285 -14.792  0.00  0.00    +0.007 C 
ATOM      9  C   UNL     1      34.730 -24.221 -12.959  0.00  0.00    +0.032 C 
ATOM     10  C   UNL     1      32.429 -23.892 -13.611  0.00  0.00    +0.039 C 
ATOM     11  C   UNL     1      33.367 -24.360 -12.694  0.00  0.00    +0.006 C 
ATOM     12  H   UNL     1      38.639 -22.392 -16.526  0.00  0.00    +0.146 HD
ATOM     13  H   UNL     1      38.952 -23.154 -15.033  0.00  0.00    +0.146 HD
ENDROOT
BRANCH  10  15
ATOM     14  O   UNL     1      30.619 -24.363 -12.206  0.00  0.00    -0.287 OA
ATOM     15  C   UNL     1      31.009 -24.036 -13.337  0.00  0.00    +0.196 C 
BRANCH  15  16
ATOM     16  C   UNL     1      29.964 -23.801 -14.380  0.00  0.00    +0.039 C 
ATOM     17  C   UNL     1      29.401 -22.535 -14.530  0.00  0.00    +0.003 C 
ATOM     18  C   UNL     1      29.554 -24.849 -15.204  0.00  0.00    +0.003 C 
ATOM     19  C   UNL     1      28.427 -22.315 -15.504  0.00  0.00    +0.000 C 
ATOM     20  C   UNL     1      28.580 -24.630 -16.178  0.00  0.00    +0.000 C 
ATOM     21  C   UNL     1      28.016 -23.363 -16.327  0.00  0.00    +0.000 C 
ENDBRANCH  15  16
ENDBRANCH  10  15
BRANCH   1  22
ATOM     22  C   UNL     1      36.605 -21.796 -17.699  0.00  0.00    +0.109 C 
BRANCH  22  23
ATOM     23  C   UNL     1      35.492 -21.729 -18.740  0.00  0.00    +0.107 C 
BRANCH  23  26
ATOM     24  O   UNL     1      36.681 -20.011 -19.925  0.00  0.00    -0.275 OA
ATOM     25  N   UNL     1      34.376 -20.034 -20.170  0.00  0.00    -0.279 N 
ATOM     26  C   UNL     1      35.586 -20.516 -19.661  0.00  0.00    +0.227 C 
ATOM     27  C   UNL     1      33.089 -20.646 -19.844  0.00  0.00    +0.115 C 
BRANCH  25  28
ATOM     28  C   UNL     1      34.307 -18.896 -21.055  0.00  0.00    +0.075 C 
ATOM     29  C   UNL     1      34.579 -19.322 -22.499  0.00  0.00    +0.020 C 
ATOM     30  C   UNL     1      35.277 -17.800 -20.605  0.00  0.00    +0.020 C 
ATOM     31  C   UNL     1      34.565 -18.129 -23.451  0.00  0.00    +0.002 C 
ATOM     32  C   UNL     1      35.260 -16.608 -21.559  0.00  0.00    +0.002 C 
ATOM     33  C   UNL     1      35.530 -17.036 -22.998  0.00  0.00    +0.000 C 
ENDBRANCH  25  28
ENDBRANCH  23  26
ENDBRANCH  22  23
ENDBRANCH   1  22
TORSDOF 6
ENDMDL
MODEL 3
REMARK VINA RESULT:     -12.0      2.316     10.326
REMARK  Name = 16741238
REMARK  6 active torsions:
REMARK  status: ('A' for Active; 'I' for Inactive)
REMARK    1  A    between atoms: N_1  and  C_22
REMARK    2  A    between atoms: C_10  and  C_15
REMARK    3  A    between atoms: C_15  and  C_16
REMARK    4  A    between atoms: C_22  and  C_23
REMARK    5  A    between atoms: C_23  and  C_26
REMARK    6  A    between atoms: N_25  and  C_28
REMARK                            x       y       z     vdW  Elec       q    Type
REMARK                         _______ _______ _______ _____ _____    ______ ____
ROOT
ATOM      1  N   UNL     1      35.260 -17.794 -22.538  0.00  0.00    -0.249 N 
ATOM      2  N   UNL     1      34.065 -17.367 -24.581  0.00  0.00    -0.373 NA
ATOM      3  N   UNL     1      34.704 -19.523 -24.040  0.00  0.00    -0.321 N 
ATOM      4  C   UNL     1      35.269 -16.393 -22.113  0.00  0.00    +0.071 C 
ATOM      5  C   UNL     1      34.588 -15.483 -23.097  0.00  0.00    +0.045 C 
ATOM      6  C   UNL     1      34.658 -18.179 -23.740  0.00  0.00    +0.239 C 
ATOM      7  C   UNL     1      34.022 -15.999 -24.271  0.00  0.00    +0.136 C 
ATOM      8  C   UNL     1      34.517 -14.107 -22.835  0.00  0.00    +0.007 C 
ATOM      9  C   UNL     1      33.393 -15.127 -25.168  0.00  0.00    +0.032 C 
ATOM     10  C   UNL     1      33.888 -13.248 -23.736  0.00  0.00    +0.039 C 
ATOM     11  C   UNL     1      33.325 -13.759 -24.903  0.00  0.00    +0.006 C 
ATOM     12  H   UNL     1      35.144 -20.151 -23.421  0.00  0.00    +0.146 HD
ATOM     13  H   UNL     1      34.298 -19.856 -24.872  0.00  0.00    +0.146 HD
ENDROOT
BRANCH  10  15
ATOM     14  O   UNL     1      34.545 -11.029 -24.076  0.00  0.00    -0.287 OA
ATOM     15  C   UNL     1      33.819 -11.823 -23.458  0.00  0.00    +0.196 C 
BRANCH  15  16
ATOM     16  C   UNL     1      32.890 -11.250 -22.438  0.00  0.00    +0.039 C 
ATOM     17  C   UNL     1      32.281 -12.085 -21.501  0.00  0.00    +0.003 C 
ATOM     18  C   UNL     1      32.633  -9.879 -22.421  0.00  0.00    +0.003 C 
ATOM     19  C   UNL     1      31.415 -11.550 -20.548  0.00  0.00    +0.000 C 
ATOM     20  C   UNL     1      31.767  -9.344 -21.468  0.00  0.00    +0.000 C 
ATOM     21  C   UNL     1      31.157 -10.179 -20.532  0.00  0.00    +0.000 C 
ENDBRANCH  15  16
ENDBRANCH  10  15
BRANCH   1  22
ATOM     22  C   UNL     1      35.913 -18.723 -21.622  0.00  0.00    +0.109 C 
BRANCH  22  23
ATOM     23  C   UNL     1      34.875 -19.568 -20.889  0.00  0.00    +0.107 C 
BRANCH  23  26
ATOM     24  O   UNL     1      36.698 -20.614 -19.728  0.00  0.00    -0.275 OA
ATOM     25  N   UNL     1      34.562 -21.247 -19.088  0.00  0.00    -0.279 N 
ATOM     26  C   UNL     1      35.475 -20.517 -19.856  0.00  0.00    +0.227 C 
ATOM     27  C   UNL     1      33.116 -21.119 -19.255  0.00  0.00    +0.115 C 
BRANCH  25  28
ATOM     28  C   UNL     1      34.981 -22.183 -18.071  0.00  0.00    +0.075 C 
ATOM     29  C   UNL     1      33.784 -22.627 -17.227  0.00  0.00    +0.020 C 
ATOM     30  C   UNL     1      36.084 -21.578 -17.199  0.00  0.00    +0.020 C 
ATOM     31  C   UNL     1      34.205 -23.577 -16.108  0.00  0.00    +0.002 C 
ATOM     32  C   UNL     1      36.503 -22.530 -16.081  0.00  0.00    +0.002 C 
ATOM     33  C   UNL     1      35.308 -22.974 -15.243  0.00  0.00    +0.000 C 
ENDBRANCH  25  28
ENDBRANCH  23  26
ENDBRANCH  22  23
ENDBRANCH   1  22
TORSDOF 6
ENDMDL
MODEL 4
REMARK VINA RESULT:     -11.9      4.521      8.033
REMARK  Name = 16741238
REMARK  6 active torsions:
REMARK  status: ('A' for Active; 'I' for Inactive)
REMARK    1  A    between atoms: N_1  and  C_22
REMARK    2  A    between atoms: C_10  and  C_15
REMARK    3  A    between atoms: C_15  and  C_16
REMARK    4  A    between atoms: C_22  and  C_23
REMARK    5  A    between atoms: C_23  and  C_26
REMARK    6  A    between atoms: N_25  and  C_28
REMARK                            x       y       z     vdW  Elec       q    Type
REMARK                         _______ _______ _______ _____ _____    ______ ____
ROOT
ATOM      1  N   UNL     1      34.786 -20.631 -19.900  0.00  0.00    -0.249 N 
ATOM      2  N   UNL     1      33.259 -21.749 -18.417  0.00  0.00    -0.373 NA
ATOM      3  N   UNL     1      32.467 -20.692 -20.316  0.00  0.00    -0.321 N 
ATOM      4  C   UNL     1      35.976 -20.957 -19.111  0.00  0.00    +0.071 C 
ATOM      5  C   UNL     1      35.654 -21.752 -17.877  0.00  0.00    +0.045 C 
ATOM      6  C   UNL     1      33.515 -21.051 -19.497  0.00  0.00    +0.239 C 
ATOM      7  C   UNL     1      34.331 -22.110 -17.585  0.00  0.00    +0.136 C 
ATOM      8  C   UNL     1      36.688 -22.139 -17.012  0.00  0.00    +0.007 C 
ATOM      9  C   UNL     1      34.061 -22.852 -16.428  0.00  0.00    +0.032 C 
ATOM     10  C   UNL     1      36.408 -22.877 -15.863  0.00  0.00    +0.039 C 
ATOM     11  C   UNL     1      35.094 -23.234 -15.571  0.00  0.00    +0.006 C 
ATOM     12  H   UNL     1      32.637 -20.169 -21.133  0.00  0.00    +0.146 HD
ATOM     13  H   UNL     1      31.548 -20.959 -20.084  0.00  0.00    +0.146 HD
ENDROOT
BRANCH  10  15
ATOM     14  O   UNL     1      38.668 -23.116 -15.309  0.00  0.00    -0.287 OA
ATOM     15  C   UNL     1      37.485 -23.274 -14.971  0.00  0.00    +0.196 C 
BRANCH  15  16
ATOM     16  C   UNL     1      37.231 -23.877 -13.628  0.00  0.00    +0.039 C 
ATOM     17  C   UNL     1      37.322 -25.258 -13.455  0.00  0.00    +0.003 C 
ATOM     18  C   UNL     1      36.904 -23.059 -12.546  0.00  0.00    +0.003 C 
ATOM     19  C   UNL     1      37.087 -25.821 -12.201  0.00  0.00    +0.000 C 
ATOM     20  C   UNL     1      36.669 -23.622 -11.292  0.00  0.00    +0.000 C 
ATOM     21  C   UNL     1      36.759 -25.003 -11.119  0.00  0.00    +0.000 C 
ENDBRANCH  15  16
ENDBRANCH  10  15
BRANCH   1  22
ATOM     22  C   UNL     1      35.039 -19.854 -21.110  0.00  0.00    +0.109 C 
BRANCH  22  23
ATOM     23  C   UNL     1      35.445 -18.427 -20.753  0.00  0.00    +0.107 C 
BRANCH  23  26
ATOM     24  O   UNL     1      35.549 -17.838 -23.079  0.00  0.00    -0.275 OA
ATOM     25  N   UNL     1      35.032 -16.130 -21.599  0.00  0.00    -0.279 N 
ATOM     26  C   UNL     1      35.351 -17.453 -21.924  0.00  0.00    +0.227 C 
ATOM     27  C   UNL     1      34.802 -15.694 -20.223  0.00  0.00    +0.115 C 
BRANCH  25  28
ATOM     28  C   UNL     1      34.907 -15.096 -22.599  0.00  0.00    +0.075 C 
ATOM     29  C   UNL     1      34.465 -13.780 -21.956  0.00  0.00    +0.020 C 
ATOM     30  C   UNL     1      33.941 -15.528 -23.706  0.00  0.00    +0.020 C 
ATOM     31  C   UNL     1      34.272 -12.681 -22.998  0.00  0.00    +0.002 C 
ATOM     32  C   UNL     1      33.751 -14.427 -24.747  0.00  0.00    +0.002 C 
ATOM     33  C   UNL     1      33.313 -13.115 -24.103  0.00  0.00    +0.000 C 
ENDBRANCH  25  28
ENDBRANCH  23  26
ENDBRANCH  22  23
ENDBRANCH   1  22
TORSDOF 6
ENDMDL
MODEL 5
REMARK VINA RESULT:     -11.8      2.020     11.339
REMARK  Name = 16741238
REMARK  6 active torsions:
REMARK  status: ('A' for Active; 'I' for Inactive)
REMARK    1  A    between atoms: N_1  and  C_22
REMARK    2  A    between atoms: C_10  and  C_15
REMARK    3  A    between atoms: C_15  and  C_16
REMARK    4  A    between atoms: C_22  and  C_23
REMARK    5  A    between atoms: C_23  and  C_26
REMARK    6  A    between atoms: N_25  and  C_28
REMARK                            x       y       z     vdW  Elec       q    Type
REMARK                         _______ _______ _______ _____ _____    ______ ____
ROOT
ATOM      1  N   UNL     1      32.893 -12.725 -22.209  0.00  0.00    -0.249 N 
ATOM      2  N   UNL     1      31.922 -11.451 -20.415  0.00  0.00    -0.373 NA
ATOM      3  N   UNL     1      32.002 -13.759 -20.287  0.00  0.00    -0.321 N 
ATOM      4  C   UNL     1      33.226 -11.551 -23.019  0.00  0.00    +0.071 C 
ATOM      5  C   UNL     1      32.816 -10.260 -22.367  0.00  0.00    +0.045 C 
ATOM      6  C   UNL     1      32.266 -12.589 -20.966  0.00  0.00    +0.239 C 
ATOM      7  C   UNL     1      32.191 -10.262 -21.112  0.00  0.00    +0.136 C 
ATOM      8  C   UNL     1      33.062  -9.044 -23.020  0.00  0.00    +0.007 C 
ATOM      9  C   UNL     1      31.822  -9.044 -20.529  0.00  0.00    +0.032 C 
ATOM     10  C   UNL     1      32.690  -7.837 -22.430  0.00  0.00    +0.039 C 
ATOM     11  C   UNL     1      32.069  -7.837 -21.183  0.00  0.00    +0.006 C 
ATOM     12  H   UNL     1      32.254 -14.625 -20.683  0.00  0.00    +0.146 HD
ATOM     13  H   UNL     1      31.562 -13.728 -19.407  0.00  0.00    +0.146 HD
ENDROOT
BRANCH  10  15
ATOM     14  O   UNL     1      33.787  -6.526 -24.027  0.00  0.00    -0.287 OA
ATOM     15  C   UNL     1      32.948  -6.581 -23.114  0.00  0.00    +0.196 C 
BRANCH  15  16
ATOM     16  C   UNL     1      32.232  -5.317 -22.765  0.00  0.00    +0.039 C 
ATOM     17  C   UNL     1      31.375  -4.721 -23.691  0.00  0.00    +0.003 C 
ATOM     18  C   UNL     1      32.420  -4.731 -21.513  0.00  0.00    +0.003 C 
ATOM     19  C   UNL     1      30.706  -3.542 -23.364  0.00  0.00    +0.000 C 
ATOM     20  C   UNL     1      31.751  -3.552 -21.186  0.00  0.00    +0.000 C 
ATOM     21  C   UNL     1      30.895  -2.957 -22.112  0.00  0.00    +0.000 C 
ENDBRANCH  15  16
ENDBRANCH  10  15
BRANCH   1  22
ATOM     22  C   UNL     1      33.264 -14.008 -22.796  0.00  0.00    +0.109 C 
BRANCH  22  23
ATOM     23  C   UNL     1      34.718 -14.341 -22.474  0.00  0.00    +0.107 C 
BRANCH  23  26
ATOM     24  O   UNL     1      34.806 -15.047 -20.180  0.00  0.00    -0.275 OA
ATOM     25  N   UNL     1      35.106 -16.694 -21.784  0.00  0.00    -0.279 N 
ATOM     26  C   UNL     1      34.879 -15.378 -21.367  0.00  0.00    +0.227 C 
ATOM     27  C   UNL     1      35.190 -17.065 -23.195  0.00  0.00    +0.115 C 
BRANCH  25  28
ATOM     28  C   UNL     1      35.275 -17.783 -20.852  0.00  0.00    +0.075 C 
ATOM     29  C   UNL     1      36.689 -18.361 -20.955  0.00  0.00    +0.020 C 
ATOM     30  C   UNL     1      34.214 -18.862 -21.081  0.00  0.00    +0.020 C 
ATOM     31  C   UNL     1      36.880 -19.551 -20.017  0.00  0.00    +0.002 C 
ATOM     32  C   UNL     1      34.408 -20.051 -20.142  0.00  0.00    +0.002 C 
ATOM     33  C   UNL     1      35.818 -20.623 -20.245  0.00  0.00    +0.000 C 
ENDBRANCH  25  28
ENDBRANCH  23  26
ENDBRANCH  22  23
ENDBRANCH   1  22
TORSDOF 6
ENDMDL
MODEL 6
REMARK VINA RESULT:     -11.8      5.468      9.841
REMARK  Name = 16741238
REMARK  6 active torsions:
REMARK  status: ('A' for Active; 'I' for Inactive)
REMARK    1  A    between atoms: N_1  and  C_22
REMARK    2  A    between atoms: C_10  and  C_15
REMARK    3  A    between atoms: C_15  and  C_16
REMARK    4  A    between atoms: C_22  and  C_23
REMARK    5  A    between atoms: C_23  and  C_26
REMARK    6  A    between atoms: N_25  and  C_28
REMARK                            x       y       z     vdW  Elec       q    Type
REMARK                         _______ _______ _______ _____ _____    ______ ____
ROOT
ATOM      1  N   UNL     1      34.631 -22.099 -18.585  0.00  0.00    -0.249 N 
ATOM      2  N   UNL     1      32.494 -22.576 -17.590  0.00  0.00    -0.373 NA
ATOM      3  N   UNL     1      32.618 -21.875 -19.791  0.00  0.00    -0.321 N 
ATOM      4  C   UNL     1      35.396 -22.423 -17.380  0.00  0.00    +0.071 C 
ATOM      5  C   UNL     1      34.522 -22.846 -16.233  0.00  0.00    +0.045 C 
ATOM      6  C   UNL     1      33.236 -22.200 -18.603  0.00  0.00    +0.239 C 
ATOM      7  C   UNL     1      33.130 -22.905 -16.382  0.00  0.00    +0.136 C 
ATOM      8  C   UNL     1      35.106 -23.185 -15.004  0.00  0.00    +0.007 C 
ATOM      9  C   UNL     1      32.340 -23.303 -15.296  0.00  0.00    +0.032 C 
ATOM     10  C   UNL     1      34.310 -23.580 -13.929  0.00  0.00    +0.039 C 
ATOM     11  C   UNL     1      32.927 -23.640 -14.075  0.00  0.00    +0.006 C 
ATOM     12  H   UNL     1      33.156 -21.591 -20.565  0.00  0.00    +0.146 HD
ATOM     13  H   UNL     1      31.637 -21.927 -19.865  0.00  0.00    +0.146 HD
ENDROOT
BRANCH  10  15
ATOM     14  O   UNL     1      34.272 -23.847 -11.605  0.00  0.00    -0.287 OA
ATOM     15  C   UNL     1      34.923 -23.929 -12.658  0.00  0.00    +0.196 C 
BRANCH  15  16
ATOM     16  C   UNL     1      36.338 -24.398 -12.554  0.00  0.00    +0.039 C 
ATOM     17  C   UNL     1      37.268 -23.655 -11.827  0.00  0.00    +0.003 C 
ATOM     18  C   UNL     1      36.729 -25.581 -13.183  0.00  0.00    +0.003 C 
ATOM     19  C   UNL     1      38.588 -24.094 -11.729  0.00  0.00    +0.000 C 
ATOM     20  C   UNL     1      38.050 -26.019 -13.085  0.00  0.00    +0.000 C 
ATOM     21  C   UNL     1      38.979 -25.275 -12.358  0.00  0.00    +0.000 C 
ENDBRANCH  15  16
ENDBRANCH  10  15
BRANCH   1  22
ATOM     22  C   UNL     1      35.429 -21.677 -19.732  0.00  0.00    +0.109 C 
BRANCH  22  23
ATOM     23  C   UNL     1      35.743 -20.186 -19.644  0.00  0.00    +0.107 C 
BRANCH  23  26
ATOM     24  O   UNL     1      33.628 -19.361 -20.426  0.00  0.00    -0.275 OA
ATOM     25  N   UNL     1      35.521 -18.498 -21.450  0.00  0.00    -0.279 N 
ATOM     26  C   UNL     1      34.857 -19.319 -20.533  0.00  0.00    +0.227 C 
ATOM     27  C   UNL     1      36.977 -18.464 -21.561  0.00  0.00    +0.115 C 
BRANCH  25  28
ATOM     28  C   UNL     1      34.816 -17.622 -22.356  0.00  0.00    +0.075 C 
ATOM     29  C   UNL     1      34.613 -18.303 -23.711  0.00  0.00    +0.020 C 
ATOM     30  C   UNL     1      35.556 -16.290 -22.507  0.00  0.00    +0.020 C 
ATOM     31  C   UNL     1      33.916 -17.379 -24.707  0.00  0.00    +0.002 C 
ATOM     32  C   UNL     1      34.857 -15.368 -23.503  0.00  0.00    +0.002 C 
ATOM     33  C   UNL     1      34.654 -16.050 -24.852  0.00  0.00    +0.000 C 
ENDBRANCH  25  28
ENDBRANCH  23  26
ENDBRANCH  22  23
ENDBRANCH   1  22
TORSDOF 6
ENDMDL
MODEL 7
REMARK VINA RESULT:     -11.8      2.296     11.062
REMARK  Name = 16741238
REMARK  6 active torsions:
REMARK  status: ('A' for Active; 'I' for Inactive)
REMARK    1  A    between atoms: N_1  and  C_22
REMARK    2  A    between atoms: C_10  and  C_15
REMARK    3  A    between atoms: C_15  and  C_16
REMARK    4  A    between atoms: C_22  and  C_23
REMARK    5  A    between atoms: C_23  and  C_26
REMARK    6  A    between atoms: N_25  and  C_28
REMARK                            x       y       z     vdW  Elec       q    Type
REMARK                         _______ _______ _______ _____ _____    ______ ____
ROOT
ATOM      1  N   UNL     1      32.529 -11.996 -22.056  0.00  0.00    -0.249 N 
ATOM      2  N   UNL     1      31.907 -11.116 -19.906  0.00  0.00    -0.373 NA
ATOM      3  N   UNL     1      31.983 -13.402 -20.246  0.00  0.00    -0.321 N 
ATOM      4  C   UNL     1      32.726 -10.681 -22.668  0.00  0.00    +0.071 C 
ATOM      5  C   UNL     1      32.453  -9.550 -21.716  0.00  0.00    +0.045 C 
ATOM      6  C   UNL     1      32.135 -12.118 -20.720  0.00  0.00    +0.239 C 
ATOM      7  C   UNL     1      32.062  -9.809 -20.396  0.00  0.00    +0.136 C 
ATOM      8  C   UNL     1      32.593  -8.225 -22.154  0.00  0.00    +0.007 C 
ATOM      9  C   UNL     1      31.815  -8.735 -19.531  0.00  0.00    +0.032 C 
ATOM     10  C   UNL     1      32.345  -7.163 -21.284  0.00  0.00    +0.039 C 
ATOM     11  C   UNL     1      31.956  -7.419 -19.972  0.00  0.00    +0.006 C 
ATOM     12  H   UNL     1      32.150 -14.170 -20.840  0.00  0.00    +0.146 HD
ATOM     13  H   UNL     1      31.707 -13.553 -19.312  0.00  0.00    +0.146 HD
ENDROOT
BRANCH  10  15
ATOM     14  O   UNL     1      32.324  -4.847 -20.962  0.00  0.00    -0.287 OA
ATOM     15  C   UNL     1      32.491  -5.793 -21.747  0.00  0.00    +0.196 C 
BRANCH  15  16
ATOM     16  C   UNL     1      32.845  -5.458 -23.159  0.00  0.00    +0.039 C 
ATOM     17  C   UNL     1      34.163  -5.584 -23.597  0.00  0.00    +0.003 C 
ATOM     18  C   UNL     1      31.857  -5.019 -24.041  0.00  0.00    +0.003 C 
ATOM     19  C   UNL     1      34.493  -5.273 -24.915  0.00  0.00    +0.000 C 
ATOM     20  C   UNL     1      32.187  -4.707 -25.359  0.00  0.00    +0.000 C 
ATOM     21  C   UNL     1      33.506  -4.833 -25.797  0.00  0.00    +0.000 C 
ENDBRANCH  15  16
ENDBRANCH  10  15
BRANCH   1  22
ATOM     22  C   UNL     1      32.776 -13.133 -22.937  0.00  0.00    +0.109 C 
BRANCH  22  23
ATOM     23  C   UNL     1      34.274 -13.399 -23.058  0.00  0.00    +0.107 C 
BRANCH  23  26
ATOM     24  O   UNL     1      34.882 -14.717 -21.145  0.00  0.00    -0.275 OA
ATOM     25  N   UNL     1      34.942 -15.785 -23.202  0.00  0.00    -0.279 N 
ATOM     26  C   UNL     1      34.726 -14.682 -22.369  0.00  0.00    +0.227 C 
ATOM     27  C   UNL     1      34.752 -15.723 -24.649  0.00  0.00    +0.115 C 
BRANCH  25  28
ATOM     28  C   UNL     1      35.370 -17.067 -22.694  0.00  0.00    +0.075 C 
ATOM     29  C   UNL     1      34.533 -18.192 -23.307  0.00  0.00    +0.020 C 
ATOM     30  C   UNL     1      35.304 -17.093 -21.164  0.00  0.00    +0.020 C 
ATOM     31  C   UNL     1      34.928 -19.557 -22.747  0.00  0.00    +0.002 C 
ATOM     32  C   UNL     1      35.699 -18.459 -20.608  0.00  0.00    +0.002 C 
ATOM     33  C   UNL     1      34.865 -19.579 -21.222  0.00  0.00    +0.000 C 
ENDBRANCH  25  28
ENDBRANCH  23  26
ENDBRANCH  22  23
ENDBRANCH   1  22
TORSDOF 6
ENDMDL
MODEL 8
REMARK VINA RESULT:     -11.8      3.214      5.772
REMARK  Name = 16741238
REMARK  6 active torsions:
REMARK  status: ('A' for Active; 'I' for Inactive)
REMARK    1  A    between atoms: N_1  and  C_22
REMARK    2  A    between atoms: C_10  and  C_15
REMARK    3  A    between atoms: C_15  and  C_16
REMARK    4  A    between atoms: C_22  and  C_23
REMARK    5  A    between atoms: C_23  and  C_26
REMARK    6  A    between atoms: N_25  and  C_28
REMARK                            x       y       z     vdW  Elec       q    Type
REMARK                         _______ _______ _______ _____ _____    ______ ____
ROOT
ATOM      1  N   UNL     1      35.152 -18.708 -21.737  0.00  0.00    -0.249 N 
ATOM      2  N   UNL     1      36.894 -19.262 -20.174  0.00  0.00    -0.373 NA
ATOM      3  N   UNL     1      37.222 -17.582 -21.730  0.00  0.00    -0.321 N 
ATOM      4  C   UNL     1      34.214 -19.709 -21.226  0.00  0.00    +0.071 C 
ATOM      5  C   UNL     1      34.780 -20.507 -20.085  0.00  0.00    +0.045 C 
ATOM      6  C   UNL     1      36.423 -18.557 -21.174  0.00  0.00    +0.239 C 
ATOM      7  C   UNL     1      36.076 -20.255 -19.613  0.00  0.00    +0.136 C 
ATOM      8  C   UNL     1      34.004 -21.511 -19.487  0.00  0.00    +0.007 C 
ATOM      9  C   UNL     1      36.576 -21.013 -18.547  0.00  0.00    +0.032 C 
ATOM     10  C   UNL     1      34.513 -22.261 -18.427  0.00  0.00    +0.039 C 
ATOM     11  C   UNL     1      35.800 -22.011 -17.957  0.00  0.00    +0.006 C 
ATOM     12  H   UNL     1      36.888 -17.040 -22.481  0.00  0.00    +0.146 HD
ATOM     13  H   UNL     1      38.128 -17.428 -21.376  0.00  0.00    +0.146 HD
ENDROOT
BRANCH  10  15
ATOM     14  O   UNL     1      33.502 -24.370 -18.409  0.00  0.00    -0.287 OA
ATOM     15  C   UNL     1      33.702 -23.300 -17.814  0.00  0.00    +0.196 C 
BRANCH  15  16
ATOM     16  C   UNL     1      33.082 -23.140 -16.464  0.00  0.00    +0.039 C 
ATOM     17  C   UNL     1      31.714 -22.900 -16.349  0.00  0.00    +0.003 C 
ATOM     18  C   UNL     1      33.873 -23.232 -15.318  0.00  0.00    +0.003 C 
ATOM     19  C   UNL     1      31.135 -22.752 -15.089  0.00  0.00    +0.000 C 
ATOM     20  C   UNL     1      33.294 -23.084 -14.058  0.00  0.00    +0.000 C 
ATOM     21  C   UNL     1      31.925 -22.843 -13.943  0.00  0.00    +0.000 C 
ENDBRANCH  15  16
ENDBRANCH  10  15
BRANCH   1  22
ATOM     22  C   UNL     1      34.656 -17.906 -22.851  0.00  0.00    +0.109 C 
BRANCH  22  23
ATOM     23  C   UNL     1      35.312 -16.528 -22.849  0.00  0.00    +0.107 C 
BRANCH  23  26
ATOM     24  O   UNL     1      33.872 -15.267 -24.300  0.00  0.00    -0.275 OA
ATOM     25  N   UNL     1      34.050 -14.522 -22.112  0.00  0.00    -0.279 N 
ATOM     26  C   UNL     1      34.348 -15.390 -23.167  0.00  0.00    +0.227 C 
ATOM     27  C   UNL     1      34.624 -14.684 -20.778  0.00  0.00    +0.115 C 
BRANCH  25  28
ATOM     28  C   UNL     1      33.153 -13.401 -22.261  0.00  0.00    +0.075 C 
ATOM     29  C   UNL     1      33.897 -12.191 -22.831  0.00  0.00    +0.020 C 
ATOM     30  C   UNL     1      32.480 -13.063 -20.927  0.00  0.00    +0.020 C 
ATOM     31  C   UNL     1      32.984 -10.973 -22.950  0.00  0.00    +0.002 C 
ATOM     32  C   UNL     1      31.568 -11.845 -21.049  0.00  0.00    +0.002 C 
ATOM     33  C   UNL     1      32.312 -10.642 -21.621  0.00  0.00    +0.000 C 
ENDBRANCH  25  28
ENDBRANCH  23  26
ENDBRANCH  22  23
ENDBRANCH   1  22
TORSDOF 6
ENDMDL
MODEL 9
REMARK VINA RESULT:     -11.7      4.952     11.532
REMARK  Name = 16741238
REMARK  6 active torsions:
REMARK  status: ('A' for Active; 'I' for Inactive)
REMARK    1  A    between atoms: N_1  and  C_22
REMARK    2  A    between atoms: C_10  and  C_15
REMARK    3  A    between atoms: C_15  and  C_16
REMARK    4  A    between atoms: C_22  and  C_23
REMARK    5  A    between atoms: C_23  and  C_26
REMARK    6  A    between atoms: N_25  and  C_28
REMARK                            x       y       z     vdW  Elec       q    Type
REMARK                         _______ _______ _______ _____ _____    ______ ____
ROOT
ATOM      1  N   UNL     1      35.005 -21.470 -19.520  0.00  0.00    -0.249 N 
ATOM      2  N   UNL     1      36.794 -19.866 -19.601  0.00  0.00    -0.373 NA
ATOM      3  N   UNL     1      36.818 -21.550 -18.016  0.00  0.00    -0.321 N 
ATOM      4  C   UNL     1      34.273 -20.886 -20.646  0.00  0.00    +0.071 C 
ATOM      5  C   UNL     1      34.959 -19.678 -21.220  0.00  0.00    +0.045 C 
ATOM      6  C   UNL     1      36.212 -20.919 -19.080  0.00  0.00    +0.239 C 
ATOM      7  C   UNL     1      36.172 -19.225 -20.683  0.00  0.00    +0.136 C 
ATOM      8  C   UNL     1      34.380 -19.001 -22.303  0.00  0.00    +0.007 C 
ATOM      9  C   UNL     1      36.788 -18.098 -21.240  0.00  0.00    +0.032 C 
ATOM     10  C   UNL     1      35.002 -17.879 -22.850  0.00  0.00    +0.039 C 
ATOM     11  C   UNL     1      36.208 -17.428 -22.318  0.00  0.00    +0.006 C 
ATOM     12  H   UNL     1      36.398 -22.344 -17.611  0.00  0.00    +0.146 HD
ATOM     13  H   UNL     1      37.670 -21.209 -17.661  0.00  0.00    +0.146 HD
ENDROOT
BRANCH  10  15
ATOM     14  O   UNL     1      34.073 -17.805 -24.995  0.00  0.00    -0.287 OA
ATOM     15  C   UNL     1      34.395 -17.183 -23.971  0.00  0.00    +0.196 C 
BRANCH  15  16
ATOM     16  C   UNL     1      34.130 -15.713 -23.952  0.00  0.00    +0.039 C 
ATOM     17  C   UNL     1      33.461 -15.110 -25.017  0.00  0.00    +0.003 C 
ATOM     18  C   UNL     1      34.549 -14.942 -22.867  0.00  0.00    +0.003 C 
ATOM     19  C   UNL     1      33.213 -13.738 -24.999  0.00  0.00    +0.000 C 
ATOM     20  C   UNL     1      34.300 -13.570 -22.848  0.00  0.00    +0.000 C 
ATOM     21  C   UNL     1      33.632 -12.968 -23.915  0.00  0.00    +0.000 C 
ENDBRANCH  15  16
ENDBRANCH  10  15
BRANCH   1  22
ATOM     22  C   UNL     1      34.382 -22.645 -18.919  0.00  0.00    +0.109 C 
BRANCH  22  23
ATOM     23  C   UNL     1      33.232 -22.231 -18.005  0.00  0.00    +0.107 C 
BRANCH  23  26
ATOM     24  O   UNL     1      34.175 -23.568 -16.248  0.00  0.00    -0.275 OA
ATOM     25  N   UNL     1      31.911 -23.092 -16.088  0.00  0.00    -0.279 N 
ATOM     26  C   UNL     1      33.165 -23.026 -16.705  0.00  0.00    +0.227 C 
ATOM     27  C   UNL     1      30.727 -22.444 -16.647  0.00  0.00    +0.115 C 
BRANCH  25  28
ATOM     28  C   UNL     1      31.694 -23.806 -14.852  0.00  0.00    +0.075 C 
ATOM     29  C   UNL     1      30.382 -24.592 -14.911  0.00  0.00    +0.020 C 
ATOM     30  C   UNL     1      31.716 -22.846 -13.660  0.00  0.00    +0.020 C 
ATOM     31  C   UNL     1      30.098 -25.315 -13.597  0.00  0.00    +0.002 C 
ATOM     32  C   UNL     1      31.433 -23.572 -12.347  0.00  0.00    +0.002 C 
ATOM     33  C   UNL     1      30.125 -24.356 -12.410  0.00  0.00    +0.000 C 
ENDBRANCH  25  28
ENDBRANCH  23  26
ENDBRANCH  22  23
ENDBRANCH   1  22
TORSDOF 6
ENDMDL
