MODEL 1
REMARK VINA RESULT:     -11.4      0.000      0.000
REMARK  Name = 446345
REMARK  6 active torsions:
REMARK  status: ('A' for Active; 'I' for Inactive)
REMARK    1  A    between atoms: N_2  and  C_20
REMARK    2  A    between atoms: N_3  and  S_8
REMARK    3  A    between atoms: S_8  and  C_11
REMARK    4  A    between atoms: C_12  and  C_14
REMARK    5  A    between atoms: C_20  and  C_22
REMARK    6  A    between atoms: N_21  and  C_28
REMARK                            x       y       z     vdW  Elec       q    Type
REMARK                         _______ _______ _______ _____ _____    ______ ____
ROOT
ATOM      1  O   UNL     1      37.679 -19.428 -19.976  0.00  0.00    -0.273 OA
ATOM      2  N   UNL     1      35.602 -18.836 -20.820  0.00  0.00    -0.277 N 
ATOM      3  N   UNL     1      34.431 -20.883 -19.313  0.00  0.00    -0.144 NA
ATOM      4  C   UNL     1      34.154 -19.009 -20.796  0.00  0.00    +0.113 C 
ATOM      5  C   UNL     1      33.745 -20.446 -20.548  0.00  0.00    +0.118 C 
ATOM      6  C   UNL     1      36.469 -19.647 -20.092  0.00  0.00    +0.244 C 
ATOM      7  C   UNL     1      35.897 -20.905 -19.488  0.00  0.00    +0.181 C 
ENDROOT
BRANCH   3   8
ATOM      8  S   UNL     1      33.760 -22.249 -18.530  0.00  0.00    +0.065 S 
ATOM      9  O   UNL     1      34.058 -23.416 -19.342  0.00  0.00    -0.153 OA
ATOM     10  O   UNL     1      32.383 -21.936 -18.191  0.00  0.00    -0.153 OA
BRANCH   8  11
ATOM     11  C   UNL     1      34.660 -22.378 -17.055  0.00  0.00    +0.141 C 
ATOM     12  C   UNL     1      34.118 -23.106 -16.071  0.00  0.00    +0.021 C 
BRANCH  12  14
ATOM     13 CL   UNL     1      36.635 -24.028 -10.742  0.00  0.00    -0.082 Cl
ATOM     14  C   UNL     1      34.740 -23.335 -14.756  0.00  0.00    +0.001 C 
ATOM     15  C   UNL     1      33.991 -23.910 -13.741  0.00  0.00    +0.001 C 
ATOM     16  C   UNL     1      36.061 -22.968 -14.556  0.00  0.00    +0.001 C 
ATOM     17  C   UNL     1      34.580 -24.126 -12.496  0.00  0.00    +0.011 C 
ATOM     18  C   UNL     1      36.650 -23.183 -13.310  0.00  0.00    +0.011 C 
ATOM     19  C   UNL     1      35.908 -23.763 -12.280  0.00  0.00    +0.058 C 
ENDBRANCH  12  14
ENDBRANCH   8  11
ENDBRANCH   3   8
BRANCH   2  20
ATOM     20  C   UNL     1      36.095 -17.624 -21.459  0.00  0.00    +0.094 C 
BRANCH  20  22
ATOM     21  N   UNL     1      34.026 -13.883 -21.986  0.00  0.00    -0.307 N 
ATOM     22  C   UNL     1      34.985 -16.592 -21.635  0.00  0.00    +0.023 C 
ATOM     23  C   UNL     1      35.135 -15.850 -22.968  0.00  0.00    +0.023 C 
ATOM     24  C   UNL     1      34.989 -15.581 -20.485  0.00  0.00    +0.023 C 
ATOM     25  C   UNL     1      34.052 -14.788 -23.142  0.00  0.00    +0.091 C 
ATOM     26  C   UNL     1      33.909 -14.514 -20.667  0.00  0.00    +0.091 C 
BRANCH  21  28
ATOM     27  N   UNL     1      32.451 -10.013 -22.583  0.00  0.00    -0.242 NA
ATOM     28  C   UNL     1      33.503 -12.599 -22.183  0.00  0.00    +0.051 C 
ATOM     29  C   UNL     1      32.509 -12.084 -21.338  0.00  0.00    +0.035 C 
ATOM     30  C   UNL     1      33.958 -11.787 -23.235  0.00  0.00    +0.035 C 
ATOM     31  C   UNL     1      32.025 -10.808 -21.576  0.00  0.00    +0.100 C 
ATOM     32  C   UNL     1      33.409 -10.525 -23.389  0.00  0.00    +0.100 C 
ENDBRANCH  21  28
ENDBRANCH  20  22
ENDBRANCH   2  20
TORSDOF 6
ENDMDL
MODEL 2
REMARK VINA RESULT:     -11.1      4.056     11.352
REMARK  Name = 446345
REMARK  6 active torsions:
REMARK  status: ('A' for Active; 'I' for Inactive)
REMARK    1  A    between atoms: N_2  and  C_20
REMARK    2  A    between atoms: N_3  and  S_8
REMARK    3  A    between atoms: S_8  and  C_11
REMARK    4  A    between atoms: C_12  and  C_14
REMARK    5  A    between atoms: C_20  and  C_22
REMARK    6  A    between atoms: N_21  and  C_28
REMARK                            x       y       z     vdW  Elec       q    Type
REMARK                         _______ _______ _______ _____ _____    ______ ____
ROOT
ATOM      1  O   UNL     1      32.207 -20.913 -19.301  0.00  0.00    -0.273 OA
ATOM      2  N   UNL     1      34.273 -21.832 -18.791  0.00  0.00    -0.277 N 
ATOM      3  N   UNL     1      35.518 -19.748 -20.185  0.00  0.00    -0.144 NA
ATOM      4  C   UNL     1      35.728 -21.712 -18.812  0.00  0.00    +0.113 C 
ATOM      5  C   UNL     1      36.236 -21.036 -20.067  0.00  0.00    +0.118 C 
ATOM      6  C   UNL     1      33.434 -20.922 -19.429  0.00  0.00    +0.244 C 
ATOM      7  C   UNL     1      34.071 -19.954 -20.394  0.00  0.00    +0.181 C 
ENDROOT
BRANCH   3   8
ATOM      8  S   UNL     1      36.251 -18.573 -21.190  0.00  0.00    +0.065 S 
ATOM      9  O   UNL     1      36.029 -18.970 -22.570  0.00  0.00    -0.153 OA
ATOM     10  O   UNL     1      37.604 -18.356 -20.709  0.00  0.00    -0.153 OA
BRANCH   8  11
ATOM     11  C   UNL     1      35.339 -17.131 -20.894  0.00  0.00    +0.141 C 
ATOM     12  C   UNL     1      35.236 -16.256 -21.901  0.00  0.00    +0.021 C 
BRANCH  12  14
ATOM     13 CL   UNL     1      32.233 -11.108 -21.639  0.00  0.00    -0.082 Cl
ATOM     14  C   UNL     1      34.495 -14.984 -21.836  0.00  0.00    +0.001 C 
ATOM     15  C   UNL     1      33.980 -14.559 -20.622  0.00  0.00    +0.001 C 
ATOM     16  C   UNL     1      34.325 -14.237 -22.991  0.00  0.00    +0.001 C 
ATOM     17  C   UNL     1      33.278 -13.356 -20.560  0.00  0.00    +0.011 C 
ATOM     18  C   UNL     1      33.623 -13.033 -22.930  0.00  0.00    +0.011 C 
ATOM     19  C   UNL     1      33.100 -12.593 -21.714  0.00  0.00    +0.058 C 
ENDBRANCH  12  14
ENDBRANCH   8  11
ENDBRANCH   3   8
BRANCH   2  20
ATOM     20  C   UNL     1      33.722 -22.817 -17.872  0.00  0.00    +0.094 C 
BRANCH  20  22
ATOM     21  N   UNL     1      35.350 -23.302 -13.914  0.00  0.00    -0.307 N 
ATOM     22  C   UNL     1      34.143 -22.539 -16.432  0.00  0.00    +0.023 C 
ATOM     23  C   UNL     1      35.662 -22.666 -16.273  0.00  0.00    +0.023 C 
ATOM     24  C   UNL     1      33.445 -23.498 -15.462  0.00  0.00    +0.023 C 
ATOM     25  C   UNL     1      36.095 -22.426 -14.828  0.00  0.00    +0.091 C 
ATOM     26  C   UNL     1      33.887 -23.260 -14.018  0.00  0.00    +0.091 C 
BRANCH  21  28
ATOM     27  N   UNL     1      37.139 -24.210 -10.200  0.00  0.00    -0.242 NA
ATOM     28  C   UNL     1      35.944 -23.603 -12.682  0.00  0.00    +0.051 C 
ATOM     29  C   UNL     1      37.325 -23.452 -12.488  0.00  0.00    +0.035 C 
ATOM     30  C   UNL     1      35.176 -24.067 -11.602  0.00  0.00    +0.035 C 
ATOM     31  C   UNL     1      37.865 -23.762 -11.251  0.00  0.00    +0.100 C 
ATOM     32  C   UNL     1      35.810 -24.351 -10.405  0.00  0.00    +0.100 C 
ENDBRANCH  21  28
ENDBRANCH  20  22
ENDBRANCH   2  20
TORSDOF 6
ENDMDL
MODEL 3
REMARK VINA RESULT:     -11.0      4.744     11.043
REMARK  Name = 446345
REMARK  6 active torsions:
REMARK  status: ('A' for Active; 'I' for Inactive)
REMARK    1  A    between atoms: N_2  and  C_20
REMARK    2  A    between atoms: N_3  and  S_8
REMARK    3  A    between atoms: S_8  and  C_11
REMARK    4  A    between atoms: C_12  and  C_14
REMARK    5  A    between atoms: C_20  and  C_22
REMARK    6  A    between atoms: N_21  and  C_28
REMARK                            x       y       z     vdW  Elec       q    Type
REMARK                         _______ _______ _______ _____ _____    ______ ____
ROOT
ATOM      1  O   UNL     1      35.833 -17.092 -20.047  0.00  0.00    -0.273 OA
ATOM      2  N   UNL     1      35.566 -18.960 -21.395  0.00  0.00    -0.277 N 
ATOM      3  N   UNL     1      34.713 -17.302 -23.482  0.00  0.00    -0.144 NA
ATOM      4  C   UNL     1      35.283 -19.510 -22.716  0.00  0.00    +0.113 C 
ATOM      5  C   UNL     1      34.245 -18.705 -23.470  0.00  0.00    +0.118 C 
ATOM      6  C   UNL     1      35.455 -17.602 -21.105  0.00  0.00    +0.244 C 
ATOM      7  C   UNL     1      34.754 -16.734 -22.120  0.00  0.00    +0.181 C 
ENDROOT
BRANCH   3   8
ATOM      8  S   UNL     1      34.023 -16.296 -24.683  0.00  0.00    +0.065 S 
ATOM      9  O   UNL     1      32.870 -16.989 -25.232  0.00  0.00    -0.153 OA
ATOM     10  O   UNL     1      35.090 -15.858 -25.565  0.00  0.00    -0.153 OA
BRANCH   8  11
ATOM     11  C   UNL     1      33.452 -14.917 -23.805  0.00  0.00    +0.141 C 
ATOM     12  C   UNL     1      33.871 -13.714 -24.217  0.00  0.00    +0.021 C 
BRANCH  12  14
ATOM     13 CL   UNL     1      32.300  -8.528 -21.723  0.00  0.00    -0.082 Cl
ATOM     14  C   UNL     1      33.484 -12.433 -23.601  0.00  0.00    +0.001 C 
ATOM     15  C   UNL     1      32.717 -12.439 -22.446  0.00  0.00    +0.001 C 
ATOM     16  C   UNL     1      33.892 -11.246 -24.187  0.00  0.00    +0.001 C 
ATOM     17  C   UNL     1      32.350 -11.227 -21.863  0.00  0.00    +0.011 C 
ATOM     18  C   UNL     1      33.525 -10.034 -23.604  0.00  0.00    +0.011 C 
ATOM     19  C   UNL     1      32.753 -10.024 -22.442  0.00  0.00    +0.058 C 
ENDBRANCH  12  14
ENDBRANCH   8  11
ENDBRANCH   3   8
BRANCH   2  20
ATOM     20  C   UNL     1      36.202 -19.862 -20.445  0.00  0.00    +0.094 C 
BRANCH  20  22
ATOM     21  N   UNL     1      33.478 -21.996 -17.879  0.00  0.00    -0.307 N 
ATOM     22  C   UNL     1      35.219 -20.904 -19.918  0.00  0.00    +0.023 C 
ATOM     23  C   UNL     1      33.868 -20.262 -19.584  0.00  0.00    +0.023 C 
ATOM     24  C   UNL     1      35.775 -21.601 -18.673  0.00  0.00    +0.023 C 
ATOM     25  C   UNL     1      32.886 -21.286 -19.021  0.00  0.00    +0.091 C 
ATOM     26  C   UNL     1      34.786 -22.620 -18.108  0.00  0.00    +0.091 C 
BRANCH  21  28
ATOM     27  N   UNL     1      30.832 -23.689 -15.060  0.00  0.00    -0.242 NA
ATOM     28  C   UNL     1      32.601 -22.558 -16.943  0.00  0.00    +0.051 C 
ATOM     29  C   UNL     1      33.079 -23.339 -15.881  0.00  0.00    +0.035 C 
ATOM     30  C   UNL     1      31.215 -22.358 -17.041  0.00  0.00    +0.035 C 
ATOM     31  C   UNL     1      32.170 -23.873 -14.981  0.00  0.00    +0.100 C 
ATOM     32  C   UNL     1      30.389 -22.935 -16.091  0.00  0.00    +0.100 C 
ENDBRANCH  21  28
ENDBRANCH  20  22
ENDBRANCH   2  20
TORSDOF 6
ENDMDL
MODEL 4
REMARK VINA RESULT:     -10.9      4.747     11.113
REMARK  Name = 446345
REMARK  6 active torsions:
REMARK  status: ('A' for Active; 'I' for Inactive)
REMARK    1  A    between atoms: N_2  and  C_20
REMARK    2  A    between atoms: N_3  and  S_8
REMARK    3  A    between atoms: S_8  and  C_11
REMARK    4  A    between atoms: C_12  and  C_14
REMARK    5  A    between atoms: C_20  and  C_22
REMARK    6  A    between atoms: N_21  and  C_28
REMARK                            x       y       z     vdW  Elec       q    Type
REMARK                         _______ _______ _______ _____ _____    ______ ____
ROOT
ATOM      1  O   UNL     1      35.696 -17.113 -19.947  0.00  0.00    -0.273 OA
ATOM      2  N   UNL     1      35.484 -18.957 -21.336  0.00  0.00    -0.277 N 
ATOM      3  N   UNL     1      34.649 -17.272 -23.408  0.00  0.00    -0.144 NA
ATOM      4  C   UNL     1      35.235 -19.486 -22.673  0.00  0.00    +0.113 C 
ATOM      5  C   UNL     1      34.201 -18.681 -23.432  0.00  0.00    +0.118 C 
ATOM      6  C   UNL     1      35.347 -17.608 -21.023  0.00  0.00    +0.244 C 
ATOM      7  C   UNL     1      34.655 -16.730 -22.036  0.00  0.00    +0.181 C 
ENDROOT
BRANCH   3   8
ATOM      8  S   UNL     1      33.969 -16.253 -24.603  0.00  0.00    +0.065 S 
ATOM      9  O   UNL     1      32.792 -16.918 -25.135  0.00  0.00    -0.153 OA
ATOM     10  O   UNL     1      35.035 -15.844 -25.501  0.00  0.00    -0.153 OA
BRANCH   8  11
ATOM     11  C   UNL     1      33.444 -14.856 -23.723  0.00  0.00    +0.141 C 
ATOM     12  C   UNL     1      33.810 -13.660 -24.200  0.00  0.00    +0.021 C 
BRANCH  12  14
ATOM     13 CL   UNL     1      32.355  -8.426 -21.735  0.00  0.00    -0.082 Cl
ATOM     14  C   UNL     1      33.450 -12.368 -23.592  0.00  0.00    +0.001 C 
ATOM     15  C   UNL     1      33.871 -11.193 -24.194  0.00  0.00    +0.001 C 
ATOM     16  C   UNL     1      32.698 -12.351 -22.427  0.00  0.00    +0.001 C 
ATOM     17  C   UNL     1      33.531  -9.969 -23.618  0.00  0.00    +0.011 C 
ATOM     18  C   UNL     1      32.358 -11.127 -21.851  0.00  0.00    +0.011 C 
ATOM     19  C   UNL     1      32.775  -9.936 -22.447  0.00  0.00    +0.058 C 
ENDBRANCH  12  14
ENDBRANCH   8  11
ENDBRANCH   3   8
BRANCH   2  20
ATOM     20  C   UNL     1      36.113 -19.868 -20.390  0.00  0.00    +0.094 C 
BRANCH  20  22
ATOM     21  N   UNL     1      33.404 -22.036 -17.837  0.00  0.00    -0.307 N 
ATOM     22  C   UNL     1      35.125 -20.912 -19.875  0.00  0.00    +0.023 C 
ATOM     23  C   UNL     1      33.789 -20.260 -19.500  0.00  0.00    +0.023 C 
ATOM     24  C   UNL     1      35.693 -21.650 -18.659  0.00  0.00    +0.023 C 
ATOM     25  C   UNL     1      32.802 -21.287 -18.948  0.00  0.00    +0.091 C 
ATOM     26  C   UNL     1      34.699 -22.670 -18.105  0.00  0.00    +0.091 C 
BRANCH  21  28
ATOM     27  N   UNL     1      30.785 -23.770 -15.018  0.00  0.00    -0.242 NA
ATOM     28  C   UNL     1      32.535 -22.611 -16.901  0.00  0.00    +0.051 C 
ATOM     29  C   UNL     1      31.149 -22.411 -16.983  0.00  0.00    +0.035 C 
ATOM     30  C   UNL     1      33.024 -23.406 -15.853  0.00  0.00    +0.035 C 
ATOM     31  C   UNL     1      30.331 -23.002 -16.034  0.00  0.00    +0.100 C 
ATOM     32  C   UNL     1      32.124 -23.952 -14.954  0.00  0.00    +0.100 C 
ENDBRANCH  21  28
ENDBRANCH  20  22
ENDBRANCH   2  20
TORSDOF 6
ENDMDL
MODEL 5
REMARK VINA RESULT:     -10.9      4.720      7.178
REMARK  Name = 446345
REMARK  6 active torsions:
REMARK  status: ('A' for Active; 'I' for Inactive)
REMARK    1  A    between atoms: N_2  and  C_20
REMARK    2  A    between atoms: N_3  and  S_8
REMARK    3  A    between atoms: S_8  and  C_11
REMARK    4  A    between atoms: C_12  and  C_14
REMARK    5  A    between atoms: C_20  and  C_22
REMARK    6  A    between atoms: N_21  and  C_28
REMARK                            x       y       z     vdW  Elec       q    Type
REMARK                         _______ _______ _______ _____ _____    ______ ____
ROOT
ATOM      1  O   UNL     1      34.632 -13.790 -20.420  0.00  0.00    -0.273 OA
ATOM      2  N   UNL     1      33.210 -13.042 -22.091  0.00  0.00    -0.277 N 
ATOM      3  N   UNL     1      33.828 -15.315 -23.603  0.00  0.00    -0.144 NA
ATOM      4  C   UNL     1      32.537 -13.300 -23.360  0.00  0.00    +0.113 C 
ATOM      5  C   UNL     1      33.394 -14.097 -24.320  0.00  0.00    +0.118 C 
ATOM      6  C   UNL     1      34.162 -13.905 -21.556  0.00  0.00    +0.244 C 
ATOM      7  C   UNL     1      34.701 -14.986 -22.459  0.00  0.00    +0.181 C 
ENDROOT
BRANCH   3   8
ATOM      8  S   UNL     1      34.354 -16.613 -24.586  0.00  0.00    +0.065 S 
ATOM      9  O   UNL     1      35.334 -16.090 -25.522  0.00  0.00    -0.153 OA
ATOM     10  O   UNL     1      33.176 -17.303 -25.082  0.00  0.00    -0.153 OA
BRANCH   8  11
ATOM     11  C   UNL     1      35.174 -17.673 -23.488  0.00  0.00    +0.141 C 
ATOM     12  C   UNL     1      34.511 -18.041 -22.384  0.00  0.00    +0.021 C 
BRANCH  12  14
ATOM     13 CL   UNL     1      36.664 -21.682 -18.178  0.00  0.00    -0.082 Cl
ATOM     14  C   UNL     1      35.043 -18.940 -21.347  0.00  0.00    +0.001 C 
ATOM     15  C   UNL     1      34.199 -19.865 -20.751  0.00  0.00    +0.001 C 
ATOM     16  C   UNL     1      36.377 -18.845 -20.983  0.00  0.00    +0.001 C 
ATOM     17  C   UNL     1      34.702 -20.716 -19.768  0.00  0.00    +0.011 C 
ATOM     18  C   UNL     1      36.880 -19.696 -20.000  0.00  0.00    +0.011 C 
ATOM     19  C   UNL     1      36.042 -20.632 -19.392  0.00  0.00    +0.058 C 
ENDBRANCH  12  14
ENDBRANCH   8  11
ENDBRANCH   3   8
BRANCH   2  20
ATOM     20  C   UNL     1      32.671 -11.954 -21.286  0.00  0.00    +0.094 C 
BRANCH  20  22
ATOM     21  N   UNL     1      32.302  -7.933 -22.786  0.00  0.00    -0.307 N 
ATOM     22  C   UNL     1      32.282 -10.757 -22.150  0.00  0.00    +0.023 C 
ATOM     23  C   UNL     1      33.527 -10.070 -22.722  0.00  0.00    +0.023 C 
ATOM     24  C   UNL     1      31.464  -9.744 -21.343  0.00  0.00    +0.023 C 
ATOM     25  C   UNL     1      33.155  -8.847 -23.559  0.00  0.00    +0.091 C 
ATOM     26  C   UNL     1      31.101  -8.518 -22.181  0.00  0.00    +0.091 C 
BRANCH  21  28
ATOM     27  N   UNL     1      32.288  -3.867 -23.916  0.00  0.00    -0.242 NA
ATOM     28  C   UNL     1      32.298  -6.584 -23.161  0.00  0.00    +0.051 C 
ATOM     29  C   UNL     1      33.423  -5.995 -23.758  0.00  0.00    +0.035 C 
ATOM     30  C   UNL     1      31.168  -5.779 -22.951  0.00  0.00    +0.035 C 
ATOM     31  C   UNL     1      33.368  -4.656 -24.111  0.00  0.00    +0.100 C 
ATOM     32  C   UNL     1      31.213  -4.450 -23.339  0.00  0.00    +0.100 C 
ENDBRANCH  21  28
ENDBRANCH  20  22
ENDBRANCH   2  20
TORSDOF 6
ENDMDL
MODEL 6
REMARK VINA RESULT:     -10.8      3.429      5.590
REMARK  Name = 446345
REMARK  6 active torsions:
REMARK  status: ('A' for Active; 'I' for Inactive)
REMARK    1  A    between atoms: N_2  and  C_20
REMARK    2  A    between atoms: N_3  and  S_8
REMARK    3  A    between atoms: S_8  and  C_11
REMARK    4  A    between atoms: C_12  and  C_14
REMARK    5  A    between atoms: C_20  and  C_22
REMARK    6  A    between atoms: N_21  and  C_28
REMARK                            x       y       z     vdW  Elec       q    Type
REMARK                         _______ _______ _______ _____ _____    ______ ____
ROOT
ATOM      1  O   UNL     1      33.112 -16.272 -25.510  0.00  0.00    -0.273 OA
ATOM      2  N   UNL     1      33.858 -14.906 -23.791  0.00  0.00    -0.277 N 
ATOM      3  N   UNL     1      35.429 -17.013 -22.830  0.00  0.00    -0.144 NA
ATOM      4  C   UNL     1      34.758 -14.709 -22.659  0.00  0.00    +0.113 C 
ATOM      5  C   UNL     1      34.982 -15.981 -21.869  0.00  0.00    +0.118 C 
ATOM      6  C   UNL     1      33.747 -16.121 -24.462  0.00  0.00    +0.244 C 
ATOM      7  C   UNL     1      34.375 -17.329 -23.813  0.00  0.00    +0.181 C 
ENDROOT
BRANCH   3   8
ATOM      8  S   UNL     1      36.240 -18.361 -22.155  0.00  0.00    +0.065 S 
ATOM      9  O   UNL     1      37.385 -17.863 -21.412  0.00  0.00    -0.153 OA
ATOM     10  O   UNL     1      36.433 -19.340 -23.210  0.00  0.00    -0.153 OA
BRANCH   8  11
ATOM     11  C   UNL     1      35.106 -19.013 -21.019  0.00  0.00    +0.141 C 
ATOM     12  C   UNL     1      35.384 -20.216 -20.502  0.00  0.00    +0.021 C 
BRANCH  12  14
ATOM     13 CL   UNL     1      31.983 -23.075 -16.521  0.00  0.00    -0.082 Cl
ATOM     14  C   UNL     1      34.544 -20.921 -19.519  0.00  0.00    +0.001 C 
ATOM     15  C   UNL     1      35.140 -21.779 -18.607  0.00  0.00    +0.001 C 
ATOM     16  C   UNL     1      33.173 -20.716 -19.524  0.00  0.00    +0.001 C 
ATOM     17  C   UNL     1      34.345 -22.447 -17.677  0.00  0.00    +0.011 C 
ATOM     18  C   UNL     1      32.378 -21.384 -18.593  0.00  0.00    +0.011 C 
ATOM     19  C   UNL     1      32.965 -22.250 -17.669  0.00  0.00    +0.058 C 
ENDBRANCH  12  14
ENDBRANCH   8  11
ENDBRANCH   3   8
BRANCH   2  20
ATOM     20  C   UNL     1      33.247 -13.705 -24.344  0.00  0.00    +0.094 C 
BRANCH  20  22
ATOM     21  N   UNL     1      33.060  -9.758 -22.630  0.00  0.00    -0.307 N 
ATOM     22  C   UNL     1      33.556 -12.476 -23.494  0.00  0.00    +0.023 C 
ATOM     23  C   UNL     1      32.366 -12.121 -22.595  0.00  0.00    +0.023 C 
ATOM     24  C   UNL     1      33.906 -11.274 -24.376  0.00  0.00    +0.023 C 
ATOM     25  C   UNL     1      32.647 -10.871 -21.764  0.00  0.00    +0.091 C 
ATOM     26  C   UNL     1      34.178 -10.023 -23.541  0.00  0.00    +0.091 C 
BRANCH  21  28
ATOM     27  N   UNL     1      32.436  -5.841 -21.188  0.00  0.00    -0.242 NA
ATOM     28  C   UNL     1      32.853  -8.458 -22.152  0.00  0.00    +0.051 C 
ATOM     29  C   UNL     1      33.577  -7.373 -22.669  0.00  0.00    +0.035 C 
ATOM     30  C   UNL     1      31.916  -8.201 -21.140  0.00  0.00    +0.035 C 
ATOM     31  C   UNL     1      33.336  -6.106 -22.162  0.00  0.00    +0.100 C 
ATOM     32  C   UNL     1      31.748  -6.898 -20.700  0.00  0.00    +0.100 C 
ENDBRANCH  21  28
ENDBRANCH  20  22
ENDBRANCH   2  20
TORSDOF 6
ENDMDL
MODEL 7
REMARK VINA RESULT:     -10.6      1.173      1.794
REMARK  Name = 446345
REMARK  6 active torsions:
REMARK  status: ('A' for Active; 'I' for Inactive)
REMARK    1  A    between atoms: N_2  and  C_20
REMARK    2  A    between atoms: N_3  and  S_8
REMARK    3  A    between atoms: S_8  and  C_11
REMARK    4  A    between atoms: C_12  and  C_14
REMARK    5  A    between atoms: C_20  and  C_22
REMARK    6  A    between atoms: N_21  and  C_28
REMARK                            x       y       z     vdW  Elec       q    Type
REMARK                         _______ _______ _______ _____ _____    ______ ____
ROOT
ATOM      1  O   UNL     1      33.661 -19.134 -22.292  0.00  0.00    -0.273 OA
ATOM      2  N   UNL     1      35.657 -19.357 -21.135  0.00  0.00    -0.277 N 
ATOM      3  N   UNL     1      34.495 -21.359 -19.562  0.00  0.00    -0.144 NA
ATOM      4  C   UNL     1      36.449 -20.085 -20.148  0.00  0.00    +0.113 C 
ATOM      5  C   UNL     1      35.615 -20.582 -18.987  0.00  0.00    +0.118 C 
ATOM      6  C   UNL     1      34.311 -19.625 -21.365  0.00  0.00    +0.244 C 
ATOM      7  C   UNL     1      33.600 -20.503 -20.365  0.00  0.00    +0.181 C 
ENDROOT
BRANCH   3   8
ATOM      8  S   UNL     1      33.717 -22.448 -18.495  0.00  0.00    +0.065 S 
ATOM      9  O   UNL     1      33.801 -23.776 -19.079  0.00  0.00    -0.153 OA
ATOM     10  O   UNL     1      32.420 -21.889 -18.155  0.00  0.00    -0.153 OA
BRANCH   8  11
ATOM     11  C   UNL     1      34.701 -22.425 -17.071  0.00  0.00    +0.141 C 
ATOM     12  C   UNL     1      34.314 -23.197 -16.048  0.00  0.00    +0.021 C 
BRANCH  12  14
ATOM     13 CL   UNL     1      37.208 -23.660 -10.852  0.00  0.00    -0.082 Cl
ATOM     14  C   UNL     1      35.029 -23.312 -14.765  0.00  0.00    +0.001 C 
ATOM     15  C   UNL     1      34.344 -23.751 -13.643  0.00  0.00    +0.001 C 
ATOM     16  C   UNL     1      36.372 -22.977 -14.703  0.00  0.00    +0.001 C 
ATOM     17  C   UNL     1      35.021 -23.859 -12.428  0.00  0.00    +0.011 C 
ATOM     18  C   UNL     1      37.049 -23.085 -13.489  0.00  0.00    +0.011 C 
ATOM     19  C   UNL     1      36.372 -23.527 -12.351  0.00  0.00    +0.058 C 
ENDBRANCH  12  14
ENDBRANCH   8  11
ENDBRANCH   3   8
BRANCH   2  20
ATOM     20  C   UNL     1      36.397 -18.490 -22.041  0.00  0.00    +0.094 C 
BRANCH  20  22
ATOM     21  N   UNL     1      34.237 -14.799 -21.525  0.00  0.00    -0.307 N 
ATOM     22  C   UNL     1      36.077 -17.018 -21.796  0.00  0.00    +0.023 C 
ATOM     23  C   UNL     1      35.193 -16.852 -20.555  0.00  0.00    +0.023 C 
ATOM     24  C   UNL     1      35.375 -16.401 -23.009  0.00  0.00    +0.023 C 
ATOM     25  C   UNL     1      34.833 -15.386 -20.317  0.00  0.00    +0.091 C 
ATOM     26  C   UNL     1      35.009 -14.937 -22.765  0.00  0.00    +0.091 C 
BRANCH  21  28
ATOM     27  N   UNL     1      31.704 -11.462 -21.017  0.00  0.00    -0.242 NA
ATOM     28  C   UNL     1      33.397 -13.692 -21.356  0.00  0.00    +0.051 C 
ATOM     29  C   UNL     1      32.555 -13.586 -20.238  0.00  0.00    +0.035 C 
ATOM     30  C   UNL     1      33.369 -12.654 -22.301  0.00  0.00    +0.035 C 
ATOM     31  C   UNL     1      31.743 -12.470 -20.117  0.00  0.00    +0.100 C 
ATOM     32  C   UNL     1      32.520 -11.581 -22.089  0.00  0.00    +0.100 C 
ENDBRANCH  21  28
ENDBRANCH  20  22
ENDBRANCH   2  20
TORSDOF 6
ENDMDL
MODEL 8
REMARK VINA RESULT:     -10.0      7.107     13.084
REMARK  Name = 446345
REMARK  6 active torsions:
REMARK  status: ('A' for Active; 'I' for Inactive)
REMARK    1  A    between atoms: N_2  and  C_20
REMARK    2  A    between atoms: N_3  and  S_8
REMARK    3  A    between atoms: S_8  and  C_11
REMARK    4  A    between atoms: C_12  and  C_14
REMARK    5  A    between atoms: C_20  and  C_22
REMARK    6  A    between atoms: N_21  and  C_28
REMARK                            x       y       z     vdW  Elec       q    Type
REMARK                         _______ _______ _______ _____ _____    ______ ____
ROOT
ATOM      1  O   UNL     1      34.550 -11.422 -24.472  0.00  0.00    -0.273 OA
ATOM      2  N   UNL     1      33.353 -13.072 -23.367  0.00  0.00    -0.277 N 
ATOM      3  N   UNL     1      32.158 -11.106 -21.774  0.00  0.00    -0.144 NA
ATOM      4  C   UNL     1      32.313 -13.422 -22.404  0.00  0.00    +0.113 C 
ATOM      5  C   UNL     1      32.272 -12.474 -21.224  0.00  0.00    +0.118 C 
ATOM      6  C   UNL     1      33.787 -11.764 -23.564  0.00  0.00    +0.244 C 
ATOM      7  C   UNL     1      33.357 -10.733 -22.550  0.00  0.00    +0.181 C 
ENDROOT
BRANCH   3   8
ATOM      8  S   UNL     1      31.577  -9.914 -20.692  0.00  0.00    +0.065 S 
ATOM      9  O   UNL     1      32.597  -9.698 -19.681  0.00  0.00    -0.153 OA
ATOM     10  O   UNL     1      30.232 -10.291 -20.293  0.00  0.00    -0.153 OA
BRANCH   8  11
ATOM     11  C   UNL     1      31.468  -8.480 -21.658  0.00  0.00    +0.141 C 
ATOM     12  C   UNL     1      32.156  -7.410 -21.242  0.00  0.00    +0.021 C 
BRANCH  12  14
ATOM     13 CL   UNL     1      32.291  -2.153 -24.060  0.00  0.00    -0.082 Cl
ATOM     14  C   UNL     1      32.190  -6.112 -21.938  0.00  0.00    +0.001 C 
ATOM     15  C   UNL     1      31.503  -5.035 -21.400  0.00  0.00    +0.001 C 
ATOM     16  C   UNL     1      32.907  -5.991 -23.118  0.00  0.00    +0.001 C 
ATOM     17  C   UNL     1      31.535  -3.806 -22.058  0.00  0.00    +0.011 C 
ATOM     18  C   UNL     1      32.938  -4.762 -23.776  0.00  0.00    +0.011 C 
ATOM     19  C   UNL     1      32.252  -3.669 -23.246  0.00  0.00    +0.058 C 
ENDBRANCH  12  14
ENDBRANCH   8  11
ENDBRANCH   3   8
BRANCH   2  20
ATOM     20  C   UNL     1      33.758 -14.125 -24.288  0.00  0.00    +0.094 C 
BRANCH  20  22
ATOM     21  N   UNL     1      35.058 -17.438 -21.862  0.00  0.00    -0.307 N 
ATOM     22  C   UNL     1      34.642 -15.161 -23.602  0.00  0.00    +0.023 C 
ATOM     23  C   UNL     1      34.250 -16.581 -24.026  0.00  0.00    +0.023 C 
ATOM     24  C   UNL     1      34.547 -15.039 -22.078  0.00  0.00    +0.023 C 
ATOM     25  C   UNL     1      35.104 -17.632 -23.318  0.00  0.00    +0.091 C 
ATOM     26  C   UNL     1      35.396 -16.097 -21.373  0.00  0.00    +0.091 C 
BRANCH  21  28
ATOM     27  N   UNL     1      35.844 -20.797 -19.431  0.00  0.00    -0.242 NA
ATOM     28  C   UNL     1      35.319 -18.552 -21.055  0.00  0.00    +0.051 C 
ATOM     29  C   UNL     1      36.618 -18.830 -20.604  0.00  0.00    +0.035 C 
ATOM     30  C   UNL     1      34.289 -19.426 -20.674  0.00  0.00    +0.035 C 
ATOM     31  C   UNL     1      36.825 -19.945 -19.807  0.00  0.00    +0.100 C 
ATOM     32  C   UNL     1      34.599 -20.515 -19.875  0.00  0.00    +0.100 C 
ENDBRANCH  21  28
ENDBRANCH  20  22
ENDBRANCH   2  20
TORSDOF 6
ENDMDL
MODEL 9
REMARK VINA RESULT:      -9.9      3.545      5.170
REMARK  Name = 446345
REMARK  6 active torsions:
REMARK  status: ('A' for Active; 'I' for Inactive)
REMARK    1  A    between atoms: N_2  and  C_20
REMARK    2  A    between atoms: N_3  and  S_8
REMARK    3  A    between atoms: S_8  and  C_11
REMARK    4  A    between atoms: C_12  and  C_14
REMARK    5  A    between atoms: C_20  and  C_22
REMARK    6  A    between atoms: N_21  and  C_28
REMARK                            x       y       z     vdW  Elec       q    Type
REMARK                         _______ _______ _______ _____ _____    ______ ____
ROOT
ATOM      1  O   UNL     1      33.911 -22.461 -19.460  0.00  0.00    -0.273 OA
ATOM      2  N   UNL     1      35.887 -21.647 -18.559  0.00  0.00    -0.277 N 
ATOM      3  N   UNL     1      35.292 -22.939 -16.149  0.00  0.00    -0.144 NA
ATOM      4  C   UNL     1      36.838 -21.636 -17.453  0.00  0.00    +0.113 C 
ATOM      5  C   UNL     1      36.159 -21.741 -16.103  0.00  0.00    +0.118 C 
ATOM      6  C   UNL     1      34.663 -22.307 -18.493  0.00  0.00    +0.244 C 
ATOM      7  C   UNL     1      34.206 -22.783 -17.136  0.00  0.00    +0.181 C 
ENDROOT
BRANCH   3   8
ATOM      8  S   UNL     1      34.827 -23.581 -14.632  0.00  0.00    +0.065 S 
ATOM      9  O   UNL     1      35.648 -22.949 -13.613  0.00  0.00    -0.153 OA
ATOM     10  O   UNL     1      34.805 -25.028 -14.748  0.00  0.00    -0.153 OA
BRANCH   8  11
ATOM     11  C   UNL     1      33.197 -23.035 -14.422  0.00  0.00    +0.141 C 
ATOM     12  C   UNL     1      32.277 -23.519 -15.265  0.00  0.00    +0.021 C 
BRANCH  12  14
ATOM     13 CL   UNL     1      26.475 -22.136 -15.129  0.00  0.00    -0.082 Cl
ATOM     14  C   UNL     1      30.844 -23.177 -15.232  0.00  0.00    +0.001 C 
ATOM     15  C   UNL     1      30.259 -22.821 -14.027  0.00  0.00    +0.001 C 
ATOM     16  C   UNL     1      30.108 -23.219 -16.405  0.00  0.00    +0.001 C 
ATOM     17  C   UNL     1      28.903 -22.498 -13.995  0.00  0.00    +0.011 C 
ATOM     18  C   UNL     1      28.752 -22.895 -16.373  0.00  0.00    +0.011 C 
ATOM     19  C   UNL     1      28.149 -22.535 -15.167  0.00  0.00    +0.058 C 
ENDBRANCH  12  14
ENDBRANCH   8  11
ENDBRANCH   3   8
BRANCH   2  20
ATOM     20  C   UNL     1      36.373 -21.133 -19.832  0.00  0.00    +0.094 C 
BRANCH  20  22
ATOM     21  N   UNL     1      35.061 -17.705 -22.087  0.00  0.00    -0.307 N 
ATOM     22  C   UNL     1      35.592 -19.898 -20.273  0.00  0.00    +0.023 C 
ATOM     23  C   UNL     1      34.939 -20.125 -21.640  0.00  0.00    +0.023 C 
ATOM     24  C   UNL     1      36.504 -18.669 -20.339  0.00  0.00    +0.023 C 
ATOM     25  C   UNL     1      34.183 -18.883 -22.112  0.00  0.00    +0.091 C 
ATOM     26  C   UNL     1      35.746 -17.431 -20.820  0.00  0.00    +0.091 C 
BRANCH  21  28
ATOM     27  N   UNL     1      34.087 -14.502 -24.657  0.00  0.00    -0.242 NA
ATOM     28  C   UNL     1      34.738 -16.643 -22.940  0.00  0.00    +0.051 C 
ATOM     29  C   UNL     1      34.437 -16.866 -24.292  0.00  0.00    +0.035 C 
ATOM     30  C   UNL     1      34.706 -15.321 -22.469  0.00  0.00    +0.035 C 
ATOM     31  C   UNL     1      34.123 -15.781 -25.095  0.00  0.00    +0.100 C 
ATOM     32  C   UNL     1      34.380 -14.305 -23.352  0.00  0.00    +0.100 C 
ENDBRANCH  21  28
ENDBRANCH  20  22
ENDBRANCH   2  20
TORSDOF 6
ENDMDL
