MODEL 1
REMARK VINA RESULT:     -11.8      0.000      0.000
REMARK  Name = 72696796
REMARK  9 active torsions:
REMARK  status: ('A' for Active; 'I' for Inactive)
REMARK    1  A    between atoms: N_2  and  C_29
REMARK    2  A    between atoms: C_10  and  C_12
REMARK    3  A    between atoms: C_13  and  C_16
REMARK    4  A    between atoms: N_15  and  C_18
REMARK    5  A    between atoms: C_18  and  C_20
REMARK    6  A    between atoms: C_29  and  O_30
REMARK    7  A    between atoms: O_30  and  P_31
REMARK    8  A    between atoms: P_31  and  O_33
REMARK    9  A    between atoms: P_31  and  O_35
REMARK                            x       y       z     vdW  Elec       q    Type
REMARK                         _______ _______ _______ _____ _____    ______ ____
ROOT
ATOM      1  O   UNL     1      31.966  -7.403 -19.964  0.00  0.00    -0.274 OA
ATOM      2  N   UNL     1      32.698  -8.875 -21.616  0.00  0.00    -0.217 N 
ATOM      3  N   UNL     1      33.498 -10.474 -23.226  0.00  0.00    -0.229 NA
ATOM      4  C   UNL     1      31.291 -10.910 -20.200  0.00  0.00    +0.039 C 
ATOM      5  C   UNL     1      32.138 -11.234 -21.389  0.00  0.00    +0.010 C 
ATOM      6  C   UNL     1      31.877  -9.727 -19.456  0.00  0.00    +0.090 C 
ATOM      7  C   UNL     1      32.796 -10.221 -22.090  0.00  0.00    +0.135 C 
ATOM      8  C   UNL     1      32.149  -8.552 -20.372  0.00  0.00    +0.233 C 
ATOM      9  C   UNL     1      32.214 -12.542 -21.878  0.00  0.00    +0.000 C 
ATOM     10  C   UNL     1      32.943 -12.814 -23.027  0.00  0.00    +0.019 C 
ATOM     11  C   UNL     1      33.560 -11.753 -23.660  0.00  0.00    +0.100 C 
ENDROOT
BRANCH  10  12
ATOM     12  C   UNL     1      33.065 -14.166 -23.539  0.00  0.00    +0.006 C 
ATOM     13  C   UNL     1      34.231 -14.803 -23.800  0.00  0.00    +0.058 C 
BRANCH  13  16
ATOM     14  O   UNL     1      33.846 -16.379 -25.514  0.00  0.00    -0.270 OA
ATOM     15  N   UNL     1      34.690 -17.195 -23.509  0.00  0.00    -0.267 N 
ATOM     16  C   UNL     1      34.225 -16.187 -24.358  0.00  0.00    +0.250 C 
ATOM     17  C   UNL     1      34.744 -18.569 -23.991  0.00  0.00    +0.116 C 
BRANCH  15  18
ATOM     18  C   UNL     1      35.178 -16.988 -22.146  0.00  0.00    +0.158 C 
BRANCH  18  20
ATOM     19  O   UNL     1      33.894 -18.710 -21.017  0.00  0.00    -0.456 OA
ATOM     20  C   UNL     1      35.133 -18.252 -21.336  0.00  0.00    +0.139 A 
ATOM     21  C   UNL     1      36.105 -19.080 -20.826  0.00  0.00    +0.013 A 
ATOM     22  C   UNL     1      35.425 -20.124 -20.145  0.00  0.00    +0.033 A 
ATOM     23  C   UNL     1      34.069 -19.850 -20.291  0.00  0.00    +0.145 A 
ATOM     24  C   UNL     1      37.565 -18.915 -20.963  0.00  0.00    +0.034 C 
ATOM     25  C   UNL     1      35.805 -21.267 -19.420  0.00  0.00    +0.003 C 
ATOM     26  C   UNL     1      33.051 -20.641 -19.763  0.00  0.00    +0.037 C 
ATOM     27  C   UNL     1      34.803 -22.083 -18.877  0.00  0.00    +0.000 C 
ATOM     28  C   UNL     1      33.451 -21.773 -19.046  0.00  0.00    +0.003 C 
ENDBRANCH  18  20
ENDBRANCH  15  18
ENDBRANCH  13  16
ENDBRANCH  10  12
BRANCH   2  29
ATOM     29  C   UNL     1      33.196  -7.820 -22.493  0.00  0.00    +0.257 C 
BRANCH  29  30
ATOM     30  O   UNL     1      32.118  -7.314 -23.257  0.00  0.00    -0.251 OA
BRANCH  30  31
ATOM     31  P   UNL     1      31.665  -5.777 -23.027  0.00  0.00    +0.475 P 
ATOM     32  O   UNL     1      31.475  -4.965 -24.274  0.00  0.00    -0.227 OA
BRANCH  31  33
ATOM     33  O   UNL     1      32.784  -5.211 -22.006  0.00  0.00    -0.303 OA
ATOM     34  H   UNL     1      32.483  -5.339 -21.093  0.00  0.00    +0.222 HD
ENDBRANCH  31  33
BRANCH  31  35
ATOM     35  O   UNL     1      30.349  -5.903 -22.093  0.00  0.00    -0.303 OA
ATOM     36  H   UNL     1      30.462  -6.638 -21.472  0.00  0.00    +0.222 HD
ENDBRANCH  31  35
ENDBRANCH  30  31
ENDBRANCH  29  30
ENDBRANCH   2  29
TORSDOF 9
ENDMDL
MODEL 2
REMARK VINA RESULT:     -11.6      5.214     11.437
REMARK  Name = 72696796
REMARK  9 active torsions:
REMARK  status: ('A' for Active; 'I' for Inactive)
REMARK    1  A    between atoms: N_2  and  C_29
REMARK    2  A    between atoms: C_10  and  C_12
REMARK    3  A    between atoms: C_13  and  C_16
REMARK    4  A    between atoms: N_15  and  C_18
REMARK    5  A    between atoms: C_18  and  C_20
REMARK    6  A    between atoms: C_29  and  O_30
REMARK    7  A    between atoms: O_30  and  P_31
REMARK    8  A    between atoms: P_31  and  O_33
REMARK    9  A    between atoms: P_31  and  O_35
REMARK                            x       y       z     vdW  Elec       q    Type
REMARK                         _______ _______ _______ _____ _____    ______ ____
ROOT
ATOM      1  O   UNL     1      35.991 -23.183 -15.757  0.00  0.00    -0.274 OA
ATOM      2  N   UNL     1      34.539 -22.397 -17.401  0.00  0.00    -0.217 N 
ATOM      3  N   UNL     1      33.091 -21.466 -19.082  0.00  0.00    -0.229 NA
ATOM      4  C   UNL     1      36.832 -21.258 -18.655  0.00  0.00    +0.039 C 
ATOM      5  C   UNL     1      35.454 -21.009 -19.181  0.00  0.00    +0.010 C 
ATOM      6  C   UNL     1      36.787 -21.424 -17.149  0.00  0.00    +0.090 C 
ATOM      7  C   UNL     1      34.344 -21.600 -18.574  0.00  0.00    +0.135 C 
ATOM      8  C   UNL     1      35.756 -22.445 -16.716  0.00  0.00    +0.233 C 
ATOM      9  C   UNL     1      35.257 -20.257 -20.344  0.00  0.00    +0.000 C 
ATOM     10  C   UNL     1      33.979 -20.099 -20.862  0.00  0.00    +0.019 C 
ATOM     11  C   UNL     1      32.939 -20.720 -20.199  0.00  0.00    +0.100 C 
ENDROOT
BRANCH  10  12
ATOM     12  C   UNL     1      33.742 -19.298 -22.048  0.00  0.00    +0.006 C 
ATOM     13  C   UNL     1      34.703 -18.718 -22.806  0.00  0.00    +0.058 C 
BRANCH  13  16
ATOM     14  O   UNL     1      33.685 -18.391 -24.911  0.00  0.00    -0.270 OA
ATOM     15  N   UNL     1      34.729 -16.549 -23.952  0.00  0.00    -0.267 N 
ATOM     16  C   UNL     1      34.330 -17.888 -23.989  0.00  0.00    +0.250 C 
ATOM     17  C   UNL     1      34.376 -15.666 -25.057  0.00  0.00    +0.116 C 
BRANCH  15  18
ATOM     18  C   UNL     1      35.463 -15.921 -22.855  0.00  0.00    +0.158 C 
BRANCH  18  20
ATOM     19  O   UNL     1      34.081 -13.927 -22.846  0.00  0.00    -0.456 OA
ATOM     20  C   UNL     1      34.615 -14.933 -22.106  0.00  0.00    +0.139 A 
ATOM     21  C   UNL     1      34.245 -14.817 -20.787  0.00  0.00    +0.013 A 
ATOM     22  C   UNL     1      33.426 -13.661 -20.700  0.00  0.00    +0.033 A 
ATOM     23  C   UNL     1      33.357 -13.150 -21.992  0.00  0.00    +0.145 A 
ATOM     24  C   UNL     1      34.626 -15.719 -19.682  0.00  0.00    +0.034 C 
ATOM     25  C   UNL     1      32.738 -12.991 -19.674  0.00  0.00    +0.003 C 
ATOM     26  C   UNL     1      32.643 -12.006 -22.342  0.00  0.00    +0.037 C 
ATOM     27  C   UNL     1      32.010 -11.836 -19.996  0.00  0.00    +0.000 C 
ATOM     28  C   UNL     1      31.965 -11.354 -21.306  0.00  0.00    +0.003 C 
ENDBRANCH  18  20
ENDBRANCH  15  18
ENDBRANCH  13  16
ENDBRANCH  10  12
BRANCH   2  29
ATOM     29  C   UNL     1      33.403 -23.184 -16.933  0.00  0.00    +0.257 C 
BRANCH  29  30
ATOM     30  O   UNL     1      32.843 -22.549 -15.798  0.00  0.00    -0.251 OA
BRANCH  30  31
ATOM     31  P   UNL     1      32.391 -23.469 -14.546  0.00  0.00    +0.475 P 
ATOM     32  O   UNL     1      31.152 -24.290 -14.760  0.00  0.00    -0.227 OA
BRANCH  31  33
ATOM     33  O   UNL     1      32.311 -22.416 -13.322  0.00  0.00    -0.303 OA
ATOM     34  H   UNL     1      32.107 -22.890 -12.500  0.00  0.00    +0.222 HD
ENDBRANCH  31  33
BRANCH  31  35
ATOM     35  O   UNL     1      33.719 -24.327 -14.203  0.00  0.00    -0.303 OA
ATOM     36  H   UNL     1      33.481 -25.259 -14.084  0.00  0.00    +0.222 HD
ENDBRANCH  31  35
ENDBRANCH  30  31
ENDBRANCH  29  30
ENDBRANCH   2  29
TORSDOF 9
ENDMDL
MODEL 3
REMARK VINA RESULT:     -10.6      7.397     13.804
REMARK  Name = 72696796
REMARK  9 active torsions:
REMARK  status: ('A' for Active; 'I' for Inactive)
REMARK    1  A    between atoms: N_2  and  C_29
REMARK    2  A    between atoms: C_10  and  C_12
REMARK    3  A    between atoms: C_13  and  C_16
REMARK    4  A    between atoms: N_15  and  C_18
REMARK    5  A    between atoms: C_18  and  C_20
REMARK    6  A    between atoms: C_29  and  O_30
REMARK    7  A    between atoms: O_30  and  P_31
REMARK    8  A    between atoms: P_31  and  O_33
REMARK    9  A    between atoms: P_31  and  O_35
REMARK                            x       y       z     vdW  Elec       q    Type
REMARK                         _______ _______ _______ _____ _____    ______ ____
ROOT
ATOM      1  O   UNL     1      37.348 -24.524 -10.456  0.00  0.00    -0.274 OA
ATOM      2  N   UNL     1      37.244 -23.813 -12.673  0.00  0.00    -0.217 N 
ATOM      3  N   UNL     1      37.048 -23.173 -14.984  0.00  0.00    -0.229 NA
ATOM      4  C   UNL     1      34.415 -23.716 -12.340  0.00  0.00    +0.039 C 
ATOM      5  C   UNL     1      35.050 -23.465 -13.671  0.00  0.00    +0.010 C 
ATOM      6  C   UNL     1      35.243 -24.710 -11.552  0.00  0.00    +0.090 C 
ATOM      7  C   UNL     1      36.440 -23.486 -13.810  0.00  0.00    +0.135 C 
ATOM      8  C   UNL     1      36.703 -24.313 -11.486  0.00  0.00    +0.233 C 
ATOM      9  C   UNL     1      34.274 -23.114 -14.780  0.00  0.00    +0.000 C 
ATOM     10  C   UNL     1      34.884 -22.810 -15.989  0.00  0.00    +0.019 C 
ATOM     11  C   UNL     1      36.264 -22.853 -16.037  0.00  0.00    +0.100 C 
ENDROOT
BRANCH  10  12
ATOM     12  C   UNL     1      34.102 -22.473 -17.163  0.00  0.00    +0.006 C 
ATOM     13  C   UNL     1      34.549 -21.759 -18.223  0.00  0.00    +0.058 C 
BRANCH  13  16
ATOM     14  O   UNL     1      32.579 -22.071 -19.485  0.00  0.00    -0.270 OA
ATOM     15  N   UNL     1      34.044 -20.421 -20.216  0.00  0.00    -0.267 N 
ATOM     16  C   UNL     1      33.635 -21.448 -19.361  0.00  0.00    +0.250 C 
ATOM     17  C   UNL     1      33.190 -20.037 -21.333  0.00  0.00    +0.116 C 
BRANCH  15  18
ATOM     18  C   UNL     1      35.274 -19.645 -20.070  0.00  0.00    +0.158 C 
BRANCH  18  20
ATOM     19  O   UNL     1      34.932 -17.244 -19.963  0.00  0.00    -0.456 OA
ATOM     20  C   UNL     1      35.183 -18.314 -20.762  0.00  0.00    +0.139 A 
ATOM     21  C   UNL     1      35.303 -17.924 -22.075  0.00  0.00    +0.013 A 
ATOM     22  C   UNL     1      35.114 -16.518 -22.094  0.00  0.00    +0.033 A 
ATOM     23  C   UNL     1      34.888 -16.149 -20.772  0.00  0.00    +0.145 A 
ATOM     24  C   UNL     1      35.575 -18.798 -23.232  0.00  0.00    +0.034 C 
ATOM     25  C   UNL     1      35.106 -15.517 -23.082  0.00  0.00    +0.003 C 
ATOM     26  C   UNL     1      34.655 -14.840 -20.356  0.00  0.00    +0.037 C 
ATOM     27  C   UNL     1      34.874 -14.190 -22.693  0.00  0.00    +0.000 C 
ATOM     28  C   UNL     1      34.652 -13.861 -21.354  0.00  0.00    +0.003 C 
ENDBRANCH  18  20
ENDBRANCH  15  18
ENDBRANCH  13  16
ENDBRANCH  10  12
BRANCH   2  29
ATOM     29  C   UNL     1      38.683 -23.598 -12.789  0.00  0.00    +0.257 C 
BRANCH  29  30
ATOM     30  O   UNL     1      39.331 -24.856 -12.841  0.00  0.00    -0.251 OA
BRANCH  30  31
ATOM     31  P   UNL     1      39.733 -25.455 -14.290  0.00  0.00    +0.475 P 
ATOM     32  O   UNL     1      40.960 -26.318 -14.315  0.00  0.00    -0.227 OA
BRANCH  31  33
ATOM     33  O   UNL     1      39.802 -24.140 -15.229  0.00  0.00    -0.303 OA
ATOM     34  H   UNL     1      39.072 -23.543 -15.003  0.00  0.00    +0.222 HD
ENDBRANCH  31  33
BRANCH  31  35
ATOM     35  O   UNL     1      38.380 -26.188 -14.789  0.00  0.00    -0.303 OA
ATOM     36  H   UNL     1      37.610 -25.652 -14.542  0.00  0.00    +0.222 HD
ENDBRANCH  31  35
ENDBRANCH  30  31
ENDBRANCH  29  30
ENDBRANCH   2  29
TORSDOF 9
ENDMDL
MODEL 4
REMARK VINA RESULT:     -10.2      1.103      2.129
REMARK  Name = 72696796
REMARK  9 active torsions:
REMARK  status: ('A' for Active; 'I' for Inactive)
REMARK    1  A    between atoms: N_2  and  C_29
REMARK    2  A    between atoms: C_10  and  C_12
REMARK    3  A    between atoms: C_13  and  C_16
REMARK    4  A    between atoms: N_15  and  C_18
REMARK    5  A    between atoms: C_18  and  C_20
REMARK    6  A    between atoms: C_29  and  O_30
REMARK    7  A    between atoms: O_30  and  P_31
REMARK    8  A    between atoms: P_31  and  O_33
REMARK    9  A    between atoms: P_31  and  O_35
REMARK                            x       y       z     vdW  Elec       q    Type
REMARK                         _______ _______ _______ _____ _____    ______ ____
ROOT
ATOM      1  O   UNL     1      34.160  -6.760 -22.855  0.00  0.00    -0.274 OA
ATOM      2  N   UNL     1      33.273  -8.885 -22.495  0.00  0.00    -0.217 N 
ATOM      3  N   UNL     1      32.343 -11.091 -22.253  0.00  0.00    -0.229 NA
ATOM      4  C   UNL     1      35.149  -9.819 -24.428  0.00  0.00    +0.039 C 
ATOM      5  C   UNL     1      34.119 -10.731 -23.840  0.00  0.00    +0.010 C 
ATOM      6  C   UNL     1      34.601  -8.410 -24.514  0.00  0.00    +0.090 C 
ATOM      7  C   UNL     1      33.228 -10.265 -22.871  0.00  0.00    +0.135 C 
ATOM      8  C   UNL     1      34.024  -7.938 -23.196  0.00  0.00    +0.233 C 
ATOM      9  C   UNL     1      34.088 -12.088 -24.177  0.00  0.00    +0.000 C 
ATOM     10  C   UNL     1      33.176 -12.936 -23.566  0.00  0.00    +0.019 C 
ATOM     11  C   UNL     1      32.333 -12.392 -22.617  0.00  0.00    +0.100 C 
ENDROOT
BRANCH  10  12
ATOM     12  C   UNL     1      33.101 -14.341 -23.920  0.00  0.00    +0.006 C 
ATOM     13  C   UNL     1      34.159 -15.179 -24.029  0.00  0.00    +0.058 C 
BRANCH  13  16
ATOM     14  O   UNL     1      33.394 -16.859 -25.501  0.00  0.00    -0.270 OA
ATOM     15  N   UNL     1      34.457 -17.568 -23.559  0.00  0.00    -0.267 N 
ATOM     16  C   UNL     1      33.956 -16.601 -24.434  0.00  0.00    +0.250 C 
ATOM     17  C   UNL     1      34.324 -18.979 -23.900  0.00  0.00    +0.116 C 
BRANCH  15  18
ATOM     18  C   UNL     1      35.157 -17.287 -22.307  0.00  0.00    +0.158 C 
BRANCH  18  20
ATOM     19  O   UNL     1      33.907 -18.960 -21.073  0.00  0.00    -0.456 OA
ATOM     20  C   UNL     1      35.135 -18.465 -21.376  0.00  0.00    +0.139 A 
ATOM     21  C   UNL     1      36.120 -19.180 -20.736  0.00  0.00    +0.013 A 
ATOM     22  C   UNL     1      35.461 -20.189 -19.986  0.00  0.00    +0.033 A 
ATOM     23  C   UNL     1      34.102 -20.010 -20.225  0.00  0.00    +0.145 A 
ATOM     24  C   UNL     1      37.575 -18.944 -20.818  0.00  0.00    +0.034 C 
ATOM     25  C   UNL     1      35.861 -21.230 -19.131  0.00  0.00    +0.003 C 
ATOM     26  C   UNL     1      33.100 -20.803 -19.670  0.00  0.00    +0.037 C 
ATOM     27  C   UNL     1      34.876 -22.045 -18.557  0.00  0.00    +0.000 C 
ATOM     28  C   UNL     1      33.520 -21.833 -18.823  0.00  0.00    +0.003 C 
ENDBRANCH  18  20
ENDBRANCH  15  18
ENDBRANCH  13  16
ENDBRANCH  10  12
BRANCH   2  29
ATOM     29  C   UNL     1      32.498  -8.486 -21.325  0.00  0.00    +0.257 C 
BRANCH  29  30
ATOM     30  O   UNL     1      31.311  -7.848 -21.759  0.00  0.00    -0.251 OA
BRANCH  30  31
ATOM     31  P   UNL     1      31.212  -6.238 -21.631  0.00  0.00    +0.475 P 
ATOM     32  O   UNL     1      29.930  -5.712 -21.053  0.00  0.00    -0.227 OA
BRANCH  31  33
ATOM     33  O   UNL     1      31.548  -5.726 -23.127  0.00  0.00    -0.303 OA
ATOM     34  H   UNL     1      32.031  -4.886 -23.081  0.00  0.00    +0.222 HD
ENDBRANCH  31  33
BRANCH  31  35
ATOM     35  O   UNL     1      32.542  -5.837 -20.801  0.00  0.00    -0.303 OA
ATOM     36  H   UNL     1      32.723  -6.516 -20.132  0.00  0.00    +0.222 HD
ENDBRANCH  31  35
ENDBRANCH  30  31
ENDBRANCH  29  30
ENDBRANCH   2  29
TORSDOF 9
ENDMDL
MODEL 5
REMARK VINA RESULT:     -10.0      7.575     14.120
REMARK  Name = 72696796
REMARK  9 active torsions:
REMARK  status: ('A' for Active; 'I' for Inactive)
REMARK    1  A    between atoms: N_2  and  C_29
REMARK    2  A    between atoms: C_10  and  C_12
REMARK    3  A    between atoms: C_13  and  C_16
REMARK    4  A    between atoms: N_15  and  C_18
REMARK    5  A    between atoms: C_18  and  C_20
REMARK    6  A    between atoms: C_29  and  O_30
REMARK    7  A    between atoms: O_30  and  P_31
REMARK    8  A    between atoms: P_31  and  O_33
REMARK    9  A    between atoms: P_31  and  O_35
REMARK                            x       y       z     vdW  Elec       q    Type
REMARK                         _______ _______ _______ _____ _____    ______ ____
ROOT
ATOM      1  O   UNL     1      39.143 -26.381 -12.267  0.00  0.00    -0.274 OA
ATOM      2  N   UNL     1      37.917 -24.598 -13.130  0.00  0.00    -0.217 N 
ATOM      3  N   UNL     1      36.676 -22.802 -14.142  0.00  0.00    -0.229 NA
ATOM      4  C   UNL     1      36.493 -26.531 -14.667  0.00  0.00    +0.039 C 
ATOM      5  C   UNL     1      36.254 -25.066 -14.848  0.00  0.00    +0.010 C 
ATOM      6  C   UNL     1      37.938 -26.775 -14.281  0.00  0.00    +0.090 C 
ATOM      7  C   UNL     1      36.938 -24.133 -14.064  0.00  0.00    +0.135 C 
ATOM      8  C   UNL     1      38.369 -25.920 -13.108  0.00  0.00    +0.233 C 
ATOM      9  C   UNL     1      35.278 -24.604 -15.736  0.00  0.00    +0.000 C 
ATOM     10  C   UNL     1      35.016 -23.245 -15.836  0.00  0.00    +0.019 C 
ATOM     11  C   UNL     1      35.736 -22.393 -15.022  0.00  0.00    +0.100 C 
ENDROOT
BRANCH  10  12
ATOM     12  C   UNL     1      34.030 -22.736 -16.771  0.00  0.00    +0.006 C 
ATOM     13  C   UNL     1      34.307 -22.029 -17.893  0.00  0.00    +0.058 C 
BRANCH  13  16
ATOM     14  O   UNL     1      32.040 -21.883 -18.537  0.00  0.00    -0.270 OA
ATOM     15  N   UNL     1      33.567 -20.648 -19.781  0.00  0.00    -0.267 N 
ATOM     16  C   UNL     1      33.200 -21.530 -18.760  0.00  0.00    +0.250 C 
ATOM     17  C   UNL     1      32.539 -20.093 -20.651  0.00  0.00    +0.116 C 
BRANCH  15  18
ATOM     18  C   UNL     1      34.929 -20.188 -20.044  0.00  0.00    +0.158 C 
BRANCH  18  20
ATOM     19  O   UNL     1      34.925 -17.763 -20.128  0.00  0.00    -0.456 OA
ATOM     20  C   UNL     1      34.947 -18.917 -20.844  0.00  0.00    +0.139 A 
ATOM     21  C   UNL     1      34.982 -18.652 -22.193  0.00  0.00    +0.013 A 
ATOM     22  C   UNL     1      34.982 -17.239 -22.325  0.00  0.00    +0.033 A 
ATOM     23  C   UNL     1      34.945 -16.739 -21.027  0.00  0.00    +0.145 A 
ATOM     24  C   UNL     1      35.014 -19.644 -23.285  0.00  0.00    +0.034 C 
ATOM     25  C   UNL     1      35.007 -16.328 -23.395  0.00  0.00    +0.003 C 
ATOM     26  C   UNL     1      34.933 -15.381 -20.713  0.00  0.00    +0.037 C 
ATOM     27  C   UNL     1      34.996 -14.956 -23.111  0.00  0.00    +0.000 C 
ATOM     28  C   UNL     1      34.959 -14.493 -21.793  0.00  0.00    +0.003 C 
ENDBRANCH  18  20
ENDBRANCH  15  18
ENDBRANCH  13  16
ENDBRANCH  10  12
BRANCH   2  29
ATOM     29  C   UNL     1      38.438 -23.629 -12.171  0.00  0.00    +0.257 C 
BRANCH  29  30
ATOM     30  O   UNL     1      38.024 -24.004 -10.871  0.00  0.00    -0.251 OA
BRANCH  30  31
ATOM     31  P   UNL     1      36.438 -24.079 -10.559  0.00  0.00    +0.475 P 
ATOM     32  O   UNL     1      35.775 -25.384 -10.890  0.00  0.00    -0.227 OA
BRANCH  31  33
ATOM     33  O   UNL     1      35.845 -22.793 -11.339  0.00  0.00    -0.303 OA
ATOM     34  H   UNL     1      35.377 -22.221 -10.711  0.00  0.00    +0.222 HD
ENDBRANCH  31  33
BRANCH  31  35
ATOM     35  O   UNL     1      36.333 -23.642  -9.004  0.00  0.00    -0.303 OA
ATOM     36  H   UNL     1      37.120 -23.132  -8.758  0.00  0.00    +0.222 HD
ENDBRANCH  31  35
ENDBRANCH  30  31
ENDBRANCH  29  30
ENDBRANCH   2  29
TORSDOF 9
ENDMDL
MODEL 6
REMARK VINA RESULT:      -9.7      4.157     11.440
REMARK  Name = 72696796
REMARK  9 active torsions:
REMARK  status: ('A' for Active; 'I' for Inactive)
REMARK    1  A    between atoms: N_2  and  C_29
REMARK    2  A    between atoms: C_10  and  C_12
REMARK    3  A    between atoms: C_13  and  C_16
REMARK    4  A    between atoms: N_15  and  C_18
REMARK    5  A    between atoms: C_18  and  C_20
REMARK    6  A    between atoms: C_29  and  O_30
REMARK    7  A    between atoms: O_30  and  P_31
REMARK    8  A    between atoms: P_31  and  O_33
REMARK    9  A    between atoms: P_31  and  O_35
REMARK                            x       y       z     vdW  Elec       q    Type
REMARK                         _______ _______ _______ _____ _____    ______ ____
ROOT
ATOM      1  O   UNL     1      36.809 -21.672 -18.296  0.00  0.00    -0.274 OA
ATOM      2  N   UNL     1      35.378 -20.814 -19.922  0.00  0.00    -0.217 N 
ATOM      3  N   UNL     1      33.926 -19.807 -21.555  0.00  0.00    -0.229 NA
ATOM      4  C   UNL     1      37.508 -19.062 -20.642  0.00  0.00    +0.039 C 
ATOM      5  C   UNL     1      36.157 -18.944 -21.275  0.00  0.00    +0.010 C 
ATOM      6  C   UNL     1      37.368 -19.549 -19.214  0.00  0.00    +0.090 C 
ATOM      7  C   UNL     1      35.133 -19.831 -20.933  0.00  0.00    +0.135 C 
ATOM      8  C   UNL     1      36.519 -20.798 -19.116  0.00  0.00    +0.233 C 
ATOM      9  C   UNL     1      35.919 -18.007 -22.285  0.00  0.00    +0.000 C 
ATOM     10  C   UNL     1      34.683 -17.962 -22.915  0.00  0.00    +0.019 C 
ATOM     11  C   UNL     1      33.728 -18.877 -22.517  0.00  0.00    +0.100 C 
ENDROOT
BRANCH  10  12
ATOM     12  C   UNL     1      34.398 -16.981 -23.944  0.00  0.00    +0.006 C 
ATOM     13  C   UNL     1      34.036 -15.695 -23.722  0.00  0.00    +0.058 C 
BRANCH  13  16
ATOM     14  O   UNL     1      33.403 -15.264 -25.955  0.00  0.00    -0.270 OA
ATOM     15  N   UNL     1      33.834 -13.417 -24.611  0.00  0.00    -0.267 N 
ATOM     16  C   UNL     1      33.737 -14.788 -24.868  0.00  0.00    +0.250 C 
ATOM     17  C   UNL     1      33.527 -12.466 -25.672  0.00  0.00    +0.116 C 
BRANCH  15  18
ATOM     18  C   UNL     1      34.194 -12.828 -23.323  0.00  0.00    +0.158 C 
BRANCH  18  20
ATOM     19  O   UNL     1      32.682 -11.146 -22.442  0.00  0.00    -0.456 OA
ATOM     20  C   UNL     1      33.766 -11.391 -23.224  0.00  0.00    +0.139 A 
ATOM     21  C   UNL     1      34.246 -10.224 -23.771  0.00  0.00    +0.013 A 
ATOM     22  C   UNL     1      33.404  -9.184 -23.297  0.00  0.00    +0.033 A 
ATOM     23  C   UNL     1      32.459  -9.802 -22.485  0.00  0.00    +0.145 A 
ATOM     24  C   UNL     1      35.406 -10.086 -24.672  0.00  0.00    +0.034 C 
ATOM     25  C   UNL     1      33.336  -7.790 -23.466  0.00  0.00    +0.003 C 
ATOM     26  C   UNL     1      31.439  -9.126 -21.819  0.00  0.00    +0.037 C 
ATOM     27  C   UNL     1      32.321  -7.082 -22.808  0.00  0.00    +0.000 C 
ATOM     28  C   UNL     1      31.390  -7.740 -22.001  0.00  0.00    +0.003 C 
ENDBRANCH  18  20
ENDBRANCH  15  18
ENDBRANCH  13  16
ENDBRANCH  10  12
BRANCH   2  29
ATOM     29  C   UNL     1      34.378 -21.863 -19.756  0.00  0.00    +0.257 C 
BRANCH  29  30
ATOM     30  O   UNL     1      33.666 -21.633 -18.555  0.00  0.00    -0.251 OA
BRANCH  30  31
ATOM     31  P   UNL     1      33.488 -22.862 -17.517  0.00  0.00    +0.475 P 
ATOM     32  O   UNL     1      32.223 -22.849 -16.710  0.00  0.00    -0.227 OA
BRANCH  31  33
ATOM     33  O   UNL     1      34.853 -22.816 -16.651  0.00  0.00    -0.303 OA
ATOM     34  H   UNL     1      34.735 -23.328 -15.836  0.00  0.00    +0.222 HD
ENDBRANCH  31  33
BRANCH  31  35
ATOM     35  O   UNL     1      33.687 -24.175 -18.442  0.00  0.00    -0.303 OA
ATOM     36  H   UNL     1      33.726 -24.964 -17.880  0.00  0.00    +0.222 HD
ENDBRANCH  31  35
ENDBRANCH  30  31
ENDBRANCH  29  30
ENDBRANCH   2  29
TORSDOF 9
ENDMDL
MODEL 7
REMARK VINA RESULT:      -9.5      7.538     11.281
REMARK  Name = 72696796
REMARK  9 active torsions:
REMARK  status: ('A' for Active; 'I' for Inactive)
REMARK    1  A    between atoms: N_2  and  C_29
REMARK    2  A    between atoms: C_10  and  C_12
REMARK    3  A    between atoms: C_13  and  C_16
REMARK    4  A    between atoms: N_15  and  C_18
REMARK    5  A    between atoms: C_18  and  C_20
REMARK    6  A    between atoms: C_29  and  O_30
REMARK    7  A    between atoms: O_30  and  P_31
REMARK    8  A    between atoms: P_31  and  O_33
REMARK    9  A    between atoms: P_31  and  O_35
REMARK                            x       y       z     vdW  Elec       q    Type
REMARK                         _______ _______ _______ _____ _____    ______ ____
ROOT
ATOM      1  O   UNL     1      37.098 -18.668 -21.182  0.00  0.00    -0.274 OA
ATOM      2  N   UNL     1      35.136 -19.613 -20.354  0.00  0.00    -0.217 N 
ATOM      3  N   UNL     1      33.165 -20.707 -19.512  0.00  0.00    -0.229 NA
ATOM      4  C   UNL     1      36.784 -21.017 -18.501  0.00  0.00    +0.039 C 
ATOM      5  C   UNL     1      35.313 -21.278 -18.585  0.00  0.00    +0.010 C 
ATOM      6  C   UNL     1      37.320 -20.639 -19.867  0.00  0.00    +0.090 C 
ATOM      7  C   UNL     1      34.515 -20.559 -19.477  0.00  0.00    +0.135 C 
ATOM      8  C   UNL     1      36.521 -19.523 -20.506  0.00  0.00    +0.233 C 
ATOM      9  C   UNL     1      34.695 -22.176 -17.710  0.00  0.00    +0.000 C 
ATOM     10  C   UNL     1      33.318 -22.349 -17.750  0.00  0.00    +0.019 C 
ATOM     11  C   UNL     1      32.605 -21.596 -18.661  0.00  0.00    +0.100 C 
ENDROOT
BRANCH  10  12
ATOM     12  C   UNL     1      32.653 -23.297 -16.876  0.00  0.00    +0.006 C 
ATOM     13  C   UNL     1      31.857 -22.973 -15.830  0.00  0.00    +0.058 C 
BRANCH  13  16
ATOM     14  O   UNL     1      30.367 -24.762 -15.443  0.00  0.00    -0.270 OA
ATOM     15  N   UNL     1      31.777 -24.173 -13.692  0.00  0.00    -0.267 N 
ATOM     16  C   UNL     1      31.255 -24.043 -14.982  0.00  0.00    +0.250 C 
ATOM     17  C   UNL     1      31.262 -25.215 -12.813  0.00  0.00    +0.116 C 
BRANCH  15  18
ATOM     18  C   UNL     1      32.853 -23.355 -13.134  0.00  0.00    +0.158 C 
BRANCH  18  20
ATOM     19  O   UNL     1      34.450 -24.800 -14.253  0.00  0.00    -0.456 OA
ATOM     20  C   UNL     1      34.167 -24.082 -13.134  0.00  0.00    +0.139 A 
ATOM     21  C   UNL     1      35.187 -24.187 -12.218  0.00  0.00    +0.013 A 
ATOM     22  C   UNL     1      36.170 -25.025 -12.806  0.00  0.00    +0.033 A 
ATOM     23  C   UNL     1      35.669 -25.376 -14.055  0.00  0.00    +0.145 A 
ATOM     24  C   UNL     1      35.246 -23.550 -10.888  0.00  0.00    +0.034 C 
ATOM     25  C   UNL     1      37.425 -25.527 -12.420  0.00  0.00    +0.003 C 
ATOM     26  C   UNL     1      36.335 -26.200 -14.961  0.00  0.00    +0.037 C 
ATOM     27  C   UNL     1      38.120 -26.358 -13.311  0.00  0.00    +0.000 C 
ATOM     28  C   UNL     1      37.581 -26.687 -14.557  0.00  0.00    +0.003 C 
ENDBRANCH  18  20
ENDBRANCH  15  18
ENDBRANCH  13  16
ENDBRANCH  10  12
BRANCH   2  29
ATOM     29  C   UNL     1      34.257 -18.719 -21.101  0.00  0.00    +0.257 C 
BRANCH  29  30
ATOM     30  O   UNL     1      33.803 -19.387 -22.263  0.00  0.00    -0.251 OA
BRANCH  30  31
ATOM     31  P   UNL     1      34.235 -18.799 -23.708  0.00  0.00    +0.475 P 
ATOM     32  O   UNL     1      33.112 -18.275 -24.555  0.00  0.00    -0.227 OA
BRANCH  31  33
ATOM     33  O   UNL     1      35.079 -20.011 -24.365  0.00  0.00    -0.303 OA
ATOM     34  H   UNL     1      35.340 -19.772 -25.268  0.00  0.00    +0.222 HD
ENDBRANCH  31  33
BRANCH  31  35
ATOM     35  O   UNL     1      35.378 -17.710 -23.351  0.00  0.00    -0.303 OA
ATOM     36  H   UNL     1      35.400 -17.027 -24.038  0.00  0.00    +0.222 HD
ENDBRANCH  31  35
ENDBRANCH  30  31
ENDBRANCH  29  30
ENDBRANCH   2  29
TORSDOF 9
ENDMDL
MODEL 8
REMARK VINA RESULT:      -9.4      4.609      8.198
REMARK  Name = 72696796
REMARK  9 active torsions:
REMARK  status: ('A' for Active; 'I' for Inactive)
REMARK    1  A    between atoms: N_2  and  C_29
REMARK    2  A    between atoms: C_10  and  C_12
REMARK    3  A    between atoms: C_13  and  C_16
REMARK    4  A    between atoms: N_15  and  C_18
REMARK    5  A    between atoms: C_18  and  C_20
REMARK    6  A    between atoms: C_29  and  O_30
REMARK    7  A    between atoms: O_30  and  P_31
REMARK    8  A    between atoms: P_31  and  O_33
REMARK    9  A    between atoms: P_31  and  O_35
REMARK                            x       y       z     vdW  Elec       q    Type
REMARK                         _______ _______ _______ _____ _____    ______ ____
ROOT
ATOM      1  O   UNL     1      33.531 -15.953 -25.768  0.00  0.00    -0.274 OA
ATOM      2  N   UNL     1      34.498 -16.394 -23.694  0.00  0.00    -0.217 N 
ATOM      3  N   UNL     1      35.395 -16.927 -21.526  0.00  0.00    -0.229 NA
ATOM      4  C   UNL     1      34.163 -19.158 -24.306  0.00  0.00    +0.039 C 
ATOM      5  C   UNL     1      34.666 -18.713 -22.970  0.00  0.00    +0.010 C 
ATOM      6  C   UNL     1      33.200 -18.129 -24.863  0.00  0.00    +0.090 C 
ATOM      7  C   UNL     1      34.854 -17.356 -22.697  0.00  0.00    +0.135 C 
ATOM      8  C   UNL     1      33.782 -16.731 -24.845  0.00  0.00    +0.233 C 
ATOM      9  C   UNL     1      35.046 -19.647 -22.001  0.00  0.00    +0.000 C 
ATOM     10  C   UNL     1      35.582 -19.219 -20.794  0.00  0.00    +0.019 C 
ATOM     11  C   UNL     1      35.736 -17.860 -20.609  0.00  0.00    +0.100 C 
ENDROOT
BRANCH  10  12
ATOM     12  C   UNL     1      35.956 -20.165 -19.760  0.00  0.00    +0.006 C 
ATOM     13  C   UNL     1      35.108 -21.014 -19.132  0.00  0.00    +0.058 C 
BRANCH  13  16
ATOM     14  O   UNL     1      36.821 -22.035 -17.868  0.00  0.00    -0.270 OA
ATOM     15  N   UNL     1      34.633 -22.573 -17.298  0.00  0.00    -0.267 N 
ATOM     16  C   UNL     1      35.608 -21.920 -18.057  0.00  0.00    +0.250 C 
ATOM     17  C   UNL     1      35.042 -23.451 -16.209  0.00  0.00    +0.116 C 
BRANCH  15  18
ATOM     18  C   UNL     1      33.190 -22.427 -17.479  0.00  0.00    +0.158 C 
BRANCH  18  20
ATOM     19  O   UNL     1      33.153 -23.627 -15.370  0.00  0.00    -0.456 OA
ATOM     20  C   UNL     1      32.419 -22.988 -16.319  0.00  0.00    +0.139 A 
ATOM     21  C   UNL     1      31.084 -22.999 -15.990  0.00  0.00    +0.013 A 
ATOM     22  C   UNL     1      30.981 -23.691 -14.755  0.00  0.00    +0.033 A 
ATOM     23  C   UNL     1      32.280 -24.057 -14.417  0.00  0.00    +0.145 A 
ATOM     24  C   UNL     1      29.980 -22.406 -16.769  0.00  0.00    +0.034 C 
ATOM     25  C   UNL     1      29.935 -24.049 -13.887  0.00  0.00    +0.003 C 
ATOM     26  C   UNL     1      32.618 -24.761 -13.264  0.00  0.00    +0.037 C 
ATOM     27  C   UNL     1      30.244 -24.758 -12.718  0.00  0.00    +0.000 C 
ATOM     28  C   UNL     1      31.562 -25.107 -12.414  0.00  0.00    +0.003 C 
ENDBRANCH  18  20
ENDBRANCH  15  18
ENDBRANCH  13  16
ENDBRANCH  10  12
BRANCH   2  29
ATOM     29  C   UNL     1      34.921 -15.015 -23.472  0.00  0.00    +0.257 C 
BRANCH  29  30
ATOM     30  O   UNL     1      34.029 -14.404 -22.559  0.00  0.00    -0.251 OA
BRANCH  30  31
ATOM     31  P   UNL     1      33.255 -13.060 -23.022  0.00  0.00    +0.475 P 
ATOM     32  O   UNL     1      32.274 -12.505 -22.031  0.00  0.00    -0.227 OA
BRANCH  31  33
ATOM     33  O   UNL     1      32.624 -13.469 -24.453  0.00  0.00    -0.303 OA
ATOM     34  H   UNL     1      33.339 -13.704 -25.066  0.00  0.00    +0.222 HD
ENDBRANCH  31  33
BRANCH  31  35
ATOM     35  O   UNL     1      34.452 -12.049 -23.427  0.00  0.00    -0.303 OA
ATOM     36  H   UNL     1      35.305 -12.501 -23.329  0.00  0.00    +0.222 HD
ENDBRANCH  31  35
ENDBRANCH  30  31
ENDBRANCH  29  30
ENDBRANCH   2  29
TORSDOF 9
ENDMDL
MODEL 9
REMARK VINA RESULT:      -9.4      3.467     11.180
REMARK  Name = 72696796
REMARK  9 active torsions:
REMARK  status: ('A' for Active; 'I' for Inactive)
REMARK    1  A    between atoms: N_2  and  C_29
REMARK    2  A    between atoms: C_10  and  C_12
REMARK    3  A    between atoms: C_13  and  C_16
REMARK    4  A    between atoms: N_15  and  C_18
REMARK    5  A    between atoms: C_18  and  C_20
REMARK    6  A    between atoms: C_29  and  O_30
REMARK    7  A    between atoms: O_30  and  P_31
REMARK    8  A    between atoms: P_31  and  O_33
REMARK    9  A    between atoms: P_31  and  O_35
REMARK                            x       y       z     vdW  Elec       q    Type
REMARK                         _______ _______ _______ _____ _____    ______ ____
ROOT
ATOM      1  O   UNL     1      34.394 -17.777 -25.413  0.00  0.00    -0.274 OA
ATOM      2  N   UNL     1      34.299 -16.617 -23.394  0.00  0.00    -0.217 N 
ATOM      3  N   UNL     1      34.265 -15.321 -21.367  0.00  0.00    -0.229 NA
ATOM      4  C   UNL     1      33.232 -14.434 -24.884  0.00  0.00    +0.039 C 
ATOM      5  C   UNL     1      33.555 -14.298 -23.429  0.00  0.00    +0.010 C 
ATOM      6  C   UNL     1      34.190 -15.409 -25.537  0.00  0.00    +0.090 C 
ATOM      7  C   UNL     1      34.049 -15.387 -22.707  0.00  0.00    +0.135 C 
ATOM      8  C   UNL     1      34.270 -16.722 -24.787  0.00  0.00    +0.233 C 
ATOM      9  C   UNL     1      33.284 -13.110 -22.743  0.00  0.00    +0.000 C 
ATOM     10  C   UNL     1      33.520 -13.026 -21.378  0.00  0.00    +0.019 C 
ATOM     11  C   UNL     1      34.005 -14.151 -20.742  0.00  0.00    +0.100 C 
ENDROOT
BRANCH  10  12
ATOM     12  C   UNL     1      33.277 -11.797 -20.647  0.00  0.00    +0.006 C 
ATOM     13  C   UNL     1      32.095 -11.435 -20.093  0.00  0.00    +0.058 C 
BRANCH  13  16
ATOM     14  O   UNL     1      32.271 -10.032 -18.203  0.00  0.00    -0.270 OA
ATOM     15  N   UNL     1      31.506  -9.055 -20.168  0.00  0.00    -0.267 N 
ATOM     16  C   UNL     1      31.962 -10.125 -19.392  0.00  0.00    +0.250 C 
ATOM     17  C   UNL     1      31.378  -7.735 -19.563  0.00  0.00    +0.116 C 
BRANCH  15  18
ATOM     18  C   UNL     1      31.166  -9.131 -21.587  0.00  0.00    +0.158 C 
BRANCH  18  20
ATOM     19  O   UNL     1      30.979  -6.920 -22.569  0.00  0.00    -0.456 OA
ATOM     20  C   UNL     1      31.775  -8.004 -22.371  0.00  0.00    +0.139 A 
ATOM     21  C   UNL     1      33.006  -7.817 -22.955  0.00  0.00    +0.013 A 
ATOM     22  C   UNL     1      32.974  -6.532 -23.557  0.00  0.00    +0.033 A 
ATOM     23  C   UNL     1      31.707  -6.022 -23.292  0.00  0.00    +0.145 A 
ATOM     24  C   UNL     1      34.134  -8.768 -22.954  0.00  0.00    +0.034 C 
ATOM     25  C   UNL     1      33.874  -5.745 -24.296  0.00  0.00    +0.003 C 
ATOM     26  C   UNL     1      31.265  -4.770 -23.713  0.00  0.00    +0.037 C 
ATOM     27  C   UNL     1      33.458  -4.479 -24.733  0.00  0.00    +0.000 C 
ATOM     28  C   UNL     1      32.176  -4.003 -24.446  0.00  0.00    +0.003 C 
ENDBRANCH  18  20
ENDBRANCH  15  18
ENDBRANCH  13  16
ENDBRANCH  10  12
BRANCH   2  29
ATOM     29  C   UNL     1      34.587 -17.792 -22.577  0.00  0.00    +0.257 C 
BRANCH  29  30
ATOM     30  O   UNL     1      35.990 -17.929 -22.451  0.00  0.00    -0.251 OA
BRANCH  30  31
ATOM     31  P   UNL     1      36.584 -18.515 -21.064  0.00  0.00    +0.475 P 
ATOM     32  O   UNL     1      38.071 -18.719 -21.033  0.00  0.00    -0.227 OA
BRANCH  31  33
ATOM     33  O   UNL     1      35.706 -19.850 -20.819  0.00  0.00    -0.303 OA
ATOM     34  H   UNL     1      35.247 -20.090 -21.639  0.00  0.00    +0.222 HD
ENDBRANCH  31  33
BRANCH  31  35
ATOM     35  O   UNL     1      36.017 -17.495 -19.944  0.00  0.00    -0.303 OA
ATOM     36  H   UNL     1      35.227 -17.048 -20.283  0.00  0.00    +0.222 HD
ENDBRANCH  31  35
ENDBRANCH  30  31
ENDBRANCH  29  30
ENDBRANCH   2  29
TORSDOF 9
ENDMDL
