MODEL 1
REMARK VINA RESULT:     -12.1      0.000      0.000
REMARK  Name = 118513932
REMARK  2 active torsions:
REMARK  status: ('A' for Active; 'I' for Inactive)
REMARK    1  A    between atoms: C_4  and  N_24
REMARK    2  A    between atoms: C_10  and  C_15
REMARK                            x       y       z     vdW  Elec       q    Type
REMARK                         _______ _______ _______ _____ _____    ______ ____
ROOT
ATOM      1  O   UNL     1      32.474 -22.677 -18.032  0.00  0.00    -0.274 OA
ATOM      2  N   UNL     1      34.706 -22.212 -17.457  0.00  0.00    -0.209 N 
ATOM      3  N   UNL     1      35.918 -20.621 -18.761  0.00  0.00    -0.389 NA
ATOM      4  C   UNL     1      35.791 -23.292 -15.602  0.00  0.00    +0.063 C 
ATOM      5  C   UNL     1      34.715 -23.097 -16.385  0.00  0.00    +0.089 C 
ATOM      6  C   UNL     1      36.991 -22.540 -15.900  0.00  0.00    +0.020 C 
ATOM      7  C   UNL     1      37.046 -21.675 -16.917  0.00  0.00    +0.050 C 
ATOM      8  C   UNL     1      35.849 -21.466 -17.777  0.00  0.00    +0.193 C 
ATOM      9  C   UNL     1      33.534 -22.081 -18.213  0.00  0.00    +0.242 C 
ATOM     10  C   UNL     1      34.789 -20.471 -19.516  0.00  0.00    +0.139 C 
ATOM     11  C   UNL     1      33.631 -21.112 -19.331  0.00  0.00    +0.146 C 
ENDROOT
BRANCH  10  15
ATOM     12  N   UNL     1      34.949 -17.497 -21.554  0.00  0.00    -0.178 N 
ATOM     13  N   UNL     1      34.904 -18.240 -20.418  0.00  0.00    -0.173 NA
ATOM     14  N   UNL     1      34.990 -16.956 -23.715  0.00  0.00    -0.392 NA
ATOM     15  C   UNL     1      34.842 -19.524 -20.633  0.00  0.00    +0.124 C 
ATOM     16  C   UNL     1      34.821 -20.160 -21.986  0.00  0.00    +0.023 C 
ATOM     17  C   UNL     1      34.868 -19.367 -23.073  0.00  0.00    +0.025 C 
ATOM     18  C   UNL     1      34.935 -17.958 -22.858  0.00  0.00    +0.198 C 
ATOM     19  C   UNL     1      35.016 -16.130 -21.608  0.00  0.00    +0.173 C 
ATOM     20  C   UNL     1      35.041 -15.822 -22.946  0.00  0.00    +0.111 C 
ATOM     21  C   UNL     1      34.847 -19.985 -24.447  0.00  0.00    +0.035 C 
ATOM     22  C   UNL     1      35.111 -14.495 -23.575  0.00  0.00    +0.063 C 
ENDBRANCH  10  15
BRANCH   4  24
ATOM     23  N   UNL     1      36.120 -25.354 -11.957  0.00  0.00    +0.389 N 
ATOM     24  N   UNL     1      35.815 -24.156 -14.545  0.00  0.00    -0.311 N 
ATOM     25  C   UNL     1      37.279 -25.158 -12.866  0.00  0.00    -0.027 C 
ATOM     26  C   UNL     1      38.591 -25.814 -12.495  0.00  0.00    -0.020 C 
ATOM     27  C   UNL     1      38.445 -24.326 -12.375  0.00  0.00    -0.020 C 
ATOM     28  C   UNL     1      36.922 -25.095 -14.337  0.00  0.00    +0.071 C 
ATOM     29  C   UNL     1      35.110 -24.322 -12.199  0.00  0.00    -0.060 C 
ATOM     30  C   UNL     1      34.659 -24.331 -13.660  0.00  0.00    +0.067 C 
ATOM     31  H   UNL     1      36.436 -25.297 -10.990  0.00  0.00    -0.084 HD
ATOM     32  H   UNL     1      35.709 -26.271 -12.135  0.00  0.00    -0.084 HD
ENDBRANCH   4  24
TORSDOF 2
ENDMDL
MODEL 2
REMARK VINA RESULT:     -11.4      6.453     11.408
REMARK  Name = 118513932
REMARK  2 active torsions:
REMARK  status: ('A' for Active; 'I' for Inactive)
REMARK    1  A    between atoms: C_4  and  N_24
REMARK    2  A    between atoms: C_10  and  C_15
REMARK                            x       y       z     vdW  Elec       q    Type
REMARK                         _______ _______ _______ _____ _____    ______ ____
ROOT
ATOM      1  O   UNL     1      33.768 -12.523 -25.833  0.00  0.00    -0.274 OA
ATOM      2  N   UNL     1      33.782 -13.117 -23.559  0.00  0.00    -0.209 N 
ATOM      3  N   UNL     1      33.161 -11.475 -21.940  0.00  0.00    -0.389 NA
ATOM      4  C   UNL     1      34.404 -15.323 -22.827  0.00  0.00    +0.063 C 
ATOM      5  C   UNL     1      34.199 -14.421 -23.803  0.00  0.00    +0.089 C 
ATOM      6  C   UNL     1      34.176 -14.905 -21.460  0.00  0.00    +0.020 C 
ATOM      7  C   UNL     1      33.775 -13.665 -21.160  0.00  0.00    +0.050 C 
ATOM      8  C   UNL     1      33.551 -12.676 -22.248  0.00  0.00    +0.193 C 
ATOM      9  C   UNL     1      33.598 -12.253 -24.646  0.00  0.00    +0.242 C 
ATOM     10  C   UNL     1      32.973 -10.610 -22.981  0.00  0.00    +0.139 C 
ATOM     11  C   UNL     1      33.153 -10.889 -24.275  0.00  0.00    +0.146 C 
ENDROOT
BRANCH  10  15
ATOM     12  N   UNL     1      31.894  -7.170 -23.142  0.00  0.00    -0.178 N 
ATOM     13  N   UNL     1      32.294  -8.383 -23.602  0.00  0.00    -0.173 NA
ATOM     14  N   UNL     1      31.329  -5.532 -21.743  0.00  0.00    -0.392 NA
ATOM     15  C   UNL     1      32.533  -9.249 -22.658  0.00  0.00    +0.124 C 
ATOM     16  C   UNL     1      32.395  -8.973 -21.196  0.00  0.00    +0.023 C 
ATOM     17  C   UNL     1      31.995  -7.749 -20.805  0.00  0.00    +0.025 C 
ATOM     18  C   UNL     1      31.727  -6.786 -21.824  0.00  0.00    +0.198 C 
ATOM     19  C   UNL     1      31.580  -6.088 -23.921  0.00  0.00    +0.173 C 
ATOM     20  C   UNL     1      31.235  -5.094 -23.038  0.00  0.00    +0.111 C 
ATOM     21  C   UNL     1      31.848  -7.447 -19.336  0.00  0.00    +0.035 C 
ATOM     22  C   UNL     1      30.811  -3.718 -23.335  0.00  0.00    +0.063 C 
ENDBRANCH  10  15
BRANCH   4  24
ATOM     23  N   UNL     1      34.986 -19.463 -23.225  0.00  0.00    +0.389 N 
ATOM     24  N   UNL     1      34.812 -16.606 -23.052  0.00  0.00    -0.311 N 
ATOM     25  C   UNL     1      35.250 -18.743 -21.953  0.00  0.00    -0.027 C 
ATOM     26  C   UNL     1      35.840 -19.529 -20.802  0.00  0.00    -0.020 C 
ATOM     27  C   UNL     1      34.408 -19.088 -20.743  0.00  0.00    -0.020 C 
ATOM     28  C   UNL     1      35.705 -17.308 -22.124  0.00  0.00    +0.071 C 
ATOM     29  C   UNL     1      34.029 -18.713 -24.040  0.00  0.00    -0.060 C 
ATOM     30  C   UNL     1      34.537 -17.297 -24.315  0.00  0.00    +0.067 C 
ATOM     31  H   UNL     1      34.603 -20.385 -23.019  0.00  0.00    -0.084 HD
ATOM     32  H   UNL     1      35.861 -19.558 -23.742  0.00  0.00    -0.084 HD
ENDBRANCH   4  24
TORSDOF 2
ENDMDL
MODEL 3
REMARK VINA RESULT:     -11.3      6.682     14.320
REMARK  Name = 118513932
REMARK  2 active torsions:
REMARK  status: ('A' for Active; 'I' for Inactive)
REMARK    1  A    between atoms: C_4  and  N_24
REMARK    2  A    between atoms: C_10  and  C_15
REMARK                            x       y       z     vdW  Elec       q    Type
REMARK                         _______ _______ _______ _____ _____    ______ ____
ROOT
ATOM      1  O   UNL     1      30.976 -11.114 -20.683  0.00  0.00    -0.274 OA
ATOM      2  N   UNL     1      32.654 -10.398 -22.166  0.00  0.00    -0.209 N 
ATOM      3  N   UNL     1      34.229 -11.999 -22.976  0.00  0.00    -0.389 NA
ATOM      4  C   UNL     1      32.823  -8.107 -22.881  0.00  0.00    +0.063 C 
ATOM      5  C   UNL     1      32.222  -9.076 -22.168  0.00  0.00    +0.089 C 
ATOM      6  C   UNL     1      33.975  -8.468 -23.679  0.00  0.00    +0.020 C 
ATOM      7  C   UNL     1      34.440  -9.721 -23.719  0.00  0.00    +0.050 C 
ATOM      8  C   UNL     1      33.765 -10.786 -22.926  0.00  0.00    +0.193 C 
ATOM      9  C   UNL     1      31.959 -11.333 -21.388  0.00  0.00    +0.242 C 
ATOM     10  C   UNL     1      33.570 -12.933 -22.227  0.00  0.00    +0.139 C 
ATOM     11  C   UNL     1      32.501 -12.711 -21.457  0.00  0.00    +0.146 C 
ENDROOT
BRANCH  10  15
ATOM     12  N   UNL     1      34.958 -16.157 -21.387  0.00  0.00    -0.178 N 
ATOM     13  N   UNL     1      34.530 -14.884 -21.188  0.00  0.00    -0.173 NA
ATOM     14  N   UNL     1      35.447 -18.079 -22.403  0.00  0.00    -0.392 NA
ATOM     15  C   UNL     1      34.075 -14.309 -22.266  0.00  0.00    +0.124 C 
ATOM     16  C   UNL     1      34.014 -14.954 -23.612  0.00  0.00    +0.023 C 
ATOM     17  C   UNL     1      34.455 -16.219 -23.744  0.00  0.00    +0.025 C 
ATOM     18  C   UNL     1      34.957 -16.866 -22.575  0.00  0.00    +0.198 C 
ATOM     19  C   UNL     1      35.480 -16.981 -20.425  0.00  0.00    +0.173 C 
ATOM     20  C   UNL     1      35.772 -18.156 -21.074  0.00  0.00    +0.111 C 
ATOM     21  C   UNL     1      34.403 -16.890 -25.092  0.00  0.00    +0.035 C 
ATOM     22  C   UNL     1      36.353 -19.385 -20.516  0.00  0.00    +0.063 C 
ENDBRANCH  10  15
BRANCH   4  24
ATOM     23  N   UNL     1      31.234  -4.283 -23.588  0.00  0.00    +0.389 N 
ATOM     24  N   UNL     1      32.410  -6.806 -22.894  0.00  0.00    -0.311 N 
ATOM     25  C   UNL     1      32.529  -4.725 -24.168  0.00  0.00    -0.027 C 
ATOM     26  C   UNL     1      33.333  -3.717 -24.959  0.00  0.00    -0.020 C 
ATOM     27  C   UNL     1      32.640  -4.838 -25.674  0.00  0.00    -0.020 C 
ATOM     28  C   UNL     1      33.295  -5.716 -23.316  0.00  0.00    +0.071 C 
ATOM     29  C   UNL     1      30.401  -5.445 -23.271  0.00  0.00    -0.060 C 
ATOM     30  C   UNL     1      31.126  -6.394 -22.317  0.00  0.00    +0.067 C 
ATOM     31  H   UNL     1      30.747  -3.692 -24.260  0.00  0.00    -0.084 HD
ATOM     32  H   UNL     1      31.415  -3.760 -22.731  0.00  0.00    -0.084 HD
ENDBRANCH   4  24
TORSDOF 2
ENDMDL
MODEL 4
REMARK VINA RESULT:     -11.0      6.392     13.536
REMARK  Name = 118513932
REMARK  2 active torsions:
REMARK  status: ('A' for Active; 'I' for Inactive)
REMARK    1  A    between atoms: C_4  and  N_24
REMARK    2  A    between atoms: C_10  and  C_15
REMARK                            x       y       z     vdW  Elec       q    Type
REMARK                         _______ _______ _______ _____ _____    ______ ____
ROOT
ATOM      1  O   UNL     1      34.484 -10.912 -24.743  0.00  0.00    -0.274 OA
ATOM      2  N   UNL     1      33.063 -11.104 -22.881  0.00  0.00    -0.209 N 
ATOM      3  N   UNL     1      32.979 -13.184 -21.710  0.00  0.00    -0.389 NA
ATOM      4  C   UNL     1      31.699  -9.270 -22.131  0.00  0.00    +0.063 C 
ATOM      5  C   UNL     1      32.600  -9.796 -22.978  0.00  0.00    +0.089 C 
ATOM      6  C   UNL     1      31.192 -10.114 -21.070  0.00  0.00    +0.020 C 
ATOM      7  C   UNL     1      31.596 -11.380 -20.923  0.00  0.00    +0.050 C 
ATOM      8  C   UNL     1      32.596 -11.952 -21.867  0.00  0.00    +0.193 C 
ATOM      9  C   UNL     1      34.003 -11.558 -23.814  0.00  0.00    +0.242 C 
ATOM     10  C   UNL     1      33.897 -13.654 -22.607  0.00  0.00    +0.139 C 
ATOM     11  C   UNL     1      34.429 -12.964 -23.620  0.00  0.00    +0.146 C 
ENDROOT
BRANCH  10  15
ATOM     12  N   UNL     1      35.225 -16.763 -21.343  0.00  0.00    -0.178 N 
ATOM     13  N   UNL     1      34.862 -15.455 -21.329  0.00  0.00    -0.173 NA
ATOM     14  N   UNL     1      35.558 -18.847 -22.057  0.00  0.00    -0.392 NA
ATOM     15  C   UNL     1      34.345 -15.041 -22.451  0.00  0.00    +0.124 C 
ATOM     16  C   UNL     1      34.152 -15.894 -23.663  0.00  0.00    +0.023 C 
ATOM     17  C   UNL     1      34.533 -17.184 -23.614  0.00  0.00    +0.025 C 
ATOM     18  C   UNL     1      35.102 -17.655 -22.393  0.00  0.00    +0.198 C 
ATOM     19  C   UNL     1      35.791 -17.443 -20.298  0.00  0.00    +0.173 C 
ATOM     20  C   UNL     1      35.986 -18.721 -20.761  0.00  0.00    +0.111 C 
ATOM     21  C   UNL     1      34.349 -18.063 -24.824  0.00  0.00    +0.035 C 
ATOM     22  C   UNL     1      36.564 -19.871 -20.049  0.00  0.00    +0.063 C 
ENDBRANCH  10  15
BRANCH   4  24
ATOM     23  N   UNL     1      30.875  -5.212 -22.837  0.00  0.00    +0.389 N 
ATOM     24  N   UNL     1      31.236  -7.988 -22.214  0.00  0.00    -0.311 N 
ATOM     25  C   UNL     1      31.837  -5.657 -21.796  0.00  0.00    -0.027 C 
ATOM     26  C   UNL     1      32.457  -4.603 -20.905  0.00  0.00    -0.020 C 
ATOM     27  C   UNL     1      33.294  -5.276 -21.952  0.00  0.00    -0.020 C 
ATOM     28  C   UNL     1      31.509  -6.997 -21.168  0.00  0.00    +0.071 C 
ATOM     29  C   UNL     1      30.734  -6.243 -23.867  0.00  0.00    -0.060 C 
ATOM     30  C   UNL     1      30.290  -7.571 -23.253  0.00  0.00    +0.067 C 
ATOM     31  H   UNL     1      31.216  -4.352 -23.266  0.00  0.00    -0.084 HD
ATOM     32  H   UNL     1      29.967  -5.048 -22.403  0.00  0.00    -0.084 HD
ENDBRANCH   4  24
TORSDOF 2
ENDMDL
MODEL 5
REMARK VINA RESULT:     -10.3      7.624     14.575
REMARK  Name = 118513932
REMARK  2 active torsions:
REMARK  status: ('A' for Active; 'I' for Inactive)
REMARK    1  A    between atoms: C_4  and  N_24
REMARK    2  A    between atoms: C_10  and  C_15
REMARK                            x       y       z     vdW  Elec       q    Type
REMARK                         _______ _______ _______ _____ _____    ______ ____
ROOT
ATOM      1  O   UNL     1      35.020  -9.780 -24.962  0.00  0.00    -0.274 OA
ATOM      2  N   UNL     1      33.526  -9.865 -23.149  0.00  0.00    -0.209 N 
ATOM      3  N   UNL     1      33.044 -11.983 -22.157  0.00  0.00    -0.389 NA
ATOM      4  C   UNL     1      32.478  -7.884 -22.275  0.00  0.00    +0.063 C 
ATOM      5  C   UNL     1      33.301  -8.493 -23.146  0.00  0.00    +0.089 C 
ATOM      6  C   UNL     1      31.797  -8.708 -21.297  0.00  0.00    +0.020 C 
ATOM      7  C   UNL     1      31.971 -10.032 -21.249  0.00  0.00    +0.050 C 
ATOM      8  C   UNL     1      32.886 -10.695 -22.218  0.00  0.00    +0.193 C 
ATOM      9  C   UNL     1      34.403 -10.403 -24.099  0.00  0.00    +0.242 C 
ATOM     10  C   UNL     1      33.895 -12.536 -23.072  0.00  0.00    +0.139 C 
ATOM     11  C   UNL     1      34.573 -11.873 -24.015  0.00  0.00    +0.146 C 
ENDROOT
BRANCH  10  15
ATOM     12  N   UNL     1      34.081 -16.051 -23.867  0.00  0.00    -0.178 N 
ATOM     13  N   UNL     1      33.851 -14.728 -24.070  0.00  0.00    -0.173 NA
ATOM     14  N   UNL     1      34.636 -17.961 -22.864  0.00  0.00    -0.392 NA
ATOM     15  C   UNL     1      34.090 -13.988 -23.025  0.00  0.00    +0.124 C 
ATOM     16  C   UNL     1      34.572 -14.505 -21.709  0.00  0.00    +0.023 C 
ATOM     17  C   UNL     1      34.781 -15.828 -21.572  0.00  0.00    +0.025 C 
ATOM     18  C   UNL     1      34.524 -16.656 -22.705  0.00  0.00    +0.198 C 
ATOM     19  C   UNL     1      33.909 -17.041 -24.799  0.00  0.00    +0.173 C 
ATOM     20  C   UNL     1      34.257 -18.205 -24.158  0.00  0.00    +0.111 C 
ATOM     21  C   UNL     1      35.266 -16.374 -20.254  0.00  0.00    +0.035 C 
ATOM     22  C   UNL     1      34.259 -19.574 -24.693  0.00  0.00    +0.063 C 
ENDBRANCH  10  15
BRANCH   4  24
ATOM     23  N   UNL     1      31.270  -3.893 -22.779  0.00  0.00    +0.389 N 
ATOM     24  N   UNL     1      32.248  -6.539 -22.259  0.00  0.00    -0.311 N 
ATOM     25  C   UNL     1      32.301  -4.525 -23.642  0.00  0.00    -0.027 C 
ATOM     26  C   UNL     1      32.996  -3.659 -24.668  0.00  0.00    -0.020 C 
ATOM     27  C   UNL     1      32.003  -4.688 -25.118  0.00  0.00    -0.020 C 
ATOM     28  C   UNL     1      33.127  -5.594 -22.956  0.00  0.00    +0.071 C 
ATOM     29  C   UNL     1      30.404  -4.919 -22.194  0.00  0.00    -0.060 C 
ATOM     30  C   UNL     1      31.222  -5.938 -21.401  0.00  0.00    +0.067 C 
ATOM     31  H   UNL     1      30.706  -3.255 -23.339  0.00  0.00    -0.084 HD
ATOM     32  H   UNL     1      31.733  -3.381 -22.028  0.00  0.00    -0.084 HD
ENDBRANCH   4  24
TORSDOF 2
ENDMDL
MODEL 6
REMARK VINA RESULT:      -9.9      7.037     14.138
REMARK  Name = 118513932
REMARK  2 active torsions:
REMARK  status: ('A' for Active; 'I' for Inactive)
REMARK    1  A    between atoms: C_4  and  N_24
REMARK    2  A    between atoms: C_10  and  C_15
REMARK                            x       y       z     vdW  Elec       q    Type
REMARK                         _______ _______ _______ _____ _____    ______ ____
ROOT
ATOM      1  O   UNL     1      31.276 -11.353 -20.747  0.00  0.00    -0.274 OA
ATOM      2  N   UNL     1      32.888 -10.721 -22.336  0.00  0.00    -0.209 N 
ATOM      3  N   UNL     1      34.265 -12.412 -23.309  0.00  0.00    -0.389 NA
ATOM      4  C   UNL     1      33.185  -8.428 -23.001  0.00  0.00    +0.063 C 
ATOM      5  C   UNL     1      32.564  -9.370 -22.270  0.00  0.00    +0.089 C 
ATOM      6  C   UNL     1      34.241  -8.851 -23.896  0.00  0.00    +0.020 C 
ATOM      7  C   UNL     1      34.600 -10.135 -24.005  0.00  0.00    +0.050 C 
ATOM      8  C   UNL     1      33.905 -11.169 -23.191  0.00  0.00    +0.193 C 
ATOM      9  C   UNL     1      32.182 -11.624 -21.532  0.00  0.00    +0.242 C 
ATOM     10  C   UNL     1      33.593 -13.317 -22.537  0.00  0.00    +0.139 C 
ATOM     11  C   UNL     1      32.606 -13.037 -21.680  0.00  0.00    +0.146 C 
ENDROOT
BRANCH  10  15
ATOM     12  N   UNL     1      34.158 -16.690 -23.689  0.00  0.00    -0.178 N 
ATOM     13  N   UNL     1      33.735 -15.400 -23.739  0.00  0.00    -0.173 NA
ATOM     14  N   UNL     1      35.062 -18.581 -22.934  0.00  0.00    -0.392 NA
ATOM     15  C   UNL     1      33.981 -14.725 -22.651  0.00  0.00    +0.124 C 
ATOM     16  C   UNL     1      34.661 -15.280 -21.442  0.00  0.00    +0.023 C 
ATOM     17  C   UNL     1      35.056 -16.567 -21.456  0.00  0.00    +0.025 C 
ATOM     18  C   UNL     1      34.795 -17.323 -22.638  0.00  0.00    +0.198 C 
ATOM     19  C   UNL     1      34.023 -17.610 -24.694  0.00  0.00    +0.173 C 
ATOM     20  C   UNL     1      34.586 -18.764 -24.206  0.00  0.00    +0.111 C 
ATOM     21  C   UNL     1      35.743 -17.149 -20.247  0.00  0.00    +0.035 C 
ATOM     22  C   UNL     1      34.713 -20.069 -24.872  0.00  0.00    +0.063 C 
ENDBRANCH  10  15
BRANCH   4  24
ATOM     23  N   UNL     1      31.811  -4.484 -23.448  0.00  0.00    +0.389 N 
ATOM     24  N   UNL     1      32.877  -7.099 -22.947  0.00  0.00    -0.311 N 
ATOM     25  C   UNL     1      32.966  -5.014 -24.217  0.00  0.00    -0.027 C 
ATOM     26  C   UNL     1      33.720  -4.058 -25.115  0.00  0.00    -0.020 C 
ATOM     27  C   UNL     1      32.843  -5.112 -25.723  0.00  0.00    -0.020 C 
ATOM     28  C   UNL     1      33.772  -6.074 -23.493  0.00  0.00    +0.071 C 
ATOM     29  C   UNL     1      30.946  -5.583 -23.015  0.00  0.00    -0.060 C 
ATOM     30  C   UNL     1      31.729  -6.600 -22.183  0.00  0.00    +0.067 C 
ATOM     31  H   UNL     1      31.277  -3.846 -24.037  0.00  0.00    -0.084 HD
ATOM     32  H   UNL     1      32.158  -3.989 -22.625  0.00  0.00    -0.084 HD
ENDBRANCH   4  24
TORSDOF 2
ENDMDL
MODEL 7
REMARK VINA RESULT:      -9.8      1.371      1.856
REMARK  Name = 118513932
REMARK  2 active torsions:
REMARK  status: ('A' for Active; 'I' for Inactive)
REMARK    1  A    between atoms: C_4  and  N_24
REMARK    2  A    between atoms: C_10  and  C_15
REMARK                            x       y       z     vdW  Elec       q    Type
REMARK                         _______ _______ _______ _____ _____    ______ ____
ROOT
ATOM      1  O   UNL     1      37.788 -20.920 -17.401  0.00  0.00    -0.274 OA
ATOM      2  N   UNL     1      35.591 -21.738 -17.568  0.00  0.00    -0.209 N 
ATOM      3  N   UNL     1      34.215 -20.973 -19.363  0.00  0.00    -0.389 NA
ATOM      4  C   UNL     1      34.700 -23.315 -15.984  0.00  0.00    +0.063 C 
ATOM      5  C   UNL     1      35.702 -22.542 -16.439  0.00  0.00    +0.089 C 
ATOM      6  C   UNL     1      33.449 -23.300 -16.713  0.00  0.00    +0.020 C 
ATOM      7  C   UNL     1      33.279 -22.548 -17.806  0.00  0.00    +0.050 C 
ATOM      8  C   UNL     1      34.396 -21.698 -18.300  0.00  0.00    +0.193 C 
ATOM      9  C   UNL     1      36.694 -20.968 -17.959  0.00  0.00    +0.242 C 
ATOM     10  C   UNL     1      35.275 -20.212 -19.769  0.00  0.00    +0.139 C 
ATOM     11  C   UNL     1      36.470 -20.149 -19.173  0.00  0.00    +0.146 C 
ENDROOT
BRANCH  10  15
ATOM     12  N   UNL     1      34.893 -17.463 -22.076  0.00  0.00    -0.178 N 
ATOM     13  N   UNL     1      35.064 -18.085 -20.881  0.00  0.00    -0.173 NA
ATOM     14  N   UNL     1      34.605 -17.149 -24.263  0.00  0.00    -0.392 NA
ATOM     15  C   UNL     1      35.095 -19.385 -20.966  0.00  0.00    +0.124 C 
ATOM     16  C   UNL     1      34.959 -20.158 -22.238  0.00  0.00    +0.023 C 
ATOM     17  C   UNL     1      34.791 -19.482 -23.390  0.00  0.00    +0.025 C 
ATOM     18  C   UNL     1      34.754 -18.057 -23.318  0.00  0.00    +0.198 C 
ATOM     19  C   UNL     1      34.825 -16.108 -22.265  0.00  0.00    +0.173 C 
ATOM     20  C   UNL     1      34.649 -15.940 -23.617  0.00  0.00    +0.111 C 
ATOM     21  C   UNL     1      34.651 -20.239 -24.685  0.00  0.00    +0.035 C 
ATOM     22  C   UNL     1      34.513 -14.684 -24.370  0.00  0.00    +0.063 C 
ENDBRANCH  10  15
BRANCH   4  24
ATOM     23  N   UNL     1      35.348 -25.167 -12.271  0.00  0.00    +0.389 N 
ATOM     24  N   UNL     1      34.794 -24.109 -14.878  0.00  0.00    -0.311 N 
ATOM     25  C   UNL     1      36.384 -25.139 -13.335  0.00  0.00    -0.027 C 
ATOM     26  C   UNL     1      37.673 -25.892 -13.091  0.00  0.00    -0.020 C 
ATOM     27  C   UNL     1      37.673 -24.393 -13.065  0.00  0.00    -0.020 C 
ATOM     28  C   UNL     1      35.835 -25.134 -14.748  0.00  0.00    +0.071 C 
ATOM     29  C   UNL     1      34.406 -24.060 -12.454  0.00  0.00    -0.060 C 
ATOM     30  C   UNL     1      33.760 -24.117 -13.839  0.00  0.00    +0.067 C 
ATOM     31  H   UNL     1      35.797 -25.079 -11.360  0.00  0.00    -0.084 HD
ATOM     32  H   UNL     1      34.839 -26.049 -12.324  0.00  0.00    -0.084 HD
ENDBRANCH   4  24
TORSDOF 2
ENDMDL
MODEL 8
REMARK VINA RESULT:      -9.7      6.601     11.559
REMARK  Name = 118513932
REMARK  2 active torsions:
REMARK  status: ('A' for Active; 'I' for Inactive)
REMARK    1  A    between atoms: C_4  and  N_24
REMARK    2  A    between atoms: C_10  and  C_15
REMARK                            x       y       z     vdW  Elec       q    Type
REMARK                         _______ _______ _______ _____ _____    ______ ____
ROOT
ATOM      1  O   UNL     1      32.401 -13.418 -20.196  0.00  0.00    -0.274 OA
ATOM      2  N   UNL     1      33.324 -13.210 -22.348  0.00  0.00    -0.209 N 
ATOM      3  N   UNL     1      33.339 -11.060 -23.387  0.00  0.00    -0.389 NA
ATOM      4  C   UNL     1      34.245 -15.097 -23.522  0.00  0.00    +0.063 C 
ATOM      5  C   UNL     1      33.649 -14.559 -22.443  0.00  0.00    +0.089 C 
ATOM      6  C   UNL     1      34.558 -14.221 -24.631  0.00  0.00    +0.020 C 
ATOM      7  C   UNL     1      34.271 -12.916 -24.600  0.00  0.00    +0.050 C 
ATOM      8  C   UNL     1      33.612 -12.331 -23.401  0.00  0.00    +0.193 C 
ATOM      9  C   UNL     1      32.703 -12.747 -21.181  0.00  0.00    +0.242 C 
ATOM     10  C   UNL     1      32.734 -10.580 -22.260  0.00  0.00    +0.139 C 
ATOM     11  C   UNL     1      32.401 -11.296 -21.182  0.00  0.00    +0.146 C 
ENDROOT
BRANCH  10  15
ATOM     12  N   UNL     1      31.618  -7.238 -23.044  0.00  0.00    -0.178 N 
ATOM     13  N   UNL     1      31.849  -8.563 -23.236  0.00  0.00    -0.173 NA
ATOM     14  N   UNL     1      31.555  -5.232 -22.078  0.00  0.00    -0.392 NA
ATOM     15  C   UNL     1      32.416  -9.150 -22.220  0.00  0.00    +0.124 C 
ATOM     16  C   UNL     1      32.793  -8.467 -20.946  0.00  0.00    +0.023 C 
ATOM     17  C   UNL     1      32.538  -7.151 -20.818  0.00  0.00    +0.025 C 
ATOM     18  C   UNL     1      31.918  -6.490 -21.920  0.00  0.00    +0.198 C 
ATOM     19  C   UNL     1      31.037  -6.392 -23.950  0.00  0.00    +0.173 C 
ATOM     20  C   UNL     1      31.009  -5.165 -23.334  0.00  0.00    +0.111 C 
ATOM     21  C   UNL     1      32.910  -6.441 -19.542  0.00  0.00    +0.035 C 
ATOM     22  C   UNL     1      30.488  -3.894 -23.857  0.00  0.00    +0.063 C 
ENDBRANCH  10  15
BRANCH   4  24
ATOM     23  N   UNL     1      34.630 -19.279 -23.426  0.00  0.00    +0.389 N 
ATOM     24  N   UNL     1      34.570 -16.419 -23.629  0.00  0.00    -0.311 N 
ATOM     25  C   UNL     1      35.135 -18.410 -22.332  0.00  0.00    -0.027 C 
ATOM     26  C   UNL     1      35.897 -19.064 -21.200  0.00  0.00    -0.020 C 
ATOM     27  C   UNL     1      34.511 -18.545 -20.959  0.00  0.00    -0.020 C 
ATOM     28  C   UNL     1      35.593 -17.037 -22.779  0.00  0.00    +0.071 C 
ATOM     29  C   UNL     1      33.565 -18.595 -24.162  0.00  0.00    -0.060 C 
ATOM     30  C   UNL     1      34.056 -17.257 -24.717  0.00  0.00    +0.067 C 
ATOM     31  H   UNL     1      34.264 -20.143 -23.029  0.00  0.00    -0.084 HD
ATOM     32  H   UNL     1      35.396 -19.488 -24.066  0.00  0.00    -0.084 HD
ENDBRANCH   4  24
TORSDOF 2
ENDMDL
MODEL 9
REMARK VINA RESULT:      -9.6      1.329      9.925
REMARK  Name = 118513932
REMARK  2 active torsions:
REMARK  status: ('A' for Active; 'I' for Inactive)
REMARK    1  A    between atoms: C_4  and  N_24
REMARK    2  A    between atoms: C_10  and  C_15
REMARK                            x       y       z     vdW  Elec       q    Type
REMARK                         _______ _______ _______ _____ _____    ______ ____
ROOT
ATOM      1  O   UNL     1      32.499 -21.661 -19.511  0.00  0.00    -0.274 OA
ATOM      2  N   UNL     1      34.711 -20.866 -19.463  0.00  0.00    -0.209 N 
ATOM      3  N   UNL     1      36.140 -21.558 -17.678  0.00  0.00    -0.389 NA
ATOM      4  C   UNL     1      35.564 -19.384 -21.154  0.00  0.00    +0.063 C 
ATOM      5  C   UNL     1      34.570 -20.119 -20.626  0.00  0.00    +0.089 C 
ATOM      6  C   UNL     1      36.839 -19.377 -20.468  0.00  0.00    +0.020 C 
ATOM      7  C   UNL     1      37.038 -20.074 -19.344  0.00  0.00    +0.050 C 
ATOM      8  C   UNL     1      35.930 -20.885 -18.770  0.00  0.00    +0.193 C 
ATOM      9  C   UNL     1      33.613 -21.599 -18.994  0.00  0.00    +0.242 C 
ATOM     10  C   UNL     1      35.086 -22.283 -17.198  0.00  0.00    +0.139 C 
ATOM     11  C   UNL     1      33.871 -22.360 -17.749  0.00  0.00    +0.146 C 
ENDROOT
BRANCH  10  15
ATOM     12  N   UNL     1      36.524 -24.120 -14.445  0.00  0.00    -0.178 N 
ATOM     13  N   UNL     1      36.495 -23.420 -15.608  0.00  0.00    -0.173 NA
ATOM     14  N   UNL     1      35.844 -25.146 -12.587  0.00  0.00    -0.392 NA
ATOM     15  C   UNL     1      35.298 -23.050 -15.967  0.00  0.00    +0.124 C 
ATOM     16  C   UNL     1      34.050 -23.347 -15.200  0.00  0.00    +0.023 C 
ATOM     17  C   UNL     1      34.147 -24.046 -14.054  0.00  0.00    +0.025 C 
ATOM     18  C   UNL     1      35.449 -24.461 -13.644  0.00  0.00    +0.198 C 
ATOM     19  C   UNL     1      37.649 -24.624 -13.848  0.00  0.00    +0.173 C 
ATOM     20  C   UNL     1      37.205 -25.249 -12.708  0.00  0.00    +0.111 C 
ATOM     21  C   UNL     1      32.902 -24.358 -13.264  0.00  0.00    +0.035 C 
ATOM     22  C   UNL     1      37.995 -25.960 -11.691  0.00  0.00    +0.063 C 
ENDBRANCH  10  15
BRANCH   4  24
ATOM     23  N   UNL     1      34.506 -16.918 -24.385  0.00  0.00    +0.389 N 
ATOM     24  N   UNL     1      35.441 -18.646 -22.295  0.00  0.00    -0.311 N 
ATOM     25  C   UNL     1      34.059 -18.331 -24.286  0.00  0.00    -0.027 C 
ATOM     26  C   UNL     1      33.278 -18.912 -25.444  0.00  0.00    -0.020 C 
ATOM     27  C   UNL     1      32.576 -18.609 -24.153  0.00  0.00    -0.020 C 
ATOM     28  C   UNL     1      35.027 -19.249 -23.567  0.00  0.00    +0.071 C 
ATOM     29  C   UNL     1      34.822 -16.394 -23.055  0.00  0.00    -0.060 C 
ATOM     30  C   UNL     1      35.887 -17.251 -22.369  0.00  0.00    +0.067 C 
ATOM     31  H   UNL     1      33.763 -16.357 -24.801  0.00  0.00    -0.084 HD
ATOM     32  H   UNL     1      35.342 -16.874 -24.968  0.00  0.00    -0.084 HD
ENDBRANCH   4  24
TORSDOF 2
ENDMDL
