MODEL 1
REMARK VINA RESULT:     -11.8      0.000      0.000
REMARK  Name = 10275777
REMARK  5 active torsions:
REMARK  status: ('A' for Active; 'I' for Inactive)
REMARK    1  A    between atoms: C_1  and  N_19
REMARK    2  A    between atoms: C_2  and  C_11
REMARK    3  A    between atoms: C_5  and  O_34
REMARK    4  A    between atoms: C_20  and  C_22
REMARK    5  A    between atoms: C_23  and  C_30
REMARK                            x       y       z     vdW  Elec       q    Type
REMARK                         _______ _______ _______ _____ _____    ______ ____
ROOT
ATOM      1  C   UNL     1      31.983 -23.159 -15.984  0.00  0.00    +0.055 C 
ATOM      2  C   UNL     1      32.693 -23.769 -14.963  0.00  0.00    +0.070 C 
ATOM      3  C   UNL     1      30.606 -23.283 -16.078  0.00  0.00    +0.018 C 
ATOM      4  C   UNL     1      32.009 -24.525 -14.011  0.00  0.00    +0.043 C 
ATOM      5  C   UNL     1      30.623 -24.660 -14.093  0.00  0.00    +0.139 C 
ATOM      6  C   UNL     1      29.922 -24.040 -15.127  0.00  0.00    +0.038 C 
ENDROOT
BRANCH   2  11
ATOM      7 CL   UNL     1      40.590 -25.600 -13.943  0.00  0.00    -0.081 Cl
ATOM      8  O   UNL     1      34.653 -22.517 -14.904  0.00  0.00    -0.270 OA
ATOM      9  N   UNL     1      34.840 -24.842 -14.649  0.00  0.00    -0.266 N 
ATOM     10  N   UNL     1      36.683 -26.284 -14.304  0.00  0.00    -0.228 NA
ATOM     11  C   UNL     1      34.140 -23.645 -14.846  0.00  0.00    +0.252 C 
ATOM     12  C   UNL     1      36.234 -25.029 -14.479  0.00  0.00    +0.134 C 
ATOM     13  C   UNL     1      37.021 -23.899 -14.506  0.00  0.00    +0.035 C 
ATOM     14  C   UNL     1      38.391 -24.071 -14.339  0.00  0.00    +0.016 C 
ATOM     15  C   UNL     1      38.019 -26.413 -14.144  0.00  0.00    +0.112 C 
ATOM     16  C   UNL     1      38.907 -25.349 -14.154  0.00  0.00    +0.077 C 
ATOM     17  H   UNL     1      34.292 -25.660 -14.626  0.00  0.00    +0.157 HD
ENDBRANCH   2  11
BRANCH   1  19
ATOM     18  O   UNL     1      33.697 -24.016 -18.289  0.00  0.00    -0.270 OA
ATOM     19  N   UNL     1      32.656 -22.386 -16.960  0.00  0.00    -0.280 N 
ATOM     20  C   UNL     1      33.451 -22.828 -18.027  0.00  0.00    +0.249 C 
ATOM     21  H   UNL     1      32.552 -21.410 -16.880  0.00  0.00    +0.155 HD
BRANCH  20  22
ATOM     22  C   UNL     1      34.038 -21.786 -18.855  0.00  0.00    +0.054 C 
ATOM     23  C   UNL     1      35.150 -19.811 -20.422  0.00  0.00    +0.031 C 
ATOM     24  C   UNL     1      33.217 -20.859 -19.496  0.00  0.00    +0.005 C 
ATOM     25  C   UNL     1      35.423 -21.714 -19.008  0.00  0.00    +0.005 C 
ATOM     26  C   UNL     1      33.780 -19.859 -20.289  0.00  0.00    +0.003 C 
ATOM     27  C   UNL     1      35.986 -20.713 -19.800  0.00  0.00    +0.003 C 
BRANCH  23  30
ATOM     28  N   UNL     1      35.137 -18.369 -22.467  0.00  0.00    -0.290 N 
ATOM     29  N   UNL     1      36.844 -18.219 -20.791  0.00  0.00    -0.285 NA
ATOM     30  C   UNL     1      35.751 -18.744 -21.267  0.00  0.00    +0.123 C 
ATOM     31  C   UNL     1      35.745 -17.383 -23.357  0.00  0.00    +0.114 C 
ATOM     32  C   UNL     1      33.904 -18.975 -22.962  0.00  0.00    +0.114 C 
ATOM     33  H   UNL     1      37.306 -17.507 -21.289  0.00  0.00    +0.188 HD
ENDBRANCH  23  30
ENDBRANCH  20  22
ENDBRANCH   1  19
BRANCH   5  34
ATOM     34  O   UNL     1      29.955 -25.398 -13.164  0.00  0.00    -0.471 OA
ATOM     35  C   UNL     1      28.656 -25.869 -13.521  0.00  0.00    +0.252 C 
ENDBRANCH   5  34
TORSDOF 5
ENDMDL
