MODEL 1
REMARK VINA RESULT:     -12.9      0.000      0.000
REMARK  Name = 9823454
REMARK  7 active torsions:
REMARK  status: ('A' for Active; 'I' for Inactive)
REMARK    1  A    between atoms: C_1  and  C_4
REMARK    2  A    between atoms: C_1  and  N_8
REMARK    3  A    between atoms: C_1  and  C_23
REMARK    4  A    between atoms: N_3  and  O_6
REMARK    5  A    between atoms: N_8  and  S_10
REMARK    6  A    between atoms: S_10  and  C_13
REMARK    7  A    between atoms: C_23  and  C_24
REMARK                            x       y       z     vdW  Elec       q    Type
REMARK                         _______ _______ _______ _____ _____    ______ ____
ROOT
ATOM      1  C   UNL     1      35.878 -22.387 -15.044  0.00  0.00    +0.158 C 
ENDROOT
BRANCH   1   4
ATOM      2  O   UNL     1      37.558 -22.672 -13.329  0.00  0.00    -0.272 OA
ATOM      3  N   UNL     1      37.894 -23.655 -15.391  0.00  0.00    -0.196 N 
ATOM      4  C   UNL     1      37.189 -22.911 -14.478  0.00  0.00    +0.260 C 
ATOM      5  H   UNL     1      37.558 -23.821 -16.302  0.00  0.00    +0.182 HD
BRANCH   3   6
ATOM      6  O   UNL     1      39.121 -24.166 -14.947  0.00  0.00    -0.295 OA
ATOM      7  H   UNL     1      39.353 -24.949 -15.469  0.00  0.00    +0.241 HD
ENDBRANCH   3   6
ENDBRANCH   1   4
BRANCH   1   8
ATOM      8  N   UNL     1      34.883 -22.546 -13.956  0.00  0.00    -0.172 NA
ATOM      9  H   UNL     1      35.235 -22.022 -13.155  0.00  0.00    +0.149 HD
BRANCH   8  10
ATOM     10  S   UNL     1      34.488 -24.098 -13.392  0.00  0.00    +0.061 S 
ATOM     11  O   UNL     1      34.606 -24.131 -11.946  0.00  0.00    -0.153 OA
ATOM     12  O   UNL     1      35.181 -25.080 -14.203  0.00  0.00    -0.153 OA
BRANCH  10  13
ATOM     13  C   UNL     1      32.773 -24.209 -13.801  0.00  0.00    +0.122 C 
ATOM     14  C   UNL     1      32.254 -23.369 -14.772  0.00  0.00    +0.020 C 
ATOM     15  C   UNL     1      30.892 -23.444 -15.109  0.00  0.00    +0.001 C 
ATOM     16  C   UNL     1      31.981 -25.130 -13.145  0.00  0.00    +0.020 C 
ATOM     17  C   UNL     1      30.066 -24.383 -14.446  0.00  0.00    +0.000 C 
ATOM     18  C   UNL     1      30.626 -25.219 -13.467  0.00  0.00    +0.001 C 
ATOM     19  C   UNL     1      30.333 -22.608 -16.088  0.00  0.00    +0.000 C 
ATOM     20  C   UNL     1      28.705 -24.458 -14.781  0.00  0.00    +0.000 C 
ATOM     21  C   UNL     1      28.977 -22.696 -16.410  0.00  0.00    +0.000 C 
ATOM     22  C   UNL     1      28.166 -23.619 -15.758  0.00  0.00    +0.000 C 
ENDBRANCH  10  13
ENDBRANCH   8  10
ENDBRANCH   1   8
BRANCH   1  23
ATOM     23  C   UNL     1      35.440 -23.199 -16.274  0.00  0.00    +0.053 C 
BRANCH  23  24
ATOM     24  C   UNL     1      35.055 -22.349 -17.437  0.00  0.00    -0.020 C 
ATOM     25  C   UNL     1      36.017 -21.570 -18.081  0.00  0.00    -0.004 C 
ATOM     26  C   UNL     1      35.670 -20.764 -19.178  0.00  0.00    -0.000 C 
ATOM     27  C   UNL     1      33.736 -22.334 -17.880  0.00  0.00    -0.004 C 
ATOM     28  C   UNL     1      34.328 -20.749 -19.628  0.00  0.00    -0.000 C 
ATOM     29  C   UNL     1      33.374 -21.540 -18.969  0.00  0.00    -0.000 C 
ATOM     30  C   UNL     1      36.625 -19.974 -19.837  0.00  0.00    -0.000 C 
ATOM     31  C   UNL     1      33.981 -19.944 -20.725  0.00  0.00    -0.000 C 
ATOM     32  C   UNL     1      36.263 -19.180 -20.926  0.00  0.00    -0.000 C 
ATOM     33  C   UNL     1      34.943 -19.164 -21.368  0.00  0.00    -0.000 C 
ENDBRANCH  23  24
ENDBRANCH   1  23
TORSDOF 7
ENDMDL
MODEL 2
REMARK VINA RESULT:     -12.9      1.482      6.083
REMARK  Name = 9823454
REMARK  7 active torsions:
REMARK  status: ('A' for Active; 'I' for Inactive)
REMARK    1  A    between atoms: C_1  and  C_4
REMARK    2  A    between atoms: C_1  and  N_8
REMARK    3  A    between atoms: C_1  and  C_23
REMARK    4  A    between atoms: N_3  and  O_6
REMARK    5  A    between atoms: N_8  and  S_10
REMARK    6  A    between atoms: S_10  and  C_13
REMARK    7  A    between atoms: C_23  and  C_24
REMARK                            x       y       z     vdW  Elec       q    Type
REMARK                         _______ _______ _______ _____ _____    ______ ____
ROOT
ATOM      1  C   UNL     1      34.558 -23.872 -12.733  0.00  0.00    +0.158 C 
ENDROOT
BRANCH   1   4
ATOM      2  O   UNL     1      35.282 -24.964 -10.701  0.00  0.00    -0.272 OA
ATOM      3  N   UNL     1      36.398 -23.069 -11.406  0.00  0.00    -0.196 N 
ATOM      4  C   UNL     1      35.438 -24.046 -11.506  0.00  0.00    +0.260 C 
ATOM      5  H   UNL     1      36.486 -22.352 -12.075  0.00  0.00    +0.182 HD
BRANCH   3   6
ATOM      6  O   UNL     1      37.245 -23.155 -10.292  0.00  0.00    -0.295 OA
ATOM      7  H   UNL     1      37.213 -24.055  -9.931  0.00  0.00    +0.241 HD
ENDBRANCH   3   6
ENDBRANCH   1   4
BRANCH   1   8
ATOM      8  N   UNL     1      35.334 -23.017 -13.662  0.00  0.00    -0.172 NA
ATOM      9  H   UNL     1      34.694 -22.306 -14.013  0.00  0.00    +0.149 HD
BRANCH   8  10
ATOM     10  S   UNL     1      36.091 -23.709 -15.015  0.00  0.00    +0.061 S 
ATOM     11  O   UNL     1      35.805 -25.131 -15.053  0.00  0.00    -0.153 OA
ATOM     12  O   UNL     1      37.462 -23.238 -15.076  0.00  0.00    -0.153 OA
BRANCH  10  13
ATOM     13  C   UNL     1      35.223 -22.943 -16.350  0.00  0.00    +0.122 C 
ATOM     14  C   UNL     1      35.927 -22.174 -17.261  0.00  0.00    +0.020 C 
ATOM     15  C   UNL     1      35.251 -21.558 -18.327  0.00  0.00    +0.001 C 
ATOM     16  C   UNL     1      33.858 -23.125 -16.460  0.00  0.00    +0.020 C 
ATOM     17  C   UNL     1      33.853 -21.734 -18.455  0.00  0.00    +0.000 C 
ATOM     18  C   UNL     1      33.171 -22.521 -17.513  0.00  0.00    +0.001 C 
ATOM     19  C   UNL     1      35.933 -20.771 -19.269  0.00  0.00    +0.000 C 
ATOM     20  C   UNL     1      33.177 -21.117 -19.521  0.00  0.00    +0.000 C 
ATOM     21  C   UNL     1      35.246 -20.165 -20.322  0.00  0.00    +0.000 C 
ATOM     22  C   UNL     1      33.872 -20.339 -20.448  0.00  0.00    +0.000 C 
ENDBRANCH  10  13
ENDBRANCH   8  10
ENDBRANCH   1   8
BRANCH   1  23
ATOM     23  C   UNL     1      33.232 -23.181 -12.373  0.00  0.00    +0.053 C 
BRANCH  23  24
ATOM     24  C   UNL     1      32.081 -23.642 -13.201  0.00  0.00    -0.020 C 
ATOM     25  C   UNL     1      31.388 -22.733 -14.002  0.00  0.00    -0.004 C 
ATOM     26  C   UNL     1      30.302 -23.152 -14.788  0.00  0.00    -0.000 C 
ATOM     27  C   UNL     1      31.698 -24.980 -13.175  0.00  0.00    -0.004 C 
ATOM     28  C   UNL     1      29.913 -24.513 -14.761  0.00  0.00    -0.000 C 
ATOM     29  C   UNL     1      30.621 -25.413 -13.950  0.00  0.00    -0.000 C 
ATOM     30  C   UNL     1      29.594 -22.251 -15.599  0.00  0.00    -0.000 C 
ATOM     31  C   UNL     1      28.827 -24.932 -15.546  0.00  0.00    -0.000 C 
ATOM     32  C   UNL     1      28.517 -22.684 -16.373  0.00  0.00    -0.000 C 
ATOM     33  C   UNL     1      28.134 -24.022 -16.346  0.00  0.00    -0.000 C 
ENDBRANCH  23  24
ENDBRANCH   1  23
TORSDOF 7
ENDMDL
MODEL 3
REMARK VINA RESULT:     -11.7      1.454      6.469
REMARK  Name = 9823454
REMARK  7 active torsions:
REMARK  status: ('A' for Active; 'I' for Inactive)
REMARK    1  A    between atoms: C_1  and  C_4
REMARK    2  A    between atoms: C_1  and  N_8
REMARK    3  A    between atoms: C_1  and  C_23
REMARK    4  A    between atoms: N_3  and  O_6
REMARK    5  A    between atoms: N_8  and  S_10
REMARK    6  A    between atoms: S_10  and  C_13
REMARK    7  A    between atoms: C_23  and  C_24
REMARK                            x       y       z     vdW  Elec       q    Type
REMARK                         _______ _______ _______ _____ _____    ______ ____
ROOT
ATOM      1  C   UNL     1      35.350 -25.014 -14.457  0.00  0.00    +0.158 C 
ENDROOT
BRANCH   1   4
ATOM      2  O   UNL     1      37.001 -24.981 -12.692  0.00  0.00    -0.272 OA
ATOM      3  N   UNL     1      37.498 -26.077 -14.662  0.00  0.00    -0.196 N 
ATOM      4  C   UNL     1      36.692 -25.346 -13.826  0.00  0.00    +0.260 C 
ATOM      5  H   UNL     1      37.208 -26.349 -15.564  0.00  0.00    +0.182 HD
BRANCH   3   6
ATOM      6  O   UNL     1      38.760 -26.415 -14.154  0.00  0.00    -0.295 OA
ATOM      7  H   UNL     1      39.261 -26.899 -14.829  0.00  0.00    +0.241 HD
ENDBRANCH   3   6
ENDBRANCH   1   4
BRANCH   1   8
ATOM      8  N   UNL     1      35.668 -24.305 -15.720  0.00  0.00    -0.172 NA
ATOM      9  H   UNL     1      36.294 -24.911 -16.249  0.00  0.00    +0.149 HD
BRANCH   8  10
ATOM     10  S   UNL     1      36.396 -22.772 -15.668  0.00  0.00    +0.061 S 
ATOM     11  O   UNL     1      37.836 -22.917 -15.780  0.00  0.00    -0.153 OA
ATOM     12  O   UNL     1      35.822 -22.019 -14.568  0.00  0.00    -0.153 OA
BRANCH  10  13
ATOM     13  C   UNL     1      35.805 -22.036 -17.161  0.00  0.00    +0.122 C 
ATOM     14  C   UNL     1      36.633 -21.180 -17.867  0.00  0.00    +0.020 C 
ATOM     15  C   UNL     1      36.177 -20.586 -19.055  0.00  0.00    +0.001 C 
ATOM     16  C   UNL     1      34.527 -22.328 -17.596  0.00  0.00    +0.020 C 
ATOM     17  C   UNL     1      34.871 -20.874 -19.516  0.00  0.00    +0.000 C 
ATOM     18  C   UNL     1      34.059 -21.747 -18.776  0.00  0.00    +0.001 C 
ATOM     19  C   UNL     1      36.990 -19.713 -19.796  0.00  0.00    +0.000 C 
ATOM     20  C   UNL     1      34.415 -20.280 -20.704  0.00  0.00    +0.000 C 
ATOM     21  C   UNL     1      36.521 -19.131 -20.975  0.00  0.00    +0.000 C 
ATOM     22  C   UNL     1      35.237 -19.415 -21.428  0.00  0.00    +0.000 C 
ENDBRANCH  10  13
ENDBRANCH   8  10
ENDBRANCH   1   8
BRANCH   1  23
ATOM     23  C   UNL     1      34.515 -24.101 -13.543  0.00  0.00    +0.053 C 
BRANCH  23  24
ATOM     24  C   UNL     1      33.048 -24.185 -13.804  0.00  0.00    -0.020 C 
ATOM     25  C   UNL     1      32.468 -23.389 -14.793  0.00  0.00    -0.004 C 
ATOM     26  C   UNL     1      31.089 -23.456 -15.050  0.00  0.00    -0.000 C 
ATOM     27  C   UNL     1      32.259 -25.057 -13.061  0.00  0.00    -0.004 C 
ATOM     28  C   UNL     1      30.287 -24.344 -14.293  0.00  0.00    -0.000 C 
ATOM     29  C   UNL     1      30.888 -25.137 -13.303  0.00  0.00    -0.000 C 
ATOM     30  C   UNL     1      30.490 -22.662 -16.040  0.00  0.00    -0.000 C 
ATOM     31  C   UNL     1      28.908 -24.411 -14.550  0.00  0.00    -0.000 C 
ATOM     32  C   UNL     1      29.118 -22.742 -16.283  0.00  0.00    -0.000 C 
ATOM     33  C   UNL     1      28.329 -23.614 -15.538  0.00  0.00    -0.000 C 
ENDBRANCH  23  24
ENDBRANCH   1  23
TORSDOF 7
ENDMDL
MODEL 4
REMARK VINA RESULT:     -11.6      1.959      7.332
REMARK  Name = 9823454
REMARK  7 active torsions:
REMARK  status: ('A' for Active; 'I' for Inactive)
REMARK    1  A    between atoms: C_1  and  C_4
REMARK    2  A    between atoms: C_1  and  N_8
REMARK    3  A    between atoms: C_1  and  C_23
REMARK    4  A    between atoms: N_3  and  O_6
REMARK    5  A    between atoms: N_8  and  S_10
REMARK    6  A    between atoms: S_10  and  C_13
REMARK    7  A    between atoms: C_23  and  C_24
REMARK                            x       y       z     vdW  Elec       q    Type
REMARK                         _______ _______ _______ _____ _____    ______ ____
ROOT
ATOM      1  C   UNL     1      35.007 -23.478 -15.792  0.00  0.00    +0.158 C 
ENDROOT
BRANCH   1   4
ATOM      2  O   UNL     1      36.683 -24.901 -14.788  0.00  0.00    -0.272 OA
ATOM      3  N   UNL     1      37.344 -22.909 -15.751  0.00  0.00    -0.196 N 
ATOM      4  C   UNL     1      36.421 -23.858 -15.385  0.00  0.00    +0.260 C 
ATOM      5  H   UNL     1      37.089 -22.087 -16.229  0.00  0.00    +0.182 HD
BRANCH   3   6
ATOM      6  O   UNL     1      38.674 -23.183 -15.401  0.00  0.00    -0.295 OA
ATOM      7  H   UNL     1      39.253 -22.988 -16.155  0.00  0.00    +0.241 HD
ENDBRANCH   3   6
ENDBRANCH   1   4
BRANCH   1   8
ATOM      8  N   UNL     1      35.158 -22.422 -16.821  0.00  0.00    -0.172 NA
ATOM      9  H   UNL     1      35.002 -21.529 -16.354  0.00  0.00    +0.149 HD
BRANCH   8  10
ATOM     10  S   UNL     1      34.165 -22.436 -18.199  0.00  0.00    +0.061 S 
ATOM     11  O   UNL     1      32.841 -21.962 -17.845  0.00  0.00    -0.153 OA
ATOM     12  O   UNL     1      34.327 -23.709 -18.878  0.00  0.00    -0.153 OA
BRANCH  10  13
ATOM     13  C   UNL     1      34.931 -21.210 -19.214  0.00  0.00    +0.122 C 
ATOM     14  C   UNL     1      34.192 -20.602 -20.214  0.00  0.00    +0.020 C 
ATOM     15  C   UNL     1      34.786 -19.625 -21.030  0.00  0.00    +0.001 C 
ATOM     16  C   UNL     1      36.254 -20.879 -18.990  0.00  0.00    +0.020 C 
ATOM     17  C   UNL     1      36.141 -19.274 -20.814  0.00  0.00    +0.000 C 
ATOM     18  C   UNL     1      36.860 -19.910 -19.791  0.00  0.00    +0.001 C 
ATOM     19  C   UNL     1      34.066 -18.989 -22.054  0.00  0.00    +0.000 C 
ATOM     20  C   UNL     1      36.735 -18.298 -21.631  0.00  0.00    +0.000 C 
ATOM     21  C   UNL     1      34.673 -18.020 -22.855  0.00  0.00    +0.000 C 
ATOM     22  C   UNL     1      36.004 -17.676 -22.643  0.00  0.00    +0.000 C 
ENDBRANCH  10  13
ENDBRANCH   8  10
ENDBRANCH   1   8
BRANCH   1  23
ATOM     23  C   UNL     1      34.213 -22.928 -14.595  0.00  0.00    +0.053 C 
BRANCH  23  24
ATOM     24  C   UNL     1      32.822 -23.462 -14.512  0.00  0.00    -0.020 C 
ATOM     25  C   UNL     1      31.820 -22.928 -15.323  0.00  0.00    -0.004 C 
ATOM     26  C   UNL     1      30.506 -23.420 -15.257  0.00  0.00    -0.000 C 
ATOM     27  C   UNL     1      32.525 -24.493 -13.626  0.00  0.00    -0.004 C 
ATOM     28  C   UNL     1      30.205 -24.468 -14.355  0.00  0.00    -0.000 C 
ATOM     29  C   UNL     1      31.226 -24.994 -13.548  0.00  0.00    -0.000 C 
ATOM     30  C   UNL     1      29.486 -22.893 -16.065  0.00  0.00    -0.000 C 
ATOM     31  C   UNL     1      28.891 -24.960 -14.289  0.00  0.00    -0.000 C 
ATOM     32  C   UNL     1      28.185 -23.394 -15.986  0.00  0.00    -0.000 C 
ATOM     33  C   UNL     1      27.889 -24.424 -15.100  0.00  0.00    -0.000 C 
ENDBRANCH  23  24
ENDBRANCH   1  23
TORSDOF 7
ENDMDL
MODEL 5
REMARK VINA RESULT:     -11.6      8.390     11.490
REMARK  Name = 9823454
REMARK  7 active torsions:
REMARK  status: ('A' for Active; 'I' for Inactive)
REMARK    1  A    between atoms: C_1  and  C_4
REMARK    2  A    between atoms: C_1  and  N_8
REMARK    3  A    between atoms: C_1  and  C_23
REMARK    4  A    between atoms: N_3  and  O_6
REMARK    5  A    between atoms: N_8  and  S_10
REMARK    6  A    between atoms: S_10  and  C_13
REMARK    7  A    between atoms: C_23  and  C_24
REMARK                            x       y       z     vdW  Elec       q    Type
REMARK                         _______ _______ _______ _____ _____    ______ ____
ROOT
ATOM      1  C   UNL     1      34.775 -16.221 -22.934  0.00  0.00    +0.158 C 
ENDROOT
BRANCH   1   4
ATOM      2  O   UNL     1      35.004 -16.391 -25.334  0.00  0.00    -0.272 OA
ATOM      3  N   UNL     1      33.238 -17.464 -24.305  0.00  0.00    -0.196 N 
ATOM      4  C   UNL     1      34.372 -16.691 -24.322  0.00  0.00    +0.260 C 
ATOM      5  H   UNL     1      32.764 -17.680 -23.470  0.00  0.00    +0.182 HD
BRANCH   3   6
ATOM      6  O   UNL     1      32.796 -17.929 -25.552  0.00  0.00    -0.295 OA
ATOM      7  H   UNL     1      33.528 -18.369 -26.011  0.00  0.00    +0.241 HD
ENDBRANCH   3   6
ENDBRANCH   1   4
BRANCH   1   8
ATOM      8  N   UNL     1      34.948 -14.753 -23.045  0.00  0.00    -0.172 NA
ATOM      9  H   UNL     1      35.068 -14.397 -22.097  0.00  0.00    +0.149 HD
BRANCH   8  10
ATOM     10  S   UNL     1      33.737 -13.812 -23.773  0.00  0.00    +0.061 S 
ATOM     11  O   UNL     1      32.672 -14.677 -24.246  0.00  0.00    -0.153 OA
ATOM     12  O   UNL     1      34.362 -12.864 -24.676  0.00  0.00    -0.153 OA
BRANCH  10  13
ATOM     13  C   UNL     1      33.119 -12.887 -22.401  0.00  0.00    +0.122 C 
ATOM     14  C   UNL     1      32.890 -11.529 -22.548  0.00  0.00    +0.020 C 
ATOM     15  C   UNL     1      32.399 -10.779 -21.467  0.00  0.00    +0.001 C 
ATOM     16  C   UNL     1      32.875 -13.534 -21.205  0.00  0.00    +0.020 C 
ATOM     17  C   UNL     1      32.144 -11.428 -20.235  0.00  0.00    +0.000 C 
ATOM     18  C   UNL     1      32.387 -12.805 -20.120  0.00  0.00    +0.001 C 
ATOM     19  C   UNL     1      32.156  -9.401 -21.581  0.00  0.00    +0.000 C 
ATOM     20  C   UNL     1      31.655 -10.678 -19.153  0.00  0.00    +0.000 C 
ATOM     21  C   UNL     1      31.669  -8.671 -20.496  0.00  0.00    +0.000 C 
ATOM     22  C   UNL     1      31.419  -9.309 -19.285  0.00  0.00    +0.000 C 
ENDBRANCH  10  13
ENDBRANCH   8  10
ENDBRANCH   1   8
BRANCH   1  23
ATOM     23  C   UNL     1      36.096 -16.869 -22.488  0.00  0.00    +0.053 C 
BRANCH  23  24
ATOM     24  C   UNL     1      35.906 -18.039 -21.583  0.00  0.00    -0.020 C 
ATOM     25  C   UNL     1      34.624 -18.537 -21.345  0.00  0.00    -0.004 C 
ATOM     26  C   UNL     1      34.428 -19.638 -20.495  0.00  0.00    -0.000 C 
ATOM     27  C   UNL     1      37.007 -18.635 -20.977  0.00  0.00    -0.004 C 
ATOM     28  C   UNL     1      35.549 -20.243 -19.879  0.00  0.00    -0.000 C 
ATOM     29  C   UNL     1      36.832 -19.730 -20.130  0.00  0.00    -0.000 C 
ATOM     30  C   UNL     1      33.145 -20.150 -20.244  0.00  0.00    -0.000 C 
ATOM     31  C   UNL     1      35.354 -21.344 -19.029  0.00  0.00    -0.000 C 
ATOM     32  C   UNL     1      32.970 -21.245 -19.397  0.00  0.00    -0.000 C 
ATOM     33  C   UNL     1      34.071 -21.840 -18.790  0.00  0.00    -0.000 C 
ENDBRANCH  23  24
ENDBRANCH   1  23
TORSDOF 7
ENDMDL
MODEL 6
REMARK VINA RESULT:     -11.4      8.036     11.417
REMARK  Name = 9823454
REMARK  7 active torsions:
REMARK  status: ('A' for Active; 'I' for Inactive)
REMARK    1  A    between atoms: C_1  and  C_4
REMARK    2  A    between atoms: C_1  and  N_8
REMARK    3  A    between atoms: C_1  and  C_23
REMARK    4  A    between atoms: N_3  and  O_6
REMARK    5  A    between atoms: N_8  and  S_10
REMARK    6  A    between atoms: S_10  and  C_13
REMARK    7  A    between atoms: C_23  and  C_24
REMARK                            x       y       z     vdW  Elec       q    Type
REMARK                         _______ _______ _______ _____ _____    ______ ____
ROOT
ATOM      1  C   UNL     1      34.529 -16.435 -22.821  0.00  0.00    +0.158 C 
ENDROOT
BRANCH   1   4
ATOM      2  O   UNL     1      34.137 -17.600 -24.902  0.00  0.00    -0.272 OA
ATOM      3  N   UNL     1      34.067 -15.293 -24.887  0.00  0.00    -0.196 N 
ATOM      4  C   UNL     1      34.222 -16.527 -24.307  0.00  0.00    +0.260 C 
ATOM      5  H   UNL     1      34.144 -14.458 -24.371  0.00  0.00    +0.182 HD
BRANCH   3   6
ATOM      6  O   UNL     1      33.792 -15.293 -26.262  0.00  0.00    -0.295 OA
ATOM      7  H   UNL     1      34.389 -15.912 -26.711  0.00  0.00    +0.241 HD
ENDBRANCH   3   6
ENDBRANCH   1   4
BRANCH   1   8
ATOM      8  N   UNL     1      34.524 -14.987 -22.502  0.00  0.00    -0.172 NA
ATOM      9  H   UNL     1      35.407 -14.607 -22.841  0.00  0.00    +0.149 HD
BRANCH   8  10
ATOM     10  S   UNL     1      34.355 -14.477 -20.891  0.00  0.00    +0.061 S 
ATOM     11  O   UNL     1      35.648 -14.070 -20.375  0.00  0.00    -0.153 OA
ATOM     12  O   UNL     1      33.557 -15.453 -20.174  0.00  0.00    -0.153 OA
BRANCH  10  13
ATOM     13  C   UNL     1      33.360 -13.028 -21.070  0.00  0.00    +0.122 C 
ATOM     14  C   UNL     1      33.667 -12.115 -22.064  0.00  0.00    +0.020 C 
ATOM     15  C   UNL     1      32.886 -10.958 -22.220  0.00  0.00    +0.001 C 
ATOM     16  C   UNL     1      32.293 -12.833 -20.215  0.00  0.00    +0.020 C 
ATOM     17  C   UNL     1      31.789 -10.742 -21.352  0.00  0.00    +0.000 C 
ATOM     18  C   UNL     1      31.506 -11.689 -20.356  0.00  0.00    +0.001 C 
ATOM     19  C   UNL     1      33.171 -10.011 -23.217  0.00  0.00    +0.000 C 
ATOM     20  C   UNL     1      31.009  -9.585 -21.506  0.00  0.00    +0.000 C 
ATOM     21  C   UNL     1      32.384  -8.866 -23.356  0.00  0.00    +0.000 C 
ATOM     22  C   UNL     1      31.306  -8.654 -22.503  0.00  0.00    +0.000 C 
ENDBRANCH  10  13
ENDBRANCH   8  10
ENDBRANCH   1   8
BRANCH   1  23
ATOM     23  C   UNL     1      35.908 -17.035 -22.499  0.00  0.00    +0.053 C 
BRANCH  23  24
ATOM     24  C   UNL     1      35.845 -18.189 -21.555  0.00  0.00    -0.020 C 
ATOM     25  C   UNL     1      34.615 -18.763 -21.235  0.00  0.00    -0.004 C 
ATOM     26  C   UNL     1      34.540 -19.850 -20.349  0.00  0.00    -0.000 C 
ATOM     27  C   UNL     1      37.015 -18.692 -20.995  0.00  0.00    -0.004 C 
ATOM     28  C   UNL     1      35.730 -20.361 -19.779  0.00  0.00    -0.000 C 
ATOM     29  C   UNL     1      36.959 -19.771 -20.113  0.00  0.00    -0.000 C 
ATOM     30  C   UNL     1      33.310 -20.439 -20.015  0.00  0.00    -0.000 C 
ATOM     31  C   UNL     1      35.655 -21.448 -18.893  0.00  0.00    -0.000 C 
ATOM     32  C   UNL     1      33.254 -21.519 -19.133  0.00  0.00    -0.000 C 
ATOM     33  C   UNL     1      34.424 -22.021 -18.573  0.00  0.00    -0.000 C 
ENDBRANCH  23  24
ENDBRANCH   1  23
TORSDOF 7
ENDMDL
MODEL 7
REMARK VINA RESULT:     -10.9     10.867     14.161
REMARK  Name = 9823454
REMARK  7 active torsions:
REMARK  status: ('A' for Active; 'I' for Inactive)
REMARK    1  A    between atoms: C_1  and  C_4
REMARK    2  A    between atoms: C_1  and  N_8
REMARK    3  A    between atoms: C_1  and  C_23
REMARK    4  A    between atoms: N_3  and  O_6
REMARK    5  A    between atoms: N_8  and  S_10
REMARK    6  A    between atoms: S_10  and  C_13
REMARK    7  A    between atoms: C_23  and  C_24
REMARK                            x       y       z     vdW  Elec       q    Type
REMARK                         _______ _______ _______ _____ _____    ______ ____
ROOT
ATOM      1  C   UNL     1      33.134 -12.660 -22.560  0.00  0.00    +0.158 C 
ENDROOT
BRANCH   1   4
ATOM      2  O   UNL     1      33.541 -11.992 -24.847  0.00  0.00    -0.272 OA
ATOM      3  N   UNL     1      32.557 -14.041 -24.445  0.00  0.00    -0.196 N 
ATOM      4  C   UNL     1      33.112 -12.843 -24.069  0.00  0.00    +0.260 C 
ATOM      5  H   UNL     1      32.226 -14.694 -23.785  0.00  0.00    +0.182 HD
BRANCH   3   6
ATOM      6  O   UNL     1      32.491 -14.280 -25.824  0.00  0.00    -0.295 OA
ATOM      7  H   UNL     1      32.722 -15.204 -26.004  0.00  0.00    +0.241 HD
ENDBRANCH   3   6
ENDBRANCH   1   4
BRANCH   1   8
ATOM      8  N   UNL     1      32.810 -11.233 -22.327  0.00  0.00    -0.172 NA
ATOM      9  H   UNL     1      33.697 -10.746 -22.201  0.00  0.00    +0.149 HD
BRANCH   8  10
ATOM     10  S   UNL     1      31.820 -10.794 -21.019  0.00  0.00    +0.061 S 
ATOM     11  O   UNL     1      32.413 -11.268 -19.783  0.00  0.00    -0.153 OA
ATOM     12  O   UNL     1      30.445 -11.126 -21.343  0.00  0.00    -0.153 OA
BRANCH  10  13
ATOM     13  C   UNL     1      31.944  -9.032 -21.043  0.00  0.00    +0.122 C 
ATOM     14  C   UNL     1      31.358  -8.326 -22.081  0.00  0.00    +0.020 C 
ATOM     15  C   UNL     1      31.448  -6.925 -22.114  0.00  0.00    +0.001 C 
ATOM     16  C   UNL     1      32.622  -8.390 -20.026  0.00  0.00    +0.020 C 
ATOM     17  C   UNL     1      32.141  -6.251 -21.080  0.00  0.00    +0.000 C 
ATOM     18  C   UNL     1      32.721  -6.998 -20.043  0.00  0.00    +0.001 C 
ATOM     19  C   UNL     1      30.867  -6.179 -23.152  0.00  0.00    +0.000 C 
ATOM     20  C   UNL     1      32.232  -4.850 -21.114  0.00  0.00    +0.000 C 
ATOM     21  C   UNL     1      30.967  -4.787 -23.170  0.00  0.00    +0.000 C 
ATOM     22  C   UNL     1      31.647  -4.125 -22.153  0.00  0.00    +0.000 C 
ENDBRANCH  10  13
ENDBRANCH   8  10
ENDBRANCH   1   8
BRANCH   1  23
ATOM     23  C   UNL     1      34.522 -12.982 -21.981  0.00  0.00    +0.053 C 
BRANCH  23  24
ATOM     24  C   UNL     1      34.694 -14.419 -21.620  0.00  0.00    -0.020 C 
ATOM     25  C   UNL     1      34.781 -15.385 -22.623  0.00  0.00    -0.004 C 
ATOM     26  C   UNL     1      34.944 -16.742 -22.298  0.00  0.00    -0.000 C 
ATOM     27  C   UNL     1      34.769 -14.795 -20.282  0.00  0.00    -0.004 C 
ATOM     28  C   UNL     1      35.019 -17.124 -20.937  0.00  0.00    -0.000 C 
ATOM     29  C   UNL     1      34.930 -16.138 -19.942  0.00  0.00    -0.000 C 
ATOM     30  C   UNL     1      35.032 -17.727 -23.295  0.00  0.00    -0.000 C 
ATOM     31  C   UNL     1      35.182 -18.480 -20.613  0.00  0.00    -0.000 C 
ATOM     32  C   UNL     1      35.194 -19.071 -22.954  0.00  0.00    -0.000 C 
ATOM     33  C   UNL     1      35.267 -19.446 -21.617  0.00  0.00    -0.000 C 
ENDBRANCH  23  24
ENDBRANCH   1  23
TORSDOF 7
ENDMDL
MODEL 8
REMARK VINA RESULT:     -10.6      8.997     11.571
REMARK  Name = 9823454
REMARK  7 active torsions:
REMARK  status: ('A' for Active; 'I' for Inactive)
REMARK    1  A    between atoms: C_1  and  C_4
REMARK    2  A    between atoms: C_1  and  N_8
REMARK    3  A    between atoms: C_1  and  C_23
REMARK    4  A    between atoms: N_3  and  O_6
REMARK    5  A    between atoms: N_8  and  S_10
REMARK    6  A    between atoms: S_10  and  C_13
REMARK    7  A    between atoms: C_23  and  C_24
REMARK                            x       y       z     vdW  Elec       q    Type
REMARK                         _______ _______ _______ _____ _____    ______ ____
ROOT
ATOM      1  C   UNL     1      33.570 -13.742 -21.739  0.00  0.00    +0.158 C 
ENDROOT
BRANCH   1   4
ATOM      2  O   UNL     1      34.458 -12.688 -23.724  0.00  0.00    -0.272 OA
ATOM      3  N   UNL     1      32.623 -14.074 -23.926  0.00  0.00    -0.196 N 
ATOM      4  C   UNL     1      33.618 -13.436 -23.227  0.00  0.00    +0.260 C 
ATOM      5  H   UNL     1      31.970 -14.666 -23.485  0.00  0.00    +0.182 HD
BRANCH   3   6
ATOM      6  O   UNL     1      32.594 -13.833 -25.307  0.00  0.00    -0.295 OA
ATOM      7  H   UNL     1      32.956 -12.952 -25.488  0.00  0.00    +0.241 HD
ENDBRANCH   3   6
ENDBRANCH   1   4
BRANCH   1   8
ATOM      8  N   UNL     1      33.751 -15.210 -21.628  0.00  0.00    -0.172 NA
ATOM      9  H   UNL     1      34.096 -15.394 -20.687  0.00  0.00    +0.149 HD
BRANCH   8  10
ATOM     10  S   UNL     1      34.794 -16.015 -22.700  0.00  0.00    +0.061 S 
ATOM     11  O   UNL     1      35.999 -15.229 -22.884  0.00  0.00    -0.153 OA
ATOM     12  O   UNL     1      34.029 -16.459 -23.850  0.00  0.00    -0.153 OA
BRANCH  10  13
ATOM     13  C   UNL     1      35.221 -17.460 -21.777  0.00  0.00    +0.122 C 
ATOM     14  C   UNL     1      34.212 -18.266 -21.277  0.00  0.00    +0.020 C 
ATOM     15  C   UNL     1      34.534 -19.417 -20.541  0.00  0.00    +0.001 C 
ATOM     16  C   UNL     1      36.553 -17.759 -21.570  0.00  0.00    +0.020 C 
ATOM     17  C   UNL     1      35.895 -19.738 -20.319  0.00  0.00    +0.000 C 
ATOM     18  C   UNL     1      36.892 -18.899 -20.841  0.00  0.00    +0.001 C 
ATOM     19  C   UNL     1      33.536 -20.257 -20.019  0.00  0.00    +0.000 C 
ATOM     20  C   UNL     1      36.217 -20.889 -19.582  0.00  0.00    +0.000 C 
ATOM     21  C   UNL     1      33.875 -21.397 -19.289  0.00  0.00    +0.000 C 
ATOM     22  C   UNL     1      35.212 -21.712 -19.072  0.00  0.00    +0.000 C 
ENDBRANCH  10  13
ENDBRANCH   8  10
ENDBRANCH   1   8
BRANCH   1  23
ATOM     23  C   UNL     1      32.217 -13.338 -21.131  0.00  0.00    +0.053 C 
BRANCH  23  24
ATOM     24  C   UNL     1      32.144 -11.896 -20.756  0.00  0.00    -0.020 C 
ATOM     25  C   UNL     1      32.116 -10.917 -21.750  0.00  0.00    -0.004 C 
ATOM     26  C   UNL     1      32.047  -9.555 -21.413  0.00  0.00    -0.000 C 
ATOM     27  C   UNL     1      32.103 -11.527 -19.415  0.00  0.00    -0.004 C 
ATOM     28  C   UNL     1      32.006  -9.181 -20.049  0.00  0.00    -0.000 C 
ATOM     29  C   UNL     1      32.034 -10.180 -19.062  0.00  0.00    -0.000 C 
ATOM     30  C   UNL     1      32.019  -8.557 -22.401  0.00  0.00    -0.000 C 
ATOM     31  C   UNL     1      31.937  -7.819 -19.712  0.00  0.00    -0.000 C 
ATOM     32  C   UNL     1      31.950  -7.208 -22.048  0.00  0.00    -0.000 C 
ATOM     33  C   UNL     1      31.911  -6.841 -20.706  0.00  0.00    -0.000 C 
ENDBRANCH  23  24
ENDBRANCH   1  23
TORSDOF 7
ENDMDL
MODEL 9
REMARK VINA RESULT:     -10.5     11.230     14.230
REMARK  Name = 9823454
REMARK  7 active torsions:
REMARK  status: ('A' for Active; 'I' for Inactive)
REMARK    1  A    between atoms: C_1  and  C_4
REMARK    2  A    between atoms: C_1  and  N_8
REMARK    3  A    between atoms: C_1  and  C_23
REMARK    4  A    between atoms: N_3  and  O_6
REMARK    5  A    between atoms: N_8  and  S_10
REMARK    6  A    between atoms: S_10  and  C_13
REMARK    7  A    between atoms: C_23  and  C_24
REMARK                            x       y       z     vdW  Elec       q    Type
REMARK                         _______ _______ _______ _____ _____    ______ ____
ROOT
ATOM      1  C   UNL     1      34.344 -10.645 -23.693  0.00  0.00    +0.158 C 
ENDROOT
BRANCH   1   4
ATOM      2  O   UNL     1      35.367 -10.385 -25.867  0.00  0.00    -0.272 OA
ATOM      3  N   UNL     1      33.767 -12.025 -25.578  0.00  0.00    -0.196 N 
ATOM      4  C   UNL     1      34.564 -10.989 -25.157  0.00  0.00    +0.260 C 
ATOM      5  H   UNL     1      33.138 -12.480 -24.973  0.00  0.00    +0.182 HD
BRANCH   3   6
ATOM      6  O   UNL     1      33.905 -12.396 -26.923  0.00  0.00    -0.295 OA
ATOM      7  H   UNL     1      34.250 -11.645 -27.431  0.00  0.00    +0.241 HD
ENDBRANCH   3   6
ENDBRANCH   1   4
BRANCH   1   8
ATOM      8  N   UNL     1      34.563 -11.908 -22.949  0.00  0.00    -0.172 NA
ATOM      9  H   UNL     1      35.061 -12.538 -23.578  0.00  0.00    +0.149 HD
BRANCH   8  10
ATOM     10  S   UNL     1      33.235 -12.772 -22.339  0.00  0.00    +0.061 S 
ATOM     11  O   UNL     1      32.348 -13.129 -23.431  0.00  0.00    -0.153 OA
ATOM     12  O   UNL     1      32.717 -12.073 -21.178  0.00  0.00    -0.153 OA
BRANCH  10  13
ATOM     13  C   UNL     1      34.000 -14.252 -21.752  0.00  0.00    +0.122 C 
ATOM     14  C   UNL     1      34.371 -15.228 -22.661  0.00  0.00    +0.020 C 
ATOM     15  C   UNL     1      34.980 -16.410 -22.210  0.00  0.00    +0.001 C 
ATOM     16  C   UNL     1      34.215 -14.408 -20.396  0.00  0.00    +0.020 C 
ATOM     17  C   UNL     1      35.207 -16.587 -20.824  0.00  0.00    +0.000 C 
ATOM     18  C   UNL     1      34.819 -15.577 -19.931  0.00  0.00    +0.001 C 
ATOM     19  C   UNL     1      35.369 -17.421 -23.104  0.00  0.00    +0.000 C 
ATOM     20  C   UNL     1      35.815 -17.770 -20.373  0.00  0.00    +0.000 C 
ATOM     21  C   UNL     1      35.972 -18.590 -22.639  0.00  0.00    +0.000 C 
ATOM     22  C   UNL     1      36.195 -18.764 -21.277  0.00  0.00    +0.000 C 
ENDBRANCH  10  13
ENDBRANCH   8  10
ENDBRANCH   1   8
BRANCH   1  23
ATOM     23  C   UNL     1      32.912 -10.139 -23.450  0.00  0.00    +0.053 C 
BRANCH  23  24
ATOM     24  C   UNL     1      32.859  -8.747 -22.918  0.00  0.00    -0.020 C 
ATOM     25  C   UNL     1      31.633  -8.089 -22.803  0.00  0.00    -0.004 C 
ATOM     26  C   UNL     1      31.566  -6.778 -22.304  0.00  0.00    -0.000 C 
ATOM     27  C   UNL     1      34.032  -8.103 -22.536  0.00  0.00    -0.004 C 
ATOM     28  C   UNL     1      32.760  -6.125 -21.916  0.00  0.00    -0.000 C 
ATOM     29  C   UNL     1      33.984  -6.801 -22.038  0.00  0.00    -0.000 C 
ATOM     30  C   UNL     1      30.342  -6.103 -22.183  0.00  0.00    -0.000 C 
ATOM     31  C   UNL     1      32.694  -4.814 -21.417  0.00  0.00    -0.000 C 
ATOM     32  C   UNL     1      30.294  -4.800 -21.684  0.00  0.00    -0.000 C 
ATOM     33  C   UNL     1      31.468  -4.157 -21.304  0.00  0.00    -0.000 C 
ENDBRANCH  23  24
ENDBRANCH   1  23
TORSDOF 7
ENDMDL
