MODEL 1
REMARK VINA RESULT:     -11.4      0.000      0.000
REMARK  Name = 11963557
REMARK  4 active torsions:
REMARK  status: ('A' for Active; 'I' for Inactive)
REMARK    1  A    between atoms: C_11  and  C_19
REMARK    2  A    between atoms: C_13  and  C_30
REMARK    3  A    between atoms: C_16  and  N_22
REMARK    4  A    between atoms: C_30  and  C_32
REMARK                            x       y       z     vdW  Elec       q    Type
REMARK                         _______ _______ _______ _____ _____    ______ ____
ROOT
ATOM      1  O   UNL     1      34.977 -18.932 -23.961  0.00  0.00    -0.270 OA
ATOM      2  O   UNL     1      32.970 -11.164 -21.446  0.00  0.00    -0.274 OA
ATOM      3  N   UNL     1      33.364 -12.538 -23.196  0.00  0.00    -0.233 N 
ATOM      4  N   UNL     1      34.418 -17.050 -22.674  0.00  0.00    -0.264 N 
ATOM      5  N   UNL     1      34.071 -15.127 -25.586  0.00  0.00    -0.273 N 
ATOM      6  N   UNL     1      34.337 -16.338 -24.988  0.00  0.00    -0.157 NA
ATOM      7  C   UNL     1      33.887 -14.707 -23.344  0.00  0.00    +0.067 A 
ATOM      8  C   UNL     1      33.819 -14.216 -24.626  0.00  0.00    +0.093 A 
ATOM      9  C   UNL     1      34.223 -16.073 -23.642  0.00  0.00    +0.157 A 
ATOM     10  C   UNL     1      33.618 -13.723 -22.446  0.00  0.00    +0.076 C 
ATOM     11  C   UNL     1      34.775 -18.393 -22.861  0.00  0.00    +0.251 C 
ATOM     12  C   UNL     1      33.505 -12.915 -24.546  0.00  0.00    +0.091 C 
ATOM     13  C   UNL     1      33.046 -11.289 -22.659  0.00  0.00    +0.238 C 
ATOM     14  H   UNL     1      34.291 -16.764 -21.741  0.00  0.00    +0.157 HD
ATOM     15  H   UNL     1      34.066 -14.955 -26.555  0.00  0.00    +0.189 HD
ENDROOT
BRANCH  11  19
ATOM     16  C   UNL     1      35.249 -20.703 -19.299  0.00  0.00    +0.048 C 
ATOM     17  C   UNL     1      36.345 -20.036 -19.883  0.00  0.00    +0.015 C 
ATOM     18  C   UNL     1      33.992 -20.586 -19.926  0.00  0.00    +0.015 C 
ATOM     19  C   UNL     1      34.936 -19.179 -21.649  0.00  0.00    +0.054 C 
ATOM     20  C   UNL     1      36.190 -19.282 -21.046  0.00  0.00    +0.006 C 
ATOM     21  C   UNL     1      33.838 -19.831 -21.089  0.00  0.00    +0.006 C 
BRANCH  16  22
ATOM     22  N   UNL     1      35.404 -21.460 -18.133  0.00  0.00    -0.312 N 
ATOM     23  N   UNL     1      35.769 -23.209 -15.904  0.00  0.00    +0.388 N 
ATOM     24  C   UNL     1      34.436 -22.533 -17.872  0.00  0.00    +0.068 C 
ATOM     25  C   UNL     1      36.743 -21.664 -17.570  0.00  0.00    +0.068 C 
ATOM     26  C   UNL     1      34.419 -22.891 -16.385  0.00  0.00    -0.056 C 
ATOM     27  C   UNL     1      36.652 -22.051 -16.092  0.00  0.00    -0.056 C 
ATOM     28  C   UNL     1      35.733 -23.603 -14.495  0.00  0.00    -0.101 C 
ATOM     29  H   UNL     1      36.135 -23.993 -16.444  0.00  0.00    -0.080 HD
ENDBRANCH  16  22
ENDBRANCH  11  19
BRANCH  13  30
ATOM     30  C   UNL     1      32.824 -10.194 -23.657  0.00  0.00    +0.119 C 
BRANCH  30  32
ATOM     31  S   UNL     1      31.323  -8.214 -22.454  0.00  0.00    -0.090 S 
ATOM     32  C   UNL     1      32.815  -8.884 -22.928  0.00  0.00    +0.016 C 
ATOM     33  C   UNL     1      33.888  -8.116 -22.575  0.00  0.00    +0.003 C 
ATOM     34  C   UNL     1      33.479  -6.934 -21.890  0.00  0.00    +0.007 C 
ATOM     35  C   UNL     1      32.109  -6.863 -21.756  0.00  0.00    +0.035 C 
ENDBRANCH  30  32
ENDBRANCH  13  30
TORSDOF 4
ENDMDL
MODEL 2
REMARK VINA RESULT:     -11.1      1.461      2.317
REMARK  Name = 11963557
REMARK  4 active torsions:
REMARK  status: ('A' for Active; 'I' for Inactive)
REMARK    1  A    between atoms: C_11  and  C_19
REMARK    2  A    between atoms: C_13  and  C_30
REMARK    3  A    between atoms: C_16  and  N_22
REMARK    4  A    between atoms: C_30  and  C_32
REMARK                            x       y       z     vdW  Elec       q    Type
REMARK                         _______ _______ _______ _____ _____    ______ ____
ROOT
ATOM      1  O   UNL     1      34.760 -16.769 -25.258  0.00  0.00    -0.270 OA
ATOM      2  O   UNL     1      32.598  -9.522 -21.583  0.00  0.00    -0.274 OA
ATOM      3  N   UNL     1      33.041 -10.596 -23.521  0.00  0.00    -0.233 N 
ATOM      4  N   UNL     1      34.152 -15.122 -23.700  0.00  0.00    -0.264 N 
ATOM      5  N   UNL     1      33.824 -12.766 -26.277  0.00  0.00    -0.273 N 
ATOM      6  N   UNL     1      34.098 -14.053 -25.874  0.00  0.00    -0.157 NA
ATOM      7  C   UNL     1      33.597 -12.709 -24.001  0.00  0.00    +0.067 A 
ATOM      8  C   UNL     1      33.543 -12.021 -25.190  0.00  0.00    +0.093 A 
ATOM      9  C   UNL     1      33.959 -14.006 -24.504  0.00  0.00    +0.157 A 
ATOM     10  C   UNL     1      33.300 -11.882 -22.964  0.00  0.00    +0.076 C 
ATOM     11  C   UNL     1      34.531 -16.413 -24.090  0.00  0.00    +0.251 C 
ATOM     12  C   UNL     1      33.210 -10.753 -24.911  0.00  0.00    +0.091 C 
ATOM     13  C   UNL     1      32.696  -9.452 -22.799  0.00  0.00    +0.238 C 
ATOM     14  H   UNL     1      34.005 -14.989 -22.736  0.00  0.00    +0.157 HD
ATOM     15  H   UNL     1      33.833 -12.442 -27.206  0.00  0.00    +0.189 HD
ENDROOT
BRANCH  11  19
ATOM     16  C   UNL     1      34.979 -19.254 -20.931  0.00  0.00    +0.048 C 
ATOM     17  C   UNL     1      35.425 -17.925 -20.781  0.00  0.00    +0.015 C 
ATOM     18  C   UNL     1      34.382 -19.618 -22.154  0.00  0.00    +0.015 C 
ATOM     19  C   UNL     1      34.684 -17.380 -23.015  0.00  0.00    +0.054 C 
ATOM     20  C   UNL     1      35.278 -16.998 -21.813  0.00  0.00    +0.006 C 
ATOM     21  C   UNL     1      34.237 -18.690 -23.186  0.00  0.00    +0.006 C 
BRANCH  16  22
ATOM     22  N   UNL     1      35.125 -20.184 -19.896  0.00  0.00    -0.312 N 
ATOM     23  N   UNL     1      35.429 -22.269 -17.968  0.00  0.00    +0.388 N 
ATOM     24  C   UNL     1      34.039 -21.149 -19.677  0.00  0.00    +0.068 C 
ATOM     25  C   UNL     1      36.465 -20.640 -19.512  0.00  0.00    +0.068 C 
ATOM     26  C   UNL     1      34.102 -21.712 -18.256  0.00  0.00    -0.056 C 
ATOM     27  C   UNL     1      36.449 -21.221 -18.096  0.00  0.00    -0.056 C 
ATOM     28  C   UNL     1      35.461 -22.854 -16.627  0.00  0.00    -0.101 C 
ATOM     29  H   UNL     1      35.629 -23.008 -18.641  0.00  0.00    -0.080 HD
ENDBRANCH  16  22
ENDBRANCH  11  19
BRANCH  13  30
ATOM     30  C   UNL     1      32.474  -8.216 -23.615  0.00  0.00    +0.119 C 
BRANCH  30  32
ATOM     31  S   UNL     1      33.381  -6.190 -21.974  0.00  0.00    -0.090 S 
ATOM     32  C   UNL     1      32.124  -7.093 -22.686  0.00  0.00    +0.016 C 
ATOM     33  C   UNL     1      30.880  -6.672 -22.312  0.00  0.00    +0.003 C 
ATOM     34  C   UNL     1      30.952  -5.571 -21.410  0.00  0.00    +0.007 C 
ATOM     35  C   UNL     1      32.253  -5.207 -21.142  0.00  0.00    +0.035 C 
ENDBRANCH  30  32
ENDBRANCH  13  30
TORSDOF 4
ENDMDL
MODEL 3
REMARK VINA RESULT:     -10.9      2.254      4.262
REMARK  Name = 11963557
REMARK  4 active torsions:
REMARK  status: ('A' for Active; 'I' for Inactive)
REMARK    1  A    between atoms: C_11  and  C_19
REMARK    2  A    between atoms: C_13  and  C_30
REMARK    3  A    between atoms: C_16  and  N_22
REMARK    4  A    between atoms: C_30  and  C_32
REMARK                            x       y       z     vdW  Elec       q    Type
REMARK                         _______ _______ _______ _____ _____    ______ ____
ROOT
ATOM      1  O   UNL     1      35.526 -22.149 -20.499  0.00  0.00    -0.270 OA
ATOM      2  O   UNL     1      34.714 -13.784 -20.249  0.00  0.00    -0.274 OA
ATOM      3  N   UNL     1      34.838 -15.630 -21.546  0.00  0.00    -0.233 N 
ATOM      4  N   UNL     1      35.287 -19.925 -19.787  0.00  0.00    -0.264 N 
ATOM      5  N   UNL     1      35.077 -18.853 -23.119  0.00  0.00    -0.273 N 
ATOM      6  N   UNL     1      35.201 -19.876 -22.208  0.00  0.00    -0.157 NA
ATOM      7  C   UNL     1      35.052 -17.808 -21.084  0.00  0.00    +0.067 A 
ATOM      8  C   UNL     1      34.995 -17.685 -22.452  0.00  0.00    +0.093 A 
ATOM      9  C   UNL     1      35.185 -19.236 -20.989  0.00  0.00    +0.157 A 
ATOM     10  C   UNL     1      34.961 -16.586 -20.496  0.00  0.00    +0.076 C 
ATOM     11  C   UNL     1      35.448 -21.304 -19.592  0.00  0.00    +0.251 C 
ATOM     12  C   UNL     1      34.866 -16.382 -22.737  0.00  0.00    +0.091 C 
ATOM     13  C   UNL     1      34.719 -14.249 -21.379  0.00  0.00    +0.238 C 
ATOM     14  H   UNL     1      35.241 -19.377 -18.971  0.00  0.00    +0.157 HD
ATOM     15  H   UNL     1      35.053 -18.956 -24.098  0.00  0.00    +0.189 HD
ENDROOT
BRANCH  11  19
ATOM     16  C   UNL     1      35.759 -22.586 -15.529  0.00  0.00    +0.048 C 
ATOM     17  C   UNL     1      34.593 -22.834 -16.282  0.00  0.00    +0.015 C 
ATOM     18  C   UNL     1      36.819 -21.902 -16.157  0.00  0.00    +0.015 C 
ATOM     19  C   UNL     1      35.553 -21.740 -18.210  0.00  0.00    +0.054 C 
ATOM     20  C   UNL     1      34.492 -22.415 -17.608  0.00  0.00    +0.006 C 
ATOM     21  C   UNL     1      36.717 -21.483 -17.484  0.00  0.00    +0.006 C 
BRANCH  16  22
ATOM     22  N   UNL     1      35.861 -23.006 -14.199  0.00  0.00    -0.312 N 
ATOM     23  N   UNL     1      36.117 -24.105 -11.574  0.00  0.00    +0.388 N 
ATOM     24  C   UNL     1      34.853 -23.946 -13.692  0.00  0.00    +0.068 C 
ATOM     25  C   UNL     1      37.179 -23.087 -13.561  0.00  0.00    +0.068 C 
ATOM     26  C   UNL     1      34.789 -23.892 -12.164  0.00  0.00    -0.056 C 
ATOM     27  C   UNL     1      37.041 -23.062 -12.037  0.00  0.00    -0.056 C 
ATOM     28  C   UNL     1      36.035 -24.106 -10.113  0.00  0.00    -0.101 C 
ATOM     29  H   UNL     1      36.469 -25.014 -11.873  0.00  0.00    -0.080 HD
ENDBRANCH  16  22
ENDBRANCH  11  19
BRANCH  13  30
ATOM     30  C   UNL     1      34.604 -13.453 -22.643  0.00  0.00    +0.119 C 
BRANCH  30  32
ATOM     31  S   UNL     1      33.891 -10.855 -23.246  0.00  0.00    -0.090 S 
ATOM     32  C   UNL     1      33.658 -12.315 -22.400  0.00  0.00    +0.016 C 
ATOM     33  C   UNL     1      32.586 -12.283 -21.554  0.00  0.00    +0.003 C 
ATOM     34  C   UNL     1      31.927 -11.020 -21.597  0.00  0.00    +0.007 C 
ATOM     35  C   UNL     1      32.533 -10.150 -22.477  0.00  0.00    +0.035 C 
ENDBRANCH  30  32
ENDBRANCH  13  30
TORSDOF 4
ENDMDL
MODEL 4
REMARK VINA RESULT:     -10.9      3.624     11.594
REMARK  Name = 11963557
REMARK  4 active torsions:
REMARK  status: ('A' for Active; 'I' for Inactive)
REMARK    1  A    between atoms: C_11  and  C_19
REMARK    2  A    between atoms: C_13  and  C_30
REMARK    3  A    between atoms: C_16  and  N_22
REMARK    4  A    between atoms: C_30  and  C_32
REMARK                            x       y       z     vdW  Elec       q    Type
REMARK                         _______ _______ _______ _____ _____    ______ ____
ROOT
ATOM      1  O   UNL     1      33.311 -12.901 -25.834  0.00  0.00    -0.270 OA
ATOM      2  O   UNL     1      36.069 -17.695 -19.500  0.00  0.00    -0.274 OA
ATOM      3  N   UNL     1      35.477 -17.604 -21.679  0.00  0.00    -0.233 N 
ATOM      4  N   UNL     1      34.085 -13.667 -23.755  0.00  0.00    -0.264 N 
ATOM      5  N   UNL     1      34.443 -16.906 -25.050  0.00  0.00    -0.273 N 
ATOM      6  N   UNL     1      34.109 -15.584 -25.236  0.00  0.00    -0.157 NA
ATOM      7  C   UNL     1      34.772 -15.943 -23.001  0.00  0.00    +0.067 A 
ATOM      8  C   UNL     1      34.816 -17.083 -23.767  0.00  0.00    +0.093 A 
ATOM      9  C   UNL     1      34.311 -15.015 -23.998  0.00  0.00    +0.157 A 
ATOM     10  C   UNL     1      35.165 -16.214 -21.728  0.00  0.00    +0.076 C 
ATOM     11  C   UNL     1      33.612 -12.695 -24.646  0.00  0.00    +0.251 C 
ATOM     12  C   UNL     1      35.239 -18.084 -22.982  0.00  0.00    +0.091 C 
ATOM     13  C   UNL     1      35.922 -18.298 -20.553  0.00  0.00    +0.238 C 
ATOM     14  H   UNL     1      34.282 -13.354 -22.842  0.00  0.00    +0.157 HD
ATOM     15  H   UNL     1      34.414 -17.607 -25.739  0.00  0.00    +0.189 HD
ENDROOT
BRANCH  11  19
ATOM     16  C   UNL     1      33.127  -8.767 -23.036  0.00  0.00    +0.048 C 
ATOM     17  C   UNL     1      34.076  -9.026 -24.046  0.00  0.00    +0.015 C 
ATOM     18  C   UNL     1      32.344  -9.844 -22.573  0.00  0.00    +0.015 C 
ATOM     19  C   UNL     1      33.447 -11.359 -24.098  0.00  0.00    +0.054 C 
ATOM     20  C   UNL     1      34.233 -10.309 -24.572  0.00  0.00    +0.006 C 
ATOM     21  C   UNL     1      32.503 -11.126 -23.099  0.00  0.00    +0.006 C 
BRANCH  16  22
ATOM     22  N   UNL     1      32.968  -7.482 -22.509  0.00  0.00    -0.312 N 
ATOM     23  N   UNL     1      32.889  -4.872 -21.349  0.00  0.00    +0.388 N 
ATOM     24  C   UNL     1      33.025  -7.322 -21.050  0.00  0.00    +0.068 C 
ATOM     25  C   UNL     1      33.394  -6.317 -23.291  0.00  0.00    +0.068 C 
ATOM     26  C   UNL     1      32.336  -6.023 -20.626  0.00  0.00    -0.056 C 
ATOM     27  C   UNL     1      32.694  -5.050 -22.794  0.00  0.00    -0.056 C 
ATOM     28  C   UNL     1      32.262  -3.631 -20.896  0.00  0.00    -0.101 C 
ATOM     29  H   UNL     1      33.889  -4.812 -21.157  0.00  0.00    -0.080 HD
ENDBRANCH  16  22
ENDBRANCH  11  19
BRANCH  13  30
ATOM     30  C   UNL     1      36.183 -19.759 -20.756  0.00  0.00    +0.119 C 
BRANCH  30  32
ATOM     31  S   UNL     1      35.721 -21.661 -18.809  0.00  0.00    -0.090 S 
ATOM     32  C   UNL     1      35.174 -20.534 -19.963  0.00  0.00    +0.016 C 
ATOM     33  C   UNL     1      33.813 -20.462 -20.042  0.00  0.00    +0.003 C 
ATOM     34  C   UNL     1      33.189 -21.358 -19.126  0.00  0.00    +0.007 C 
ATOM     35  C   UNL     1      34.112 -22.071 -18.392  0.00  0.00    +0.035 C 
ENDBRANCH  30  32
ENDBRANCH  13  30
TORSDOF 4
ENDMDL
MODEL 5
REMARK VINA RESULT:     -10.7      3.551     11.452
REMARK  Name = 11963557
REMARK  4 active torsions:
REMARK  status: ('A' for Active; 'I' for Inactive)
REMARK    1  A    between atoms: C_11  and  C_19
REMARK    2  A    between atoms: C_13  and  C_30
REMARK    3  A    between atoms: C_16  and  N_22
REMARK    4  A    between atoms: C_30  and  C_32
REMARK                            x       y       z     vdW  Elec       q    Type
REMARK                         _______ _______ _______ _____ _____    ______ ____
ROOT
ATOM      1  O   UNL     1      33.031 -14.003 -25.506  0.00  0.00    -0.270 OA
ATOM      2  O   UNL     1      36.553 -18.367 -19.240  0.00  0.00    -0.274 OA
ATOM      3  N   UNL     1      35.726 -18.416 -21.343  0.00  0.00    -0.233 N 
ATOM      4  N   UNL     1      34.041 -14.631 -23.482  0.00  0.00    -0.264 N 
ATOM      5  N   UNL     1      34.318 -17.938 -24.615  0.00  0.00    -0.273 N 
ATOM      6  N   UNL     1      33.941 -16.634 -24.841  0.00  0.00    -0.157 NA
ATOM      7  C   UNL     1      34.850 -16.848 -22.675  0.00  0.00    +0.067 A 
ATOM      8  C   UNL     1      34.832 -18.031 -23.372  0.00  0.00    +0.093 A 
ATOM      9  C   UNL     1      34.265 -15.988 -23.668  0.00  0.00    +0.157 A 
ATOM     10  C   UNL     1      35.383 -17.036 -21.439  0.00  0.00    +0.076 C 
ATOM     11  C   UNL     1      33.455 -13.721 -24.373  0.00  0.00    +0.251 C 
ATOM     12  C   UNL     1      35.356 -18.978 -22.581  0.00  0.00    +0.091 C 
ATOM     13  C   UNL     1      36.304 -19.035 -20.233  0.00  0.00    +0.238 C 
ATOM     14  H   UNL     1      34.330 -14.261 -22.617  0.00  0.00    +0.157 HD
ATOM     15  H   UNL     1      34.228 -18.680 -25.254  0.00  0.00    +0.189 HD
ENDROOT
BRANCH  11  19
ATOM     16  C   UNL     1      33.075  -9.710 -22.952  0.00  0.00    +0.048 C 
ATOM     17  C   UNL     1      32.639 -10.800 -22.173  0.00  0.00    +0.015 C 
ATOM     18  C   UNL     1      33.641  -9.982 -24.214  0.00  0.00    +0.015 C 
ATOM     19  C   UNL     1      33.325 -12.356 -23.890  0.00  0.00    +0.054 C 
ATOM     20  C   UNL     1      32.763 -12.110 -22.638  0.00  0.00    +0.006 C 
ATOM     21  C   UNL     1      33.764 -11.292 -24.678  0.00  0.00    +0.006 C 
BRANCH  16  22
ATOM     22  N   UNL     1      32.952  -8.396 -22.488  0.00  0.00    -0.312 N 
ATOM     23  N   UNL     1      32.897  -5.766 -21.376  0.00  0.00    +0.388 N 
ATOM     24  C   UNL     1      32.531  -8.194 -21.095  0.00  0.00    +0.068 C 
ATOM     25  C   UNL     1      33.800  -7.342 -23.053  0.00  0.00    +0.068 C 
ATOM     26  C   UNL     1      31.954  -6.789 -20.909  0.00  0.00    -0.056 C 
ATOM     27  C   UNL     1      33.182  -5.964 -22.802  0.00  0.00    -0.056 C 
ATOM     28  C   UNL     1      32.358  -4.425 -21.143  0.00  0.00    -0.101 C 
ATOM     29  H   UNL     1      33.767  -5.854 -20.851  0.00  0.00    -0.080 HD
ENDBRANCH  16  22
ENDBRANCH  11  19
BRANCH  13  30
ATOM     30  C   UNL     1      36.569 -20.502 -20.376  0.00  0.00    +0.119 C 
BRANCH  30  32
ATOM     31  S   UNL     1      36.532 -21.638 -17.861  0.00  0.00    -0.090 S 
ATOM     32  C   UNL     1      35.777 -21.230 -19.332  0.00  0.00    +0.016 C 
ATOM     33  C   UNL     1      34.474 -21.633 -19.399  0.00  0.00    +0.003 C 
ATOM     34  C   UNL     1      34.072 -22.299 -18.205  0.00  0.00    +0.007 C 
ATOM     35  C   UNL     1      35.095 -22.371 -17.285  0.00  0.00    +0.035 C 
ENDBRANCH  30  32
ENDBRANCH  13  30
TORSDOF 4
ENDMDL
MODEL 6
REMARK VINA RESULT:     -10.0      1.212      1.922
REMARK  Name = 11963557
REMARK  4 active torsions:
REMARK  status: ('A' for Active; 'I' for Inactive)
REMARK    1  A    between atoms: C_11  and  C_19
REMARK    2  A    between atoms: C_13  and  C_30
REMARK    3  A    between atoms: C_16  and  N_22
REMARK    4  A    between atoms: C_30  and  C_32
REMARK                            x       y       z     vdW  Elec       q    Type
REMARK                         _______ _______ _______ _____ _____    ______ ____
ROOT
ATOM      1  O   UNL     1      35.175 -20.034 -23.094  0.00  0.00    -0.270 OA
ATOM      2  O   UNL     1      33.835 -11.988 -21.054  0.00  0.00    -0.274 OA
ATOM      3  N   UNL     1      34.076 -13.498 -22.717  0.00  0.00    -0.233 N 
ATOM      4  N   UNL     1      34.796 -18.036 -21.922  0.00  0.00    -0.264 N 
ATOM      5  N   UNL     1      34.519 -16.282 -24.946  0.00  0.00    -0.273 N 
ATOM      6  N   UNL     1      34.707 -17.469 -24.276  0.00  0.00    -0.157 NA
ATOM      7  C   UNL     1      34.427 -15.707 -22.734  0.00  0.00    +0.067 A 
ATOM      8  C   UNL     1      34.363 -15.294 -24.043  0.00  0.00    +0.093 A 
ATOM      9  C   UNL     1      34.650 -17.111 -22.947  0.00  0.00    +0.157 A 
ATOM     10  C   UNL     1      34.259 -14.649 -21.897  0.00  0.00    +0.076 C 
ATOM     11  C   UNL     1      35.043 -19.412 -22.027  0.00  0.00    +0.251 C 
ATOM     12  C   UNL     1      34.152 -13.971 -24.042  0.00  0.00    +0.091 C 
ATOM     13  C   UNL     1      33.870 -12.196 -22.257  0.00  0.00    +0.238 C 
ATOM     14  H   UNL     1      34.715 -17.682 -21.007  0.00  0.00    +0.157 HD
ATOM     15  H   UNL     1      34.502 -16.172 -25.924  0.00  0.00    +0.189 HD
ENDROOT
BRANCH  11  19
ATOM     16  C   UNL     1      35.434 -21.522 -18.334  0.00  0.00    +0.048 C 
ATOM     17  C   UNL     1      34.201 -21.474 -19.015  0.00  0.00    +0.015 C 
ATOM     18  C   UNL     1      36.534 -20.853 -18.907  0.00  0.00    +0.015 C 
ATOM     19  C   UNL     1      35.176 -20.129 -20.770  0.00  0.00    +0.054 C 
ATOM     20  C   UNL     1      34.074 -20.785 -20.221  0.00  0.00    +0.006 C 
ATOM     21  C   UNL     1      36.405 -20.163 -20.113  0.00  0.00    +0.006 C 
BRANCH  16  22
ATOM     22  N   UNL     1      35.562 -22.213 -17.124  0.00  0.00    -0.312 N 
ATOM     23  N   UNL     1      35.776 -23.399 -14.534  0.00  0.00    +0.388 N 
ATOM     24  C   UNL     1      36.681 -21.858 -16.242  0.00  0.00    +0.068 C 
ATOM     25  C   UNL     1      34.367 -22.734 -16.454  0.00  0.00    +0.068 C 
ATOM     26  C   UNL     1      36.982 -23.002 -15.271  0.00  0.00    -0.056 C 
ATOM     27  C   UNL     1      34.743 -23.849 -15.475  0.00  0.00    -0.056 C 
ATOM     28  C   UNL     1      36.087 -24.455 -13.570  0.00  0.00    -0.101 C 
ATOM     29  H   UNL     1      35.424 -22.592 -14.019  0.00  0.00    -0.080 HD
ENDBRANCH  16  22
ENDBRANCH  11  19
BRANCH  13  30
ATOM     30  C   UNL     1      33.705 -11.154 -23.320  0.00  0.00    +0.119 C 
BRANCH  30  32
ATOM     31  S   UNL     1      33.472  -8.419 -23.031  0.00  0.00    -0.090 S 
ATOM     32  C   UNL     1      32.931 -10.007 -22.742  0.00  0.00    +0.016 C 
ATOM     33  C   UNL     1      31.800 -10.061 -21.979  0.00  0.00    +0.003 C 
ATOM     34  C   UNL     1      31.354  -8.757 -21.615  0.00  0.00    +0.007 C 
ATOM     35  C   UNL     1      32.173  -7.772 -22.122  0.00  0.00    +0.035 C 
ENDBRANCH  30  32
ENDBRANCH  13  30
TORSDOF 4
ENDMDL
MODEL 7
REMARK VINA RESULT:      -9.5      4.227     11.698
REMARK  Name = 11963557
REMARK  4 active torsions:
REMARK  status: ('A' for Active; 'I' for Inactive)
REMARK    1  A    between atoms: C_11  and  C_19
REMARK    2  A    between atoms: C_13  and  C_30
REMARK    3  A    between atoms: C_16  and  N_22
REMARK    4  A    between atoms: C_30  and  C_32
REMARK                            x       y       z     vdW  Elec       q    Type
REMARK                         _______ _______ _______ _____ _____    ______ ____
ROOT
ATOM      1  O   UNL     1      36.857 -18.414 -21.535  0.00  0.00    -0.270 OA
ATOM      2  O   UNL     1      30.826 -22.034 -16.928  0.00  0.00    -0.274 OA
ATOM      3  N   UNL     1      32.874 -22.247 -17.858  0.00  0.00    -0.233 N 
ATOM      4  N   UNL     1      34.900 -18.836 -20.309  0.00  0.00    -0.264 N 
ATOM      5  N   UNL     1      36.053 -22.053 -19.524  0.00  0.00    -0.273 N 
ATOM      6  N   UNL     1      36.254 -20.838 -20.137  0.00  0.00    -0.157 NA
ATOM      7  C   UNL     1      34.148 -20.869 -19.076  0.00  0.00    +0.067 A 
ATOM      8  C   UNL     1      34.845 -22.044 -18.927  0.00  0.00    +0.093 A 
ATOM      9  C   UNL     1      35.102 -20.135 -19.862  0.00  0.00    +0.157 A 
ATOM     10  C   UNL     1      32.947 -20.950 -18.444  0.00  0.00    +0.076 C 
ATOM     11  C   UNL     1      35.752 -18.052 -21.099  0.00  0.00    +0.251 C 
ATOM     12  C   UNL     1      34.089 -22.876 -18.198  0.00  0.00    +0.091 C 
ATOM     13  C   UNL     1      31.803 -22.745 -17.115  0.00  0.00    +0.238 C 
ATOM     14  H   UNL     1      34.054 -18.413 -20.039  0.00  0.00    +0.157 HD
ATOM     15  H   UNL     1      36.688 -22.806 -19.521  0.00  0.00    +0.189 HD
ENDROOT
BRANCH  11  19
ATOM     16  C   UNL     1      34.306 -14.157 -22.094  0.00  0.00    +0.048 C 
ATOM     17  C   UNL     1      34.476 -14.547 -20.750  0.00  0.00    +0.015 C 
ATOM     18  C   UNL     1      34.627 -15.090 -23.100  0.00  0.00    +0.015 C 
ATOM     19  C   UNL     1      35.259 -16.727 -21.438  0.00  0.00    +0.054 C 
ATOM     20  C   UNL     1      34.948 -15.819 -20.426  0.00  0.00    +0.006 C 
ATOM     21  C   UNL     1      35.099 -16.362 -22.774  0.00  0.00    +0.006 C 
BRANCH  16  22
ATOM     22  N   UNL     1      33.833 -12.881 -22.420  0.00  0.00    -0.312 N 
ATOM     23  N   UNL     1      32.735 -10.389 -23.280  0.00  0.00    +0.388 N 
ATOM     24  C   UNL     1      34.237 -12.304 -23.709  0.00  0.00    +0.068 C 
ATOM     25  C   UNL     1      32.537 -12.432 -21.902  0.00  0.00    +0.068 C 
ATOM     26  C   UNL     1      34.091 -10.781 -23.684  0.00  0.00    -0.056 C 
ATOM     27  C   UNL     1      32.445 -10.904 -21.937  0.00  0.00    -0.056 C 
ATOM     28  C   UNL     1      32.591  -8.933 -23.313  0.00  0.00    -0.101 C 
ATOM     29  H   UNL     1      32.066 -10.789 -23.938  0.00  0.00    -0.080 HD
ENDBRANCH  16  22
ENDBRANCH  11  19
BRANCH  13  30
ATOM     30  C   UNL     1      31.965 -24.143 -16.604  0.00  0.00    +0.119 C 
BRANCH  30  32
ATOM     31  S   UNL     1      32.109 -23.507 -13.922  0.00  0.00    -0.090 S 
ATOM     32  C   UNL     1      31.326 -24.230 -15.251  0.00  0.00    +0.016 C 
ATOM     33  C   UNL     1      30.149 -24.837 -14.918  0.00  0.00    +0.003 C 
ATOM     34  C   UNL     1      29.872 -24.708 -13.525  0.00  0.00    +0.007 C 
ATOM     35  C   UNL     1      30.857 -24.006 -12.866  0.00  0.00    +0.035 C 
ENDBRANCH  30  32
ENDBRANCH  13  30
TORSDOF 4
ENDMDL
MODEL 8
REMARK VINA RESULT:      -9.3      4.673      8.670
REMARK  Name = 11963557
REMARK  4 active torsions:
REMARK  status: ('A' for Active; 'I' for Inactive)
REMARK    1  A    between atoms: C_11  and  C_19
REMARK    2  A    between atoms: C_13  and  C_30
REMARK    3  A    between atoms: C_16  and  N_22
REMARK    4  A    between atoms: C_30  and  C_32
REMARK                            x       y       z     vdW  Elec       q    Type
REMARK                         _______ _______ _______ _____ _____    ______ ____
ROOT
ATOM      1  O   UNL     1      30.817  -9.520 -20.983  0.00  0.00    -0.270 OA
ATOM      2  O   UNL     1      35.172  -4.435 -26.070  0.00  0.00    -0.274 OA
ATOM      3  N   UNL     1      33.441  -4.633 -24.632  0.00  0.00    -0.233 N 
ATOM      4  N   UNL     1      32.407  -8.630 -22.463  0.00  0.00    -0.264 N 
ATOM      5  N   UNL     1      30.853  -5.491 -22.290  0.00  0.00    -0.273 N 
ATOM      6  N   UNL     1      30.914  -6.808 -21.895  0.00  0.00    -0.157 NA
ATOM      7  C   UNL     1      32.647  -6.342 -23.427  0.00  0.00    +0.067 A 
ATOM      8  C   UNL     1      31.851  -5.253 -23.164  0.00  0.00    +0.093 A 
ATOM      9  C   UNL     1      31.996  -7.309 -22.585  0.00  0.00    +0.157 A 
ATOM     10  C   UNL     1      33.623  -6.010 -24.313  0.00  0.00    +0.076 C 
ATOM     11  C   UNL     1      31.825  -9.649 -21.697  0.00  0.00    +0.251 C 
ATOM     12  C   UNL     1      32.321  -4.224 -23.882  0.00  0.00    +0.091 C 
ATOM     13  C   UNL     1      34.232  -3.891 -25.510  0.00  0.00    +0.238 C 
ATOM     14  H   UNL     1      33.205  -8.883 -22.980  0.00  0.00    +0.157 HD
ATOM     15  H   UNL     1      30.189  -4.832 -21.986  0.00  0.00    +0.189 HD
ENDROOT
BRANCH  11  19
ATOM     16  C   UNL     1      33.699 -13.479 -21.965  0.00  0.00    +0.048 C 
ATOM     17  C   UNL     1      33.956 -12.476 -22.922  0.00  0.00    +0.015 C 
ATOM     18  C   UNL     1      32.805 -13.180 -20.917  0.00  0.00    +0.015 C 
ATOM     19  C   UNL     1      32.462 -10.952 -21.788  0.00  0.00    +0.054 C 
ATOM     20  C   UNL     1      33.344 -11.226 -22.834  0.00  0.00    +0.006 C 
ATOM     21  C   UNL     1      32.193 -11.930 -20.830  0.00  0.00    +0.006 C 
BRANCH  16  22
ATOM     22  N   UNL     1      34.313 -14.733 -22.052  0.00  0.00    -0.312 N 
ATOM     23  N   UNL     1      35.789 -17.168 -22.281  0.00  0.00    +0.388 N 
ATOM     24  C   UNL     1      34.842 -15.153 -23.356  0.00  0.00    +0.068 C 
ATOM     25  C   UNL     1      34.997 -15.291 -20.881  0.00  0.00    +0.068 C 
ATOM     26  C   UNL     1      34.988 -16.676 -23.409  0.00  0.00    -0.056 C 
ATOM     27  C   UNL     1      35.140 -16.809 -21.015  0.00  0.00    -0.056 C 
ATOM     28  C   UNL     1      35.969 -18.617 -22.373  0.00  0.00    -0.101 C 
ATOM     29  H   UNL     1      36.710 -16.731 -22.315  0.00  0.00    -0.080 HD
ENDBRANCH  16  22
ENDBRANCH  11  19
BRANCH  13  30
ATOM     30  C   UNL     1      33.837  -2.456 -25.680  0.00  0.00    +0.119 C 
BRANCH  30  32
ATOM     31  S   UNL     1      33.792  -2.366 -28.439  0.00  0.00    -0.090 S 
ATOM     32  C   UNL     1      33.010  -2.338 -26.926  0.00  0.00    +0.016 C 
ATOM     33  C   UNL     1      31.654  -2.204 -27.021  0.00  0.00    +0.003 C 
ATOM     34  C   UNL     1      31.234  -2.122 -28.381  0.00  0.00    +0.007 C 
ATOM     35  C   UNL     1      32.296  -2.197 -29.255  0.00  0.00    +0.035 C 
ENDBRANCH  30  32
ENDBRANCH  13  30
TORSDOF 4
ENDMDL
MODEL 9
REMARK VINA RESULT:      -9.1      4.519     11.729
REMARK  Name = 11963557
REMARK  4 active torsions:
REMARK  status: ('A' for Active; 'I' for Inactive)
REMARK    1  A    between atoms: C_11  and  C_19
REMARK    2  A    between atoms: C_13  and  C_30
REMARK    3  A    between atoms: C_16  and  N_22
REMARK    4  A    between atoms: C_30  and  C_32
REMARK                            x       y       z     vdW  Elec       q    Type
REMARK                         _______ _______ _______ _____ _____    ______ ____
ROOT
ATOM      1  O   UNL     1      37.470 -19.081 -20.612  0.00  0.00    -0.270 OA
ATOM      2  O   UNL     1      30.842 -22.807 -17.023  0.00  0.00    -0.274 OA
ATOM      3  N   UNL     1      33.092 -22.735 -17.213  0.00  0.00    -0.233 N 
ATOM      4  N   UNL     1      35.299 -19.652 -19.929  0.00  0.00    -0.264 N 
ATOM      5  N   UNL     1      36.582 -22.187 -17.874  0.00  0.00    -0.273 N 
ATOM      6  N   UNL     1      36.796 -21.152 -18.755  0.00  0.00    -0.157 NA
ATOM      7  C   UNL     1      34.484 -21.434 -18.386  0.00  0.00    +0.067 A 
ATOM      8  C   UNL     1      35.256 -22.327 -17.682  0.00  0.00    +0.093 A 
ATOM      9  C   UNL     1      35.528 -20.708 -19.056  0.00  0.00    +0.157 A 
ATOM     10  C   UNL     1      33.165 -21.648 -18.131  0.00  0.00    +0.076 C 
ATOM     11  C   UNL     1      36.241 -18.905 -20.648  0.00  0.00    +0.251 C 
ATOM     12  C   UNL     1      34.429 -23.110 -16.975  0.00  0.00    +0.091 C 
ATOM     13  C   UNL     1      31.919 -23.279 -16.689  0.00  0.00    +0.238 C 
ATOM     14  H   UNL     1      34.357 -19.396 -20.059  0.00  0.00    +0.157 HD
ATOM     15  H   UNL     1      37.283 -22.735 -17.453  0.00  0.00    +0.189 HD
ENDROOT
BRANCH  11  19
ATOM     16  C   UNL     1      34.656 -15.858 -23.189  0.00  0.00    +0.048 C 
ATOM     17  C   UNL     1      34.927 -15.602 -21.830  0.00  0.00    +0.015 C 
ATOM     18  C   UNL     1      34.923 -17.150 -23.685  0.00  0.00    +0.015 C 
ATOM     19  C   UNL     1      35.701 -17.868 -21.512  0.00  0.00    +0.054 C 
ATOM     20  C   UNL     1      35.445 -16.597 -21.001  0.00  0.00    +0.006 C 
ATOM     21  C   UNL     1      35.440 -18.145 -22.854  0.00  0.00    +0.006 C 
BRANCH  16  22
ATOM     22  N   UNL     1      34.137 -14.861 -24.022  0.00  0.00    -0.312 N 
ATOM     23  N   UNL     1      32.853 -12.956 -25.719  0.00  0.00    +0.388 N 
ATOM     24  C   UNL     1      33.748 -15.236 -25.388  0.00  0.00    +0.068 C 
ATOM     25  C   UNL     1      33.398 -13.738 -23.437  0.00  0.00    +0.068 C 
ATOM     26  C   UNL     1      33.709 -14.002 -26.292  0.00  0.00    -0.056 C 
ATOM     27  C   UNL     1      33.369 -12.552 -24.405  0.00  0.00    -0.056 C 
ATOM     28  C   UNL     1      32.779 -11.803 -26.617  0.00  0.00    -0.101 C 
ATOM     29  H   UNL     1      31.911 -13.329 -25.602  0.00  0.00    -0.080 HD
ENDBRANCH  16  22
ENDBRANCH  11  19
BRANCH  13  30
ATOM     30  C   UNL     1      32.104 -24.423 -15.740  0.00  0.00    +0.119 C 
BRANCH  30  32
ATOM     31  S   UNL     1      30.434 -25.003 -13.620  0.00  0.00    -0.090 S 
ATOM     32  C   UNL     1      31.581 -24.012 -14.396  0.00  0.00    +0.016 C 
ATOM     33  C   UNL     1      31.909 -22.900 -13.674  0.00  0.00    +0.003 C 
ATOM     34  C   UNL     1      31.200 -22.853 -12.439  0.00  0.00    +0.007 C 
ATOM     35  C   UNL     1      30.363 -23.937 -12.282  0.00  0.00    +0.035 C 
ENDBRANCH  30  32
ENDBRANCH  13  30
TORSDOF 4
ENDMDL
