MODEL 1
REMARK VINA RESULT:     -12.6      0.000      0.000
REMARK  Name = 46937134
REMARK  9 active torsions:
REMARK  status: ('A' for Active; 'I' for Inactive)
REMARK    1  A    between atoms: N_2  and  C_15
REMARK    2  A    between atoms: N_6  and  C_29
REMARK    3  A    between atoms: C_16  and  O_19
REMARK    4  A    between atoms: C_18  and  C_21
REMARK    5  A    between atoms: C_21  and  O_22
REMARK    6  A    between atoms: O_22  and  P_23
REMARK    7  A    between atoms: P_23  and  O_25
REMARK    8  A    between atoms: P_23  and  O_27
REMARK    9  A    between atoms: C_29  and  C_30
REMARK                            x       y       z     vdW  Elec       q    Type
REMARK                         _______ _______ _______ _____ _____    ______ ____
ROOT
ATOM      1  O   UNL     1      31.798 -20.293 -20.554  0.00  0.00    -0.208 OA
ATOM      2  N   UNL     1      34.721 -22.253 -17.719  0.00  0.00    -0.209 NA
ATOM      3  N   UNL     1      35.658 -20.748 -19.385  0.00  0.00    -0.279 N 
ATOM      4  N   UNL     1      32.567 -22.048 -18.314  0.00  0.00    -0.241 NA
ATOM      5  N   UNL     1      34.033 -19.755 -20.847  0.00  0.00    -0.301 NA
ATOM      6  N   UNL     1      36.315 -19.299 -21.029  0.00  0.00    -0.292 N 
ATOM      7  C   UNL     1      34.668 -21.395 -18.763  0.00  0.00    +0.191 C 
ATOM      8  C   UNL     1      33.417 -22.624 -17.481  0.00  0.00    +0.205 C 
ATOM      9  C   UNL     1      33.357 -21.275 -19.118  0.00  0.00    +0.183 C 
ATOM     10  C   UNL     1      35.278 -19.924 -20.442  0.00  0.00    +0.248 C 
ATOM     11  C   UNL     1      32.969 -20.416 -20.219  0.00  0.00    +0.224 C 
ATOM     12  H   UNL     1      36.600 -20.848 -19.112  0.00  0.00    +0.152 HD
ATOM     13  H   UNL     1      37.221 -19.465 -20.683  0.00  0.00    +0.151 HD
ENDROOT
BRANCH   2  15
ATOM     14  O   UNL     1      35.608 -23.712 -15.968  0.00  0.00    -0.338 OA
ATOM     15  C   UNL     1      35.937 -22.721 -16.960  0.00  0.00    +0.182 C 
ATOM     16  C   UNL     1      37.350 -22.341 -15.108  0.00  0.00    +0.144 C 
ATOM     17  C   UNL     1      36.651 -21.594 -16.219  0.00  0.00    +0.079 C 
ATOM     18  C   UNL     1      36.364 -23.452 -14.769  0.00  0.00    +0.174 C 
BRANCH  16  19
ATOM     19  O   UNL     1      38.549 -22.909 -15.629  0.00  0.00    -0.382 OA
ATOM     20  H   UNL     1      38.326 -23.632 -16.237  0.00  0.00    +0.210 HD
ENDBRANCH  16  19
BRANCH  18  21
ATOM     21  C   UNL     1      35.384 -23.054 -13.673  0.00  0.00    +0.186 C 
BRANCH  21  22
ATOM     22  O   UNL     1      36.012 -23.235 -12.415  0.00  0.00    -0.271 OA
BRANCH  22  23
ATOM     23  P   UNL     1      35.513 -24.452 -11.471  0.00  0.00    +0.473 P 
ATOM     24  O   UNL     1      35.638 -24.202  -9.997  0.00  0.00    -0.227 OA
BRANCH  23  25
ATOM     25  O   UNL     1      34.007 -24.721 -11.993  0.00  0.00    -0.303 OA
ATOM     26  H   UNL     1      33.655 -25.519 -11.567  0.00  0.00    +0.222 HD
ENDBRANCH  23  25
BRANCH  23  27
ATOM     27  O   UNL     1      36.334 -25.729 -12.028  0.00  0.00    -0.303 OA
ATOM     28  H   UNL     1      37.102 -25.894 -11.458  0.00  0.00    +0.222 HD
ENDBRANCH  23  27
ENDBRANCH  22  23
ENDBRANCH  21  22
ENDBRANCH  18  21
ENDBRANCH   2  15
BRANCH   6  29
ATOM     29  C   UNL     1      36.158 -18.395 -22.146  0.00  0.00    +0.117 C 
BRANCH  29  30
ATOM     30  C   UNL     1      35.521 -17.113 -21.706  0.00  0.00    -0.003 C 
ATOM     31  C   UNL     1      34.917 -16.231 -22.617  0.00  0.00    -0.002 C 
ATOM     32  C   UNL     1      34.333 -15.034 -22.137  0.00  0.00    -0.000 C 
ATOM     33  C   UNL     1      35.546 -16.821 -20.342  0.00  0.00    -0.003 C 
ATOM     34  C   UNL     1      34.883 -16.508 -23.993  0.00  0.00    -0.000 C 
ATOM     35  C   UNL     1      34.369 -14.756 -20.762  0.00  0.00    -0.000 C 
ATOM     36  C   UNL     1      34.971 -15.645 -19.871  0.00  0.00    -0.000 C 
ATOM     37  C   UNL     1      33.730 -14.151 -23.048  0.00  0.00    -0.000 C 
ATOM     38  C   UNL     1      34.280 -15.620 -24.884  0.00  0.00    -0.000 C 
ATOM     39  C   UNL     1      33.704 -14.444 -24.412  0.00  0.00    -0.000 C 
ENDBRANCH  29  30
ENDBRANCH   6  29
TORSDOF 9
ENDMDL
MODEL 2
REMARK VINA RESULT:     -12.0      2.263      3.326
REMARK  Name = 46937134
REMARK  9 active torsions:
REMARK  status: ('A' for Active; 'I' for Inactive)
REMARK    1  A    between atoms: N_2  and  C_15
REMARK    2  A    between atoms: N_6  and  C_29
REMARK    3  A    between atoms: C_16  and  O_19
REMARK    4  A    between atoms: C_18  and  C_21
REMARK    5  A    between atoms: C_21  and  O_22
REMARK    6  A    between atoms: O_22  and  P_23
REMARK    7  A    between atoms: P_23  and  O_25
REMARK    8  A    between atoms: P_23  and  O_27
REMARK    9  A    between atoms: C_29  and  C_30
REMARK                            x       y       z     vdW  Elec       q    Type
REMARK                         _______ _______ _______ _____ _____    ______ ____
ROOT
ATOM      1  O   UNL     1      30.865 -22.421 -16.706  0.00  0.00    -0.208 OA
ATOM      2  N   UNL     1      34.783 -24.116 -15.221  0.00  0.00    -0.209 NA
ATOM      3  N   UNL     1      34.859 -22.848 -17.295  0.00  0.00    -0.279 N 
ATOM      4  N   UNL     1      32.581 -23.919 -14.835  0.00  0.00    -0.241 NA
ATOM      5  N   UNL     1      32.733 -21.989 -18.007  0.00  0.00    -0.301 NA
ATOM      6  N   UNL     1      34.694 -21.625 -19.222  0.00  0.00    -0.292 N 
ATOM      7  C   UNL     1      34.257 -23.387 -16.231  0.00  0.00    +0.191 C 
ATOM      8  C   UNL     1      33.724 -24.418 -14.395  0.00  0.00    +0.205 C 
ATOM      9  C   UNL     1      32.919 -23.271 -15.989  0.00  0.00    +0.183 C 
ATOM     10  C   UNL     1      34.034 -22.145 -18.170  0.00  0.00    +0.248 C 
ATOM     11  C   UNL     1      32.068 -22.538 -16.905  0.00  0.00    +0.224 C 
ATOM     12  H   UNL     1      35.827 -22.943 -17.451  0.00  0.00    +0.152 HD
ATOM     13  H   UNL     1      35.665 -21.776 -19.289  0.00  0.00    +0.151 HD
ENDROOT
BRANCH   2  15
ATOM     14  O   UNL     1      36.331 -25.782 -14.322  0.00  0.00    -0.338 OA
ATOM     15  C   UNL     1      36.220 -24.527 -15.019  0.00  0.00    +0.182 C 
ATOM     16  C   UNL     1      38.117 -24.375 -13.623  0.00  0.00    +0.144 C 
ATOM     17  C   UNL     1      37.023 -23.513 -14.209  0.00  0.00    +0.079 C 
ATOM     18  C   UNL     1      37.410 -25.701 -13.368  0.00  0.00    +0.174 C 
BRANCH  16  19
ATOM     19  O   UNL     1      39.129 -24.556 -14.612  0.00  0.00    -0.382 OA
ATOM     20  H   UNL     1      39.997 -24.361 -14.225  0.00  0.00    +0.210 HD
ENDBRANCH  16  19
BRANCH  18  21
ATOM     21  C   UNL     1      36.808 -25.787 -11.972  0.00  0.00    +0.186 C 
BRANCH  21  22
ATOM     22  O   UNL     1      37.360 -24.751 -11.176  0.00  0.00    -0.271 OA
BRANCH  22  23
ATOM     23  P   UNL     1      36.362 -23.636 -10.559  0.00  0.00    +0.473 P 
ATOM     24  O   UNL     1      35.056 -23.485 -11.282  0.00  0.00    -0.227 OA
BRANCH  23  25
ATOM     25  O   UNL     1      36.238 -24.080  -9.009  0.00  0.00    -0.303 OA
ATOM     26  H   UNL     1      36.409 -25.032  -8.931  0.00  0.00    +0.222 HD
ENDBRANCH  23  25
BRANCH  23  27
ATOM     27  O   UNL     1      37.274 -22.302 -10.492  0.00  0.00    -0.303 OA
ATOM     28  H   UNL     1      38.144 -22.523 -10.127  0.00  0.00    +0.222 HD
ENDBRANCH  23  27
ENDBRANCH  22  23
ENDBRANCH  21  22
ENDBRANCH  18  21
ENDBRANCH   2  15
BRANCH   6  29
ATOM     29  C   UNL     1      34.042 -20.856 -20.257  0.00  0.00    +0.117 C 
BRANCH  29  30
ATOM     30  C   UNL     1      34.990 -19.866 -20.860  0.00  0.00    -0.003 C 
ATOM     31  C   UNL     1      34.708 -19.202 -22.064  0.00  0.00    -0.002 C 
ATOM     32  C   UNL     1      35.646 -18.277 -22.583  0.00  0.00    -0.000 C 
ATOM     33  C   UNL     1      36.180 -19.620 -20.175  0.00  0.00    -0.003 C 
ATOM     34  C   UNL     1      33.515 -19.436 -22.768  0.00  0.00    -0.000 C 
ATOM     35  C   UNL     1      36.839 -18.044 -21.880  0.00  0.00    -0.000 C 
ATOM     36  C   UNL     1      37.103 -18.712 -20.683  0.00  0.00    -0.000 C 
ATOM     37  C   UNL     1      35.364 -17.614 -23.788  0.00  0.00    -0.000 C 
ATOM     38  C   UNL     1      33.251 -18.768 -23.964  0.00  0.00    -0.000 C 
ATOM     39  C   UNL     1      34.174 -17.859 -24.472  0.00  0.00    -0.000 C 
ENDBRANCH  29  30
ENDBRANCH   6  29
TORSDOF 9
ENDMDL
MODEL 3
REMARK VINA RESULT:     -11.9      2.896      4.837
REMARK  Name = 46937134
REMARK  9 active torsions:
REMARK  status: ('A' for Active; 'I' for Inactive)
REMARK    1  A    between atoms: N_2  and  C_15
REMARK    2  A    between atoms: N_6  and  C_29
REMARK    3  A    between atoms: C_16  and  O_19
REMARK    4  A    between atoms: C_18  and  C_21
REMARK    5  A    between atoms: C_21  and  O_22
REMARK    6  A    between atoms: O_22  and  P_23
REMARK    7  A    between atoms: P_23  and  O_25
REMARK    8  A    between atoms: P_23  and  O_27
REMARK    9  A    between atoms: C_29  and  C_30
REMARK                            x       y       z     vdW  Elec       q    Type
REMARK                         _______ _______ _______ _____ _____    ______ ____
ROOT
ATOM      1  O   UNL     1      30.661 -23.396 -16.201  0.00  0.00    -0.208 OA
ATOM      2  N   UNL     1      34.132 -23.716 -13.324  0.00  0.00    -0.209 NA
ATOM      3  N   UNL     1      34.638 -22.896 -15.557  0.00  0.00    -0.279 N 
ATOM      4  N   UNL     1      31.927 -24.016 -13.611  0.00  0.00    -0.241 NA
ATOM      5  N   UNL     1      32.736 -22.761 -17.016  0.00  0.00    -0.301 NA
ATOM      6  N   UNL     1      34.881 -22.151 -17.707  0.00  0.00    -0.292 N 
ATOM      7  C   UNL     1      33.835 -23.354 -14.593  0.00  0.00    +0.191 C 
ATOM      8  C   UNL     1      32.938 -24.112 -12.765  0.00  0.00    +0.205 C 
ATOM      9  C   UNL     1      32.494 -23.539 -14.760  0.00  0.00    +0.183 C 
ATOM     10  C   UNL     1      34.025 -22.609 -16.774  0.00  0.00    +0.248 C 
ATOM     11  C   UNL     1      31.864 -23.238 -16.029  0.00  0.00    +0.224 C 
ATOM     12  H   UNL     1      35.605 -22.769 -15.416  0.00  0.00    +0.152 HD
ATOM     13  H   UNL     1      35.831 -22.060 -17.468  0.00  0.00    +0.151 HD
ENDROOT
BRANCH   2  15
ATOM     14  O   UNL     1      36.564 -23.719 -13.587  0.00  0.00    -0.338 OA
ATOM     15  C   UNL     1      35.477 -23.699 -12.642  0.00  0.00    +0.182 C 
ATOM     16  C   UNL     1      37.200 -24.999 -11.686  0.00  0.00    +0.144 C 
ATOM     17  C   UNL     1      35.693 -24.892 -11.715  0.00  0.00    +0.079 C 
ATOM     18  C   UNL     1      37.599 -24.597 -13.101  0.00  0.00    +0.174 C 
BRANCH  16  19
ATOM     19  O   UNL     1      37.704 -24.043 -10.757  0.00  0.00    -0.382 OA
ATOM     20  H   UNL     1      37.709 -24.429  -9.866  0.00  0.00    +0.210 HD
ENDBRANCH  16  19
BRANCH  18  21
ATOM     21  C   UNL     1      37.688 -25.787 -14.047  0.00  0.00    +0.186 C 
BRANCH  21  22
ATOM     22  O   UNL     1      38.857 -26.526 -13.738  0.00  0.00    -0.271 OA
BRANCH  22  23
ATOM     23  P   UNL     1      40.298 -25.872 -14.079  0.00  0.00    +0.473 P 
ATOM     24  O   UNL     1      40.573 -24.560 -13.406  0.00  0.00    -0.227 OA
BRANCH  23  25
ATOM     25  O   UNL     1      41.331 -27.060 -13.710  0.00  0.00    -0.303 OA
ATOM     26  H   UNL     1      41.754 -26.866 -12.858  0.00  0.00    +0.222 HD
ENDBRANCH  23  25
BRANCH  23  27
ATOM     27  O   UNL     1      40.330 -25.840 -15.696  0.00  0.00    -0.303 OA
ATOM     28  H   UNL     1      40.516 -26.729 -16.034  0.00  0.00    +0.222 HD
ENDBRANCH  23  27
ENDBRANCH  22  23
ENDBRANCH  21  22
ENDBRANCH  18  21
ENDBRANCH   2  15
BRANCH   6  29
ATOM     29  C   UNL     1      34.467 -21.789 -19.044  0.00  0.00    +0.117 C 
BRANCH  29  30
ATOM     30  C   UNL     1      35.418 -20.800 -19.643  0.00  0.00    -0.003 C 
ATOM     31  C   UNL     1      35.061 -19.990 -20.734  0.00  0.00    -0.002 C 
ATOM     32  C   UNL     1      36.006 -19.075 -21.256  0.00  0.00    -0.000 C 
ATOM     33  C   UNL     1      36.688 -20.706 -19.074  0.00  0.00    -0.003 C 
ATOM     34  C   UNL     1      33.788 -20.070 -21.320  0.00  0.00    -0.000 C 
ATOM     35  C   UNL     1      37.280 -18.996 -20.671  0.00  0.00    -0.000 C 
ATOM     36  C   UNL     1      37.618 -19.807 -19.587  0.00  0.00    -0.000 C 
ATOM     37  C   UNL     1      35.650 -18.267 -22.348  0.00  0.00    -0.000 C 
ATOM     38  C   UNL     1      33.450 -19.260 -22.404  0.00  0.00    -0.000 C 
ATOM     39  C   UNL     1      34.379 -18.359 -22.916  0.00  0.00    -0.000 C 
ENDBRANCH  29  30
ENDBRANCH   6  29
TORSDOF 9
ENDMDL
MODEL 4
REMARK VINA RESULT:     -11.5      2.685      4.766
REMARK  Name = 46937134
REMARK  9 active torsions:
REMARK  status: ('A' for Active; 'I' for Inactive)
REMARK    1  A    between atoms: N_2  and  C_15
REMARK    2  A    between atoms: N_6  and  C_29
REMARK    3  A    between atoms: C_16  and  O_19
REMARK    4  A    between atoms: C_18  and  C_21
REMARK    5  A    between atoms: C_21  and  O_22
REMARK    6  A    between atoms: O_22  and  P_23
REMARK    7  A    between atoms: P_23  and  O_25
REMARK    8  A    between atoms: P_23  and  O_27
REMARK    9  A    between atoms: C_29  and  C_30
REMARK                            x       y       z     vdW  Elec       q    Type
REMARK                         _______ _______ _______ _____ _____    ______ ____
ROOT
ATOM      1  O   UNL     1      29.543 -22.441 -16.509  0.00  0.00    -0.208 OA
ATOM      2  N   UNL     1      32.577 -24.209 -13.663  0.00  0.00    -0.209 NA
ATOM      3  N   UNL     1      33.433 -23.332 -15.764  0.00  0.00    -0.279 N 
ATOM      4  N   UNL     1      30.409 -23.745 -14.010  0.00  0.00    -0.241 NA
ATOM      5  N   UNL     1      31.751 -22.415 -17.212  0.00  0.00    -0.301 NA
ATOM      6  N   UNL     1      34.012 -22.450 -17.795  0.00  0.00    -0.292 N 
ATOM      7  C   UNL     1      32.477 -23.620 -14.877  0.00  0.00    +0.191 C 
ATOM      8  C   UNL     1      31.291 -24.264 -13.174  0.00  0.00    +0.205 C 
ATOM      9  C   UNL     1      31.157 -23.341 -15.080  0.00  0.00    +0.183 C 
ATOM     10  C   UNL     1      33.007 -22.717 -16.939  0.00  0.00    +0.248 C 
ATOM     11  C   UNL     1      30.722 -22.701 -16.306  0.00  0.00    +0.224 C 
ATOM     12  H   UNL     1      34.381 -23.542 -15.598  0.00  0.00    +0.152 HD
ATOM     13  H   UNL     1      34.928 -22.700 -17.537  0.00  0.00    +0.151 HD
ENDROOT
BRANCH   2  15
ATOM     14  O   UNL     1      34.441 -23.688 -12.169  0.00  0.00    -0.338 OA
ATOM     15  C   UNL     1      33.820 -24.710 -12.971  0.00  0.00    +0.182 C 
ATOM     16  C   UNL     1      36.152 -25.029 -13.134  0.00  0.00    +0.144 C 
ATOM     17  C   UNL     1      34.888 -25.203 -13.942  0.00  0.00    +0.079 C 
ATOM     18  C   UNL     1      35.872 -23.767 -12.327  0.00  0.00    +0.174 C 
BRANCH  16  19
ATOM     19  O   UNL     1      36.281 -26.142 -12.251  0.00  0.00    -0.382 OA
ATOM     20  H   UNL     1      35.598 -26.090 -11.564  0.00  0.00    +0.210 HD
ENDBRANCH  16  19
BRANCH  18  21
ATOM     21  C   UNL     1      36.337 -22.502 -13.035  0.00  0.00    +0.186 C 
BRANCH  21  22
ATOM     22  O   UNL     1      37.550 -22.781 -13.713  0.00  0.00    -0.271 OA
BRANCH  22  23
ATOM     23  P   UNL     1      37.575 -22.673 -15.328  0.00  0.00    +0.473 P 
ATOM     24  O   UNL     1      36.347 -23.193 -16.017  0.00  0.00    -0.227 OA
BRANCH  23  25
ATOM     25  O   UNL     1      37.888 -21.107 -15.581  0.00  0.00    -0.303 OA
ATOM     26  H   UNL     1      38.000 -20.658 -14.728  0.00  0.00    +0.222 HD
ENDBRANCH  23  25
BRANCH  23  27
ATOM     27  O   UNL     1      38.959 -23.400 -15.740  0.00  0.00    -0.303 OA
ATOM     28  H   UNL     1      39.708 -22.841 -15.481  0.00  0.00    +0.222 HD
ENDBRANCH  23  27
ENDBRANCH  22  23
ENDBRANCH  21  22
ENDBRANCH  18  21
ENDBRANCH   2  15
BRANCH   6  29
ATOM     29  C   UNL     1      33.805 -21.815 -19.076  0.00  0.00    +0.117 C 
BRANCH  29  30
ATOM     30  C   UNL     1      34.988 -20.976 -19.449  0.00  0.00    -0.003 C 
ATOM     31  C   UNL     1      34.948 -20.064 -20.517  0.00  0.00    -0.002 C 
ATOM     32  C   UNL     1      36.101 -19.301 -20.820  0.00  0.00    -0.000 C 
ATOM     33  C   UNL     1      36.148 -21.131 -18.690  0.00  0.00    -0.003 C 
ATOM     34  C   UNL     1      33.790 -19.895 -21.292  0.00  0.00    -0.000 C 
ATOM     35  C   UNL     1      37.260 -19.472 -20.045  0.00  0.00    -0.000 C 
ATOM     36  C   UNL     1      37.281 -20.381 -18.987  0.00  0.00    -0.000 C 
ATOM     37  C   UNL     1      36.061 -18.390 -21.888  0.00  0.00    -0.000 C 
ATOM     38  C   UNL     1      33.767 -18.986 -22.350  0.00  0.00    -0.000 C 
ATOM     39  C   UNL     1      34.901 -18.234 -22.647  0.00  0.00    -0.000 C 
ENDBRANCH  29  30
ENDBRANCH   6  29
TORSDOF 9
ENDMDL
MODEL 5
REMARK VINA RESULT:     -11.1      3.348      5.171
REMARK  Name = 46937134
REMARK  9 active torsions:
REMARK  status: ('A' for Active; 'I' for Inactive)
REMARK    1  A    between atoms: N_2  and  C_15
REMARK    2  A    between atoms: N_6  and  C_29
REMARK    3  A    between atoms: C_16  and  O_19
REMARK    4  A    between atoms: C_18  and  C_21
REMARK    5  A    between atoms: C_21  and  O_22
REMARK    6  A    between atoms: O_22  and  P_23
REMARK    7  A    between atoms: P_23  and  O_25
REMARK    8  A    between atoms: P_23  and  O_27
REMARK    9  A    between atoms: C_29  and  C_30
REMARK                            x       y       z     vdW  Elec       q    Type
REMARK                         _______ _______ _______ _____ _____    ______ ____
ROOT
ATOM      1  O   UNL     1      30.914 -24.312 -15.112  0.00  0.00    -0.208 OA
ATOM      2  N   UNL     1      34.776 -23.453 -12.927  0.00  0.00    -0.209 NA
ATOM      3  N   UNL     1      34.791 -23.127 -15.338  0.00  0.00    -0.279 N 
ATOM      4  N   UNL     1      32.641 -24.115 -12.731  0.00  0.00    -0.241 NA
ATOM      5  N   UNL     1      32.699 -23.609 -16.413  0.00  0.00    -0.301 NA
ATOM      6  N   UNL     1      34.575 -22.890 -17.603  0.00  0.00    -0.292 N 
ATOM      7  C   UNL     1      34.234 -23.449 -14.166  0.00  0.00    +0.191 C 
ATOM      8  C   UNL     1      33.768 -23.866 -12.086  0.00  0.00    +0.205 C 
ATOM      9  C   UNL     1      32.937 -23.852 -14.039  0.00  0.00    +0.183 C 
ATOM     10  C   UNL     1      33.962 -23.226 -16.453  0.00  0.00    +0.248 C 
ATOM     11  C   UNL     1      32.082 -23.953 -15.204  0.00  0.00    +0.224 C 
ATOM     12  H   UNL     1      35.730 -22.838 -15.408  0.00  0.00    +0.152 HD
ATOM     13  H   UNL     1      35.519 -22.614 -17.569  0.00  0.00    +0.151 HD
ENDROOT
BRANCH   2  15
ATOM     14  O   UNL     1      37.056 -22.963 -13.664  0.00  0.00    -0.338 OA
ATOM     15  C   UNL     1      36.183 -23.088 -12.525  0.00  0.00    +0.182 C 
ATOM     16  C   UNL     1      38.299 -23.899 -11.865  0.00  0.00    +0.144 C 
ATOM     17  C   UNL     1      36.828 -24.117 -11.601  0.00  0.00    +0.079 C 
ATOM     18  C   UNL     1      38.334 -23.552 -13.349  0.00  0.00    +0.174 C 
BRANCH  16  19
ATOM     19  O   UNL     1      38.734 -22.775 -11.102  0.00  0.00    -0.382 OA
ATOM     20  H   UNL     1      38.168 -22.012 -11.300  0.00  0.00    +0.210 HD
ENDBRANCH  16  19
BRANCH  18  21
ATOM     21  C   UNL     1      38.516 -24.778 -14.235  0.00  0.00    +0.186 C 
BRANCH  21  22
ATOM     22  O   UNL     1      37.270 -25.096 -14.831  0.00  0.00    -0.271 OA
BRANCH  22  23
ATOM     23  P   UNL     1      36.643 -26.566 -14.574  0.00  0.00    +0.473 P 
ATOM     24  O   UNL     1      37.202 -27.294 -13.386  0.00  0.00    -0.227 OA
BRANCH  23  25
ATOM     25  O   UNL     1      35.054 -26.276 -14.512  0.00  0.00    -0.303 OA
ATOM     26  H   UNL     1      34.707 -26.185 -15.413  0.00  0.00    +0.222 HD
ENDBRANCH  23  25
BRANCH  23  27
ATOM     27  O   UNL     1      36.830 -27.316 -15.995  0.00  0.00    -0.303 OA
ATOM     28  H   UNL     1      37.193 -26.693 -16.643  0.00  0.00    +0.222 HD
ENDBRANCH  23  27
ENDBRANCH  22  23
ENDBRANCH  21  22
ENDBRANCH  18  21
ENDBRANCH   2  15
BRANCH   6  29
ATOM     29  C   UNL     1      33.909 -22.918 -18.886  0.00  0.00    +0.117 C 
BRANCH  29  30
ATOM     30  C   UNL     1      33.811 -21.539 -19.462  0.00  0.00    -0.003 C 
ATOM     31  C   UNL     1      34.949 -20.764 -19.737  0.00  0.00    -0.002 C 
ATOM     32  C   UNL     1      34.789 -19.467 -20.282  0.00  0.00    -0.000 C 
ATOM     33  C   UNL     1      32.533 -21.044 -19.723  0.00  0.00    -0.003 C 
ATOM     34  C   UNL     1      36.243 -21.246 -19.482  0.00  0.00    -0.000 C 
ATOM     35  C   UNL     1      33.495 -18.985 -20.535  0.00  0.00    -0.000 C 
ATOM     36  C   UNL     1      32.375 -19.770 -20.258  0.00  0.00    -0.000 C 
ATOM     37  C   UNL     1      35.927 -18.691 -20.555  0.00  0.00    -0.000 C 
ATOM     38  C   UNL     1      37.363 -20.461 -19.760  0.00  0.00    -0.000 C 
ATOM     39  C   UNL     1      37.205 -19.187 -20.297  0.00  0.00    -0.000 C 
ENDBRANCH  29  30
ENDBRANCH   6  29
TORSDOF 9
ENDMDL
MODEL 6
REMARK VINA RESULT:     -10.4      1.017      2.032
REMARK  Name = 46937134
REMARK  9 active torsions:
REMARK  status: ('A' for Active; 'I' for Inactive)
REMARK    1  A    between atoms: N_2  and  C_15
REMARK    2  A    between atoms: N_6  and  C_29
REMARK    3  A    between atoms: C_16  and  O_19
REMARK    4  A    between atoms: C_18  and  C_21
REMARK    5  A    between atoms: C_21  and  O_22
REMARK    6  A    between atoms: O_22  and  P_23
REMARK    7  A    between atoms: P_23  and  O_25
REMARK    8  A    between atoms: P_23  and  O_27
REMARK    9  A    between atoms: C_29  and  C_30
REMARK                            x       y       z     vdW  Elec       q    Type
REMARK                         _______ _______ _______ _____ _____    ______ ____
ROOT
ATOM      1  O   UNL     1      32.042 -20.030 -20.472  0.00  0.00    -0.208 OA
ATOM      2  N   UNL     1      34.712 -22.380 -17.683  0.00  0.00    -0.209 NA
ATOM      3  N   UNL     1      35.773 -20.624 -18.989  0.00  0.00    -0.279 N 
ATOM      4  N   UNL     1      32.625 -22.106 -18.461  0.00  0.00    -0.241 NA
ATOM      5  N   UNL     1      34.280 -19.431 -20.442  0.00  0.00    -0.301 NA
ATOM      6  N   UNL     1      36.556 -18.928 -20.311  0.00  0.00    -0.292 N 
ATOM      7  C   UNL     1      34.743 -21.370 -18.582  0.00  0.00    +0.191 C 
ATOM      8  C   UNL     1      33.400 -22.797 -17.644  0.00  0.00    +0.205 C 
ATOM      9  C   UNL     1      33.471 -21.209 -19.050  0.00  0.00    +0.183 C 
ATOM     10  C   UNL     1      35.482 -19.648 -19.939  0.00  0.00    +0.248 C 
ATOM     11  C   UNL     1      33.176 -20.192 -20.039  0.00  0.00    +0.224 C 
ATOM     12  H   UNL     1      36.684 -20.756 -18.638  0.00  0.00    +0.152 HD
ATOM     13  H   UNL     1      37.427 -19.138 -19.902  0.00  0.00    +0.151 HD
ENDROOT
BRANCH   2  15
ATOM     14  O   UNL     1      35.411 -23.927 -15.923  0.00  0.00    -0.338 OA
ATOM     15  C   UNL     1      35.856 -22.948 -16.882  0.00  0.00    +0.182 C 
ATOM     16  C   UNL     1      37.211 -22.703 -14.966  0.00  0.00    +0.144 C 
ATOM     17  C   UNL     1      36.618 -21.889 -16.092  0.00  0.00    +0.079 C 
ATOM     18  C   UNL     1      36.132 -23.742 -14.688  0.00  0.00    +0.174 C 
BRANCH  16  19
ATOM     19  O   UNL     1      38.386 -23.351 -15.446  0.00  0.00    -0.382 OA
ATOM     20  H   UNL     1      38.868 -22.749 -16.037  0.00  0.00    +0.210 HD
ENDBRANCH  16  19
BRANCH  18  21
ATOM     21  C   UNL     1      35.137 -23.289 -13.628  0.00  0.00    +0.186 C 
BRANCH  21  22
ATOM     22  O   UNL     1      34.944 -24.347 -12.705  0.00  0.00    -0.271 OA
BRANCH  22  23
ATOM     23  P   UNL     1      35.935 -24.449 -11.428  0.00  0.00    +0.473 P 
ATOM     24  O   UNL     1      35.317 -25.036 -10.193  0.00  0.00    -0.227 OA
BRANCH  23  25
ATOM     25  O   UNL     1      37.199 -25.268 -12.016  0.00  0.00    -0.303 OA
ATOM     26  H   UNL     1      37.561 -24.797 -12.783  0.00  0.00    +0.222 HD
ENDBRANCH  23  25
BRANCH  23  27
ATOM     27  O   UNL     1      36.507 -22.945 -11.267  0.00  0.00    -0.303 OA
ATOM     28  H   UNL     1      35.772 -22.314 -11.302  0.00  0.00    +0.222 HD
ENDBRANCH  23  27
ENDBRANCH  22  23
ENDBRANCH  21  22
ENDBRANCH  18  21
ENDBRANCH   2  15
BRANCH   6  29
ATOM     29  C   UNL     1      36.491 -17.863 -21.285  0.00  0.00    +0.117 C 
BRANCH  29  30
ATOM     30  C   UNL     1      35.636 -18.260 -22.449  0.00  0.00    -0.003 C 
ATOM     31  C   UNL     1      34.920 -17.316 -23.204  0.00  0.00    -0.002 C 
ATOM     32  C   UNL     1      34.129 -17.755 -24.292  0.00  0.00    -0.000 C 
ATOM     33  C   UNL     1      35.575 -19.617 -22.765  0.00  0.00    -0.003 C 
ATOM     34  C   UNL     1      34.969 -15.946 -22.900  0.00  0.00    -0.000 C 
ATOM     35  C   UNL     1      34.079 -19.126 -24.594  0.00  0.00    -0.000 C 
ATOM     36  C   UNL     1      34.799 -20.049 -23.835  0.00  0.00    -0.000 C 
ATOM     37  C   UNL     1      33.412 -16.812 -25.046  0.00  0.00    -0.000 C 
ATOM     38  C   UNL     1      34.251 -15.022 -23.659  0.00  0.00    -0.000 C 
ATOM     39  C   UNL     1      33.474 -15.455 -24.730  0.00  0.00    -0.000 C 
ENDBRANCH  29  30
ENDBRANCH   6  29
TORSDOF 9
ENDMDL
MODEL 7
REMARK VINA RESULT:     -10.2      2.435      3.853
REMARK  Name = 46937134
REMARK  9 active torsions:
REMARK  status: ('A' for Active; 'I' for Inactive)
REMARK    1  A    between atoms: N_2  and  C_15
REMARK    2  A    between atoms: N_6  and  C_29
REMARK    3  A    between atoms: C_16  and  O_19
REMARK    4  A    between atoms: C_18  and  C_21
REMARK    5  A    between atoms: C_21  and  O_22
REMARK    6  A    between atoms: O_22  and  P_23
REMARK    7  A    between atoms: P_23  and  O_25
REMARK    8  A    between atoms: P_23  and  O_27
REMARK    9  A    between atoms: C_29  and  C_30
REMARK                            x       y       z     vdW  Elec       q    Type
REMARK                         _______ _______ _______ _____ _____    ______ ____
ROOT
ATOM      1  O   UNL     1      30.283 -22.531 -16.500  0.00  0.00    -0.208 OA
ATOM      2  N   UNL     1      34.477 -23.824 -15.422  0.00  0.00    -0.209 NA
ATOM      3  N   UNL     1      34.228 -22.514 -17.456  0.00  0.00    -0.279 N 
ATOM      4  N   UNL     1      32.312 -23.873 -14.835  0.00  0.00    -0.241 NA
ATOM      5  N   UNL     1      31.968 -21.874 -17.949  0.00  0.00    -0.301 NA
ATOM      6  N   UNL     1      33.759 -21.277 -19.323  0.00  0.00    -0.292 N 
ATOM      7  C   UNL     1      33.787 -23.136 -16.359  0.00  0.00    +0.191 C 
ATOM      8  C   UNL     1      33.536 -24.255 -14.514  0.00  0.00    +0.205 C 
ATOM      9  C   UNL     1      32.472 -23.170 -15.995  0.00  0.00    +0.183 C 
ATOM     10  C   UNL     1      33.257 -21.886 -18.232  0.00  0.00    +0.248 C 
ATOM     11  C   UNL     1      31.468 -22.514 -16.808  0.00  0.00    +0.224 C 
ATOM     12  H   UNL     1      35.182 -22.501 -17.701  0.00  0.00    +0.152 HD
ATOM     13  H   UNL     1      34.729 -21.321 -19.481  0.00  0.00    +0.151 HD
ENDROOT
BRANCH   2  15
ATOM     14  O   UNL     1      36.262 -25.409 -14.891  0.00  0.00    -0.338 OA
ATOM     15  C   UNL     1      35.962 -24.082 -15.361  0.00  0.00    +0.182 C 
ATOM     16  C   UNL     1      37.921 -23.924 -14.054  0.00  0.00    +0.144 C 
ATOM     17  C   UNL     1      36.698 -23.121 -14.433  0.00  0.00    +0.079 C 
ATOM     18  C   UNL     1      37.387 -25.350 -13.991  0.00  0.00    +0.174 C 
BRANCH  16  19
ATOM     19  O   UNL     1      38.876 -23.818 -15.107  0.00  0.00    -0.382 OA
ATOM     20  H   UNL     1      39.214 -22.909 -15.146  0.00  0.00    +0.210 HD
ENDBRANCH  16  19
BRANCH  18  21
ATOM     21  C   UNL     1      36.896 -25.733 -12.601  0.00  0.00    +0.186 C 
BRANCH  21  22
ATOM     22  O   UNL     1      37.217 -24.685 -11.702  0.00  0.00    -0.271 OA
BRANCH  22  23
ATOM     23  P   UNL     1      36.038 -24.073 -10.776  0.00  0.00    +0.473 P 
ATOM     24  O   UNL     1      34.916 -23.420 -11.529  0.00  0.00    -0.227 OA
BRANCH  23  25
ATOM     25  O   UNL     1      35.605 -25.335  -9.863  0.00  0.00    -0.303 OA
ATOM     26  H   UNL     1      36.243 -26.056  -9.984  0.00  0.00    +0.222 HD
ENDBRANCH  23  25
BRANCH  23  27
ATOM     27  O   UNL     1      36.825 -23.114  -9.738  0.00  0.00    -0.303 OA
ATOM     28  H   UNL     1      36.875 -22.217 -10.102  0.00  0.00    +0.222 HD
ENDBRANCH  23  27
ENDBRANCH  22  23
ENDBRANCH  21  22
ENDBRANCH  18  21
ENDBRANCH   2  15
BRANCH   6  29
ATOM     29  C   UNL     1      32.937 -20.562 -20.272  0.00  0.00    +0.117 C 
BRANCH  29  30
ATOM     30  C   UNL     1      33.787 -19.820 -21.257  0.00  0.00    -0.003 C 
ATOM     31  C   UNL     1      35.144 -19.551 -21.016  0.00  0.00    -0.002 C 
ATOM     32  C   UNL     1      35.893 -18.844 -21.986  0.00  0.00    -0.000 C 
ATOM     33  C   UNL     1      33.178 -19.400 -22.440  0.00  0.00    -0.003 C 
ATOM     34  C   UNL     1      35.774 -19.966 -19.831  0.00  0.00    -0.000 C 
ATOM     35  C   UNL     1      35.263 -18.428 -23.170  0.00  0.00    -0.000 C 
ATOM     36  C   UNL     1      33.914 -18.706 -23.394  0.00  0.00    -0.000 C 
ATOM     37  C   UNL     1      37.250 -18.573 -21.744  0.00  0.00    -0.000 C 
ATOM     38  C   UNL     1      37.123 -19.689 -19.607  0.00  0.00    -0.000 C 
ATOM     39  C   UNL     1      37.859 -18.995 -20.562  0.00  0.00    -0.000 C 
ENDBRANCH  29  30
ENDBRANCH   6  29
TORSDOF 9
ENDMDL
MODEL 8
REMARK VINA RESULT:     -10.0      8.712     12.505
REMARK  Name = 46937134
REMARK  9 active torsions:
REMARK  status: ('A' for Active; 'I' for Inactive)
REMARK    1  A    between atoms: N_2  and  C_15
REMARK    2  A    between atoms: N_6  and  C_29
REMARK    3  A    between atoms: C_16  and  O_19
REMARK    4  A    between atoms: C_18  and  C_21
REMARK    5  A    between atoms: C_21  and  O_22
REMARK    6  A    between atoms: O_22  and  P_23
REMARK    7  A    between atoms: P_23  and  O_25
REMARK    8  A    between atoms: P_23  and  O_27
REMARK    9  A    between atoms: C_29  and  C_30
REMARK                            x       y       z     vdW  Elec       q    Type
REMARK                         _______ _______ _______ _____ _____    ______ ____
ROOT
ATOM      1  O   UNL     1      31.768  -8.062 -18.625  0.00  0.00    -0.208 OA
ATOM      2  N   UNL     1      32.340 -11.471 -21.535  0.00  0.00    -0.209 NA
ATOM      3  N   UNL     1      32.705  -9.227 -22.398  0.00  0.00    -0.279 N 
ATOM      4  N   UNL     1      31.813 -10.897 -19.431  0.00  0.00    -0.241 NA
ATOM      5  N   UNL     1      32.377  -7.481 -20.784  0.00  0.00    -0.301 NA
ATOM      6  N   UNL     1      32.994  -7.036 -22.991  0.00  0.00    -0.292 N 
ATOM      7  C   UNL     1      32.400 -10.123 -21.455  0.00  0.00    +0.191 C 
ATOM      8  C   UNL     1      31.978 -11.899 -20.277  0.00  0.00    +0.205 C 
ATOM      9  C   UNL     1      32.079  -9.781 -20.174  0.00  0.00    +0.183 C 
ATOM     10  C   UNL     1      32.678  -7.892 -22.002  0.00  0.00    +0.248 C 
ATOM     11  C   UNL     1      32.053  -8.390 -19.769  0.00  0.00    +0.224 C 
ATOM     12  H   UNL     1      32.935  -9.495 -23.318  0.00  0.00    +0.152 HD
ATOM     13  H   UNL     1      33.209  -7.402 -23.879  0.00  0.00    +0.151 HD
ENDROOT
BRANCH   2  15
ATOM     14  O   UNL     1      32.677 -13.741 -22.382  0.00  0.00    -0.338 OA
ATOM     15  C   UNL     1      32.607 -12.346 -22.734  0.00  0.00    +0.182 C 
ATOM     16  C   UNL     1      34.256 -13.323 -24.111  0.00  0.00    +0.144 C 
ATOM     17  C   UNL     1      33.920 -12.014 -23.436  0.00  0.00    +0.079 C 
ATOM     18  C   UNL     1      33.753 -14.361 -23.115  0.00  0.00    +0.174 C 
BRANCH  16  19
ATOM     19  O   UNL     1      33.504 -13.416 -25.319  0.00  0.00    -0.382 OA
ATOM     20  H   UNL     1      34.015 -13.031 -26.049  0.00  0.00    +0.210 HD
ENDBRANCH  16  19
BRANCH  18  21
ATOM     21  C   UNL     1      34.821 -14.782 -22.115  0.00  0.00    +0.186 C 
BRANCH  21  22
ATOM     22  O   UNL     1      35.547 -15.872 -22.658  0.00  0.00    -0.271 OA
BRANCH  22  23
ATOM     23  P   UNL     1      35.517 -17.288 -21.874  0.00  0.00    +0.473 P 
ATOM     24  O   UNL     1      35.196 -17.195 -20.411  0.00  0.00    -0.227 OA
BRANCH  23  25
ATOM     25  O   UNL     1      34.476 -18.163 -22.748  0.00  0.00    -0.303 OA
ATOM     26  H   UNL     1      34.710 -18.100 -23.687  0.00  0.00    +0.222 HD
ENDBRANCH  23  25
BRANCH  23  27
ATOM     27  O   UNL     1      36.950 -17.951 -22.227  0.00  0.00    -0.303 OA
ATOM     28  H   UNL     1      37.660 -17.381 -21.893  0.00  0.00    +0.222 HD
ENDBRANCH  23  27
ENDBRANCH  22  23
ENDBRANCH  21  22
ENDBRANCH  18  21
ENDBRANCH   2  15
BRANCH   6  29
ATOM     29  C   UNL     1      33.031  -5.603 -22.809  0.00  0.00    +0.117 C 
BRANCH  29  30
ATOM     30  C   UNL     1      33.392  -4.914 -24.089  0.00  0.00    -0.003 C 
ATOM     31  C   UNL     1      32.584  -3.912 -24.649  0.00  0.00    -0.002 C 
ATOM     32  C   UNL     1      32.981  -3.300 -25.863  0.00  0.00    -0.000 C 
ATOM     33  C   UNL     1      34.576  -5.306 -24.715  0.00  0.00    -0.003 C 
ATOM     34  C   UNL     1      31.390  -3.504 -24.034  0.00  0.00    -0.000 C 
ATOM     35  C   UNL     1      34.175  -3.709 -26.479  0.00  0.00    -0.000 C 
ATOM     36  C   UNL     1      34.967  -4.705 -25.907  0.00  0.00    -0.000 C 
ATOM     37  C   UNL     1      32.172  -2.298 -26.424  0.00  0.00    -0.000 C 
ATOM     38  C   UNL     1      30.598  -2.507 -24.605  0.00  0.00    -0.000 C 
ATOM     39  C   UNL     1      30.990  -1.905 -25.797  0.00  0.00    -0.000 C 
ENDBRANCH  29  30
ENDBRANCH   6  29
TORSDOF 9
ENDMDL
MODEL 9
REMARK VINA RESULT:      -9.8      4.284      6.819
REMARK  Name = 46937134
REMARK  9 active torsions:
REMARK  status: ('A' for Active; 'I' for Inactive)
REMARK    1  A    between atoms: N_2  and  C_15
REMARK    2  A    between atoms: N_6  and  C_29
REMARK    3  A    between atoms: C_16  and  O_19
REMARK    4  A    between atoms: C_18  and  C_21
REMARK    5  A    between atoms: C_21  and  O_22
REMARK    6  A    between atoms: O_22  and  P_23
REMARK    7  A    between atoms: P_23  and  O_25
REMARK    8  A    between atoms: P_23  and  O_27
REMARK    9  A    between atoms: C_29  and  C_30
REMARK                            x       y       z     vdW  Elec       q    Type
REMARK                         _______ _______ _______ _____ _____    ______ ____
ROOT
ATOM      1  O   UNL     1      32.690 -15.266 -26.161  0.00  0.00    -0.208 OA
ATOM      2  N   UNL     1      34.905 -17.957 -23.284  0.00  0.00    -0.209 NA
ATOM      3  N   UNL     1      34.953 -15.573 -22.806  0.00  0.00    -0.279 N 
ATOM      4  N   UNL     1      33.658 -17.859 -25.147  0.00  0.00    -0.241 NA
ATOM      5  N   UNL     1      33.753 -14.222 -24.386  0.00  0.00    -0.301 NA
ATOM      6  N   UNL     1      34.865 -13.300 -22.552  0.00  0.00    -0.292 N 
ATOM      7  C   UNL     1      34.610 -16.656 -23.508  0.00  0.00    +0.191 C 
ATOM      8  C   UNL     1      34.304 -18.652 -24.309  0.00  0.00    +0.205 C 
ATOM      9  C   UNL     1      33.851 -16.605 -24.640  0.00  0.00    +0.183 C 
ATOM     10  C   UNL     1      34.489 -14.355 -23.298  0.00  0.00    +0.248 C 
ATOM     11  C   UNL     1      33.373 -15.334 -25.147  0.00  0.00    +0.224 C 
ATOM     12  H   UNL     1      35.502 -15.631 -21.989  0.00  0.00    +0.152 HD
ATOM     13  H   UNL     1      35.416 -13.463 -21.752  0.00  0.00    +0.151 HD
ENDROOT
BRANCH   2  15
ATOM     14  O   UNL     1      35.268 -19.867 -21.801  0.00  0.00    -0.338 OA
ATOM     15  C   UNL     1      35.719 -18.547 -22.160  0.00  0.00    +0.182 C 
ATOM     16  C   UNL     1      35.965 -18.747 -19.822  0.00  0.00    +0.144 C 
ATOM     17  C   UNL     1      35.669 -17.713 -20.884  0.00  0.00    +0.079 C 
ATOM     18  C   UNL     1      35.289 -20.000 -20.365  0.00  0.00    +0.174 C 
BRANCH  16  19
ATOM     19  O   UNL     1      37.375 -18.950 -19.768  0.00  0.00    -0.382 OA
ATOM     20  H   UNL     1      37.562 -19.805 -19.349  0.00  0.00    +0.210 HD
ENDBRANCH  16  19
BRANCH  18  21
ATOM     21  C   UNL     1      33.850 -20.146 -19.887  0.00  0.00    +0.186 C 
BRANCH  21  22
ATOM     22  O   UNL     1      33.510 -21.522 -19.888  0.00  0.00    -0.271 OA
BRANCH  22  23
ATOM     23  P   UNL     1      33.815 -22.395 -18.559  0.00  0.00    +0.473 P 
ATOM     24  O   UNL     1      35.004 -21.943 -17.763  0.00  0.00    -0.227 OA
BRANCH  23  25
ATOM     25  O   UNL     1      32.406 -22.351 -17.767  0.00  0.00    -0.303 OA
ATOM     26  H   UNL     1      32.365 -21.547 -17.225  0.00  0.00    +0.222 HD
ENDBRANCH  23  25
BRANCH  23  27
ATOM     27  O   UNL     1      33.886 -23.915 -19.107  0.00  0.00    -0.303 OA
ATOM     28  H   UNL     1      33.835 -23.912 -20.076  0.00  0.00    +0.222 HD
ENDBRANCH  23  27
ENDBRANCH  22  23
ENDBRANCH  21  22
ENDBRANCH  18  21
ENDBRANCH   2  15
BRANCH   6  29
ATOM     29  C   UNL     1      34.499 -11.940 -22.873  0.00  0.00    +0.117 C 
BRANCH  29  30
ATOM     30  C   UNL     1      33.267 -11.532 -22.126  0.00  0.00    -0.003 C 
ATOM     31  C   UNL     1      32.734 -10.236 -22.220  0.00  0.00    -0.002 C 
ATOM     32  C   UNL     1      31.566  -9.912 -21.488  0.00  0.00    -0.000 C 
ATOM     33  C   UNL     1      32.655 -12.496 -21.325  0.00  0.00    -0.003 C 
ATOM     34  C   UNL     1      33.336  -9.252 -23.022  0.00  0.00    -0.000 C 
ATOM     35  C   UNL     1      30.966 -10.895 -20.685  0.00  0.00    -0.000 C 
ATOM     36  C   UNL     1      31.507 -12.179 -20.606  0.00  0.00    -0.000 C 
ATOM     37  C   UNL     1      31.034  -8.616 -21.580  0.00  0.00    -0.000 C 
ATOM     38  C   UNL     1      32.794  -7.969 -23.102  0.00  0.00    -0.000 C 
ATOM     39  C   UNL     1      31.645  -7.652 -22.383  0.00  0.00    -0.000 C 
ENDBRANCH  29  30
ENDBRANCH   6  29
TORSDOF 9
ENDMDL
