MODEL 1
REMARK VINA RESULT:     -12.0      0.000      0.000
REMARK  Name = 124173720
REMARK  4 active torsions:
REMARK  status: ('A' for Active; 'I' for Inactive)
REMARK    1  A    between atoms: C_13  and  N_24
REMARK    2  A    between atoms: C_18  and  C_23
REMARK    3  A    between atoms: N_24  and  C_26
REMARK    4  A    between atoms: C_26  and  C_30
REMARK                            x       y       z     vdW  Elec       q    Type
REMARK                         _______ _______ _______ _____ _____    ______ ____
ROOT
ATOM      1  O   UNL     1      32.434 -22.521 -18.010  0.00  0.00    -0.473 OA
ATOM      2  N   UNL     1      33.918 -23.658 -15.623  0.00  0.00    -0.272 N 
ATOM      3  N   UNL     1      36.098 -23.342 -15.725  0.00  0.00    -0.374 NA
ATOM      4  C   UNL     1      35.803 -24.123 -14.644  0.00  0.00    +0.190 C 
ATOM      5  C   UNL     1      34.946 -23.062 -16.326  0.00  0.00    +0.188 C 
ATOM      6  C   UNL     1      32.496 -23.623 -15.890  0.00  0.00    +0.141 C 
ATOM      7  C   UNL     1      34.454 -24.338 -14.559  0.00  0.00    +0.169 C 
ATOM      8  C   UNL     1      34.845 -22.239 -17.548  0.00  0.00    +0.078 C 
ATOM      9  C   UNL     1      32.063 -22.385 -16.641  0.00  0.00    +0.227 C 
ATOM     10  C   UNL     1      33.677 -22.027 -18.300  0.00  0.00    +0.144 C 
ATOM     11  C   UNL     1      36.034 -21.646 -18.025  0.00  0.00    +0.008 C 
ATOM     12  C   UNL     1      33.719 -21.295 -19.500  0.00  0.00    +0.051 C 
ATOM     13  C   UNL     1      34.907 -20.727 -19.947  0.00  0.00    +0.048 C 
ATOM     14  C   UNL     1      36.067 -20.897 -19.205  0.00  0.00    +0.015 C 
ATOM     15  O   UNL     1      38.794 -25.155 -12.963  0.00  0.00    -0.432 OA
ATOM     16  O   UNL     1      38.709 -23.617 -14.656  0.00  0.00    -0.226 OA
ATOM     17  N   UNL     1      36.760 -24.610 -13.787  0.00  0.00    -0.194 N 
ATOM     18  C   UNL     1      36.508 -25.442 -12.631  0.00  0.00    +0.195 C 
ATOM     19  C   UNL     1      37.859 -26.098 -12.427  0.00  0.00    +0.236 C 
ATOM     20  C   UNL     1      38.134 -24.379 -13.890  0.00  0.00    +0.411 C 
ENDROOT
BRANCH  18  23
ATOM     21  F   UNL     1      36.422 -23.324 -11.638  0.00  0.00    -0.196 F 
ATOM     22  F   UNL     1      34.749 -24.673 -11.292  0.00  0.00    -0.196 F 
ATOM     23  C   UNL     1      36.091 -24.613 -11.417  0.00  0.00    +0.340 C 
ENDBRANCH  18  23
BRANCH  13  24
ATOM     24  N   UNL     1      34.932 -19.984 -21.144  0.00  0.00    -0.327 N 
ATOM     25  H   UNL     1      34.603 -20.409 -21.968  0.00  0.00    +0.147 HD
BRANCH  24  26
ATOM     26  C   UNL     1      35.414 -18.638 -21.215  0.00  0.00    +0.146 C 
ATOM     27  C   UNL     1      36.929 -18.634 -21.073  0.00  0.00    +0.031 C 
BRANCH  26  30
ATOM     28  O   UNL     1      34.152 -18.526 -23.284  0.00  0.00    -0.274 OA
ATOM     29  N   UNL     1      35.654 -16.851 -22.824  0.00  0.00    -0.327 N 
ATOM     30  C   UNL     1      34.994 -18.027 -22.541  0.00  0.00    +0.237 C 
ATOM     31  H   UNL     1      35.461 -16.367 -23.659  0.00  0.00    +0.145 HD
ATOM     32  H   UNL     1      36.319 -16.494 -22.191  0.00  0.00    +0.145 HD
ENDBRANCH  26  30
ENDBRANCH  24  26
ENDBRANCH  13  24
TORSDOF 4
ENDMDL
MODEL 2
REMARK VINA RESULT:     -11.7      3.927      8.907
REMARK  Name = 124173720
REMARK  4 active torsions:
REMARK  status: ('A' for Active; 'I' for Inactive)
REMARK    1  A    between atoms: C_13  and  N_24
REMARK    2  A    between atoms: C_18  and  C_23
REMARK    3  A    between atoms: N_24  and  C_26
REMARK    4  A    between atoms: C_26  and  C_30
REMARK                            x       y       z     vdW  Elec       q    Type
REMARK                         _______ _______ _______ _____ _____    ______ ____
ROOT
ATOM      1  O   UNL     1      33.720 -23.046 -16.200  0.00  0.00    -0.473 OA
ATOM      2  N   UNL     1      33.896 -21.403 -18.743  0.00  0.00    -0.272 N 
ATOM      3  N   UNL     1      35.887 -20.509 -19.062  0.00  0.00    -0.374 NA
ATOM      4  C   UNL     1      35.025 -20.053 -20.020  0.00  0.00    +0.190 C 
ATOM      5  C   UNL     1      35.195 -21.330 -18.279  0.00  0.00    +0.188 C 
ATOM      6  C   UNL     1      32.788 -22.176 -18.222  0.00  0.00    +0.141 C 
ATOM      7  C   UNL     1      33.779 -20.591 -19.842  0.00  0.00    +0.169 C 
ATOM      8  C   UNL     1      35.777 -22.025 -17.113  0.00  0.00    +0.078 C 
ATOM      9  C   UNL     1      33.227 -23.419 -17.483  0.00  0.00    +0.227 C 
ATOM     10  C   UNL     1      35.065 -22.791 -16.175  0.00  0.00    +0.144 C 
ATOM     11  C   UNL     1      37.164 -21.875 -16.900  0.00  0.00    +0.008 C 
ATOM     12  C   UNL     1      35.713 -23.333 -15.051  0.00  0.00    +0.051 C 
ATOM     13  C   UNL     1      37.081 -23.164 -14.866  0.00  0.00    +0.048 C 
ATOM     14  C   UNL     1      37.810 -22.437 -15.796  0.00  0.00    +0.015 C 
ATOM     15  O   UNL     1      36.637 -17.669 -22.153  0.00  0.00    -0.432 OA
ATOM     16  O   UNL     1      37.700 -18.939 -20.573  0.00  0.00    -0.226 OA
ATOM     17  N   UNL     1      35.398 -19.172 -21.006  0.00  0.00    -0.194 N 
ATOM     18  C   UNL     1      34.531 -18.654 -22.041  0.00  0.00    +0.195 C 
ATOM     19  C   UNL     1      35.264 -17.391 -22.448  0.00  0.00    +0.236 C 
ATOM     20  C   UNL     1      36.677 -18.634 -21.171  0.00  0.00    +0.411 C 
ENDROOT
BRANCH  18  23
ATOM     21  F   UNL     1      33.726 -19.024 -24.207  0.00  0.00    -0.196 F 
ATOM     22  F   UNL     1      35.628 -19.932 -23.667  0.00  0.00    -0.196 F 
ATOM     23  C   UNL     1      34.396 -19.632 -23.208  0.00  0.00    +0.340 C 
ENDBRANCH  18  23
BRANCH  13  24
ATOM     24  N   UNL     1      37.720 -23.725 -13.743  0.00  0.00    -0.327 N 
ATOM     25  H   UNL     1      38.692 -23.873 -13.781  0.00  0.00    +0.147 HD
BRANCH  24  26
ATOM     26  C   UNL     1      37.019 -24.091 -12.550  0.00  0.00    +0.146 C 
ATOM     27  C   UNL     1      37.295 -25.552 -12.227  0.00  0.00    +0.031 C 
BRANCH  26  30
ATOM     28  O   UNL     1      38.312 -22.305 -11.537  0.00  0.00    -0.274 OA
ATOM     29  N   UNL     1      36.831 -23.468 -10.223  0.00  0.00    -0.327 N 
ATOM     30  C   UNL     1      37.469 -23.191 -11.412  0.00  0.00    +0.237 C 
ATOM     31  H   UNL     1      37.045 -22.947  -9.416  0.00  0.00    +0.145 HD
ATOM     32  H   UNL     1      36.161 -24.189 -10.179  0.00  0.00    +0.145 HD
ENDBRANCH  26  30
ENDBRANCH  24  26
ENDBRANCH  13  24
TORSDOF 4
ENDMDL
MODEL 3
REMARK VINA RESULT:     -11.4      3.856      6.179
REMARK  Name = 124173720
REMARK  4 active torsions:
REMARK  status: ('A' for Active; 'I' for Inactive)
REMARK    1  A    between atoms: C_13  and  N_24
REMARK    2  A    between atoms: C_18  and  C_23
REMARK    3  A    between atoms: N_24  and  C_26
REMARK    4  A    between atoms: C_26  and  C_30
REMARK                            x       y       z     vdW  Elec       q    Type
REMARK                         _______ _______ _______ _____ _____    ______ ____
ROOT
ATOM      1  O   UNL     1      32.482 -22.369 -17.170  0.00  0.00    -0.473 OA
ATOM      2  N   UNL     1      34.887 -23.247 -15.545  0.00  0.00    -0.272 N 
ATOM      3  N   UNL     1      34.376 -23.815 -13.476  0.00  0.00    -0.374 NA
ATOM      4  C   UNL     1      35.734 -23.837 -13.631  0.00  0.00    +0.190 C 
ATOM      5  C   UNL     1      33.860 -23.450 -14.645  0.00  0.00    +0.188 C 
ATOM      6  C   UNL     1      34.811 -22.855 -16.937  0.00  0.00    +0.141 C 
ATOM      7  C   UNL     1      36.078 -23.484 -14.908  0.00  0.00    +0.169 C 
ATOM      8  C   UNL     1      32.410 -23.301 -14.883  0.00  0.00    +0.078 C 
ATOM      9  C   UNL     1      33.512 -23.256 -17.597  0.00  0.00    +0.227 C 
ATOM     10  C   UNL     1      31.818 -22.788 -16.049  0.00  0.00    +0.144 C 
ATOM     11  C   UNL     1      31.543 -23.670 -13.831  0.00  0.00    +0.008 C 
ATOM     12  C   UNL     1      30.425 -22.609 -16.128  0.00  0.00    +0.051 C 
ATOM     13  C   UNL     1      29.598 -22.977 -15.073  0.00  0.00    +0.048 C 
ATOM     14  C   UNL     1      30.158 -23.515 -13.923  0.00  0.00    +0.015 C 
ATOM     15  O   UNL     1      37.357 -24.627 -10.537  0.00  0.00    -0.432 OA
ATOM     16  O   UNL     1      35.098 -24.735 -10.895  0.00  0.00    -0.226 OA
ATOM     17  N   UNL     1      36.599 -24.168 -12.617  0.00  0.00    -0.194 N 
ATOM     18  C   UNL     1      38.041 -24.206 -12.722  0.00  0.00    +0.195 C 
ATOM     19  C   UNL     1      38.455 -24.073 -11.270  0.00  0.00    +0.236 C 
ATOM     20  C   UNL     1      36.227 -24.526 -11.319  0.00  0.00    +0.411 C 
ENDROOT
BRANCH  18  23
ATOM     21  F   UNL     1      39.836 -25.674 -13.036  0.00  0.00    -0.196 F 
ATOM     22  F   UNL     1      37.858 -26.539 -12.763  0.00  0.00    -0.196 F 
ATOM     23  C   UNL     1      38.530 -25.518 -13.333  0.00  0.00    +0.340 C 
ENDBRANCH  18  23
BRANCH  13  24
ATOM     24  N   UNL     1      28.203 -22.806 -15.171  0.00  0.00    -0.327 N 
ATOM     25  H   UNL     1      27.656 -22.937 -14.364  0.00  0.00    +0.147 HD
BRANCH  24  26
ATOM     26  C   UNL     1      27.547 -22.450 -16.392  0.00  0.00    +0.146 C 
ATOM     27  C   UNL     1      27.438 -23.677 -17.286  0.00  0.00    +0.031 C 
BRANCH  26  30
ATOM     28  O   UNL     1      25.569 -22.118 -15.026  0.00  0.00    -0.274 OA
ATOM     29  N   UNL     1      25.667 -21.096 -17.080  0.00  0.00    -0.327 N 
ATOM     30  C   UNL     1      26.171 -21.890 -16.073  0.00  0.00    +0.237 C 
ATOM     31  H   UNL     1      24.781 -20.679 -16.982  0.00  0.00    +0.145 HD
ATOM     32  H   UNL     1      26.194 -20.945 -17.899  0.00  0.00    +0.145 HD
ENDBRANCH  26  30
ENDBRANCH  24  26
ENDBRANCH  13  24
TORSDOF 4
ENDMDL
MODEL 4
REMARK VINA RESULT:     -11.1      7.601     11.732
REMARK  Name = 124173720
REMARK  4 active torsions:
REMARK  status: ('A' for Active; 'I' for Inactive)
REMARK    1  A    between atoms: C_13  and  N_24
REMARK    2  A    between atoms: C_18  and  C_23
REMARK    3  A    between atoms: N_24  and  C_26
REMARK    4  A    between atoms: C_26  and  C_30
REMARK                            x       y       z     vdW  Elec       q    Type
REMARK                         _______ _______ _______ _____ _____    ______ ____
ROOT
ATOM      1  O   UNL     1      33.601 -11.969 -25.570  0.00  0.00    -0.473 OA
ATOM      2  N   UNL     1      34.359 -14.673 -24.425  0.00  0.00    -0.272 N 
ATOM      3  N   UNL     1      34.475 -14.680 -22.223  0.00  0.00    -0.374 NA
ATOM      4  C   UNL     1      34.898 -15.887 -22.704  0.00  0.00    +0.190 C 
ATOM      5  C   UNL     1      34.151 -13.937 -23.275  0.00  0.00    +0.188 C 
ATOM      6  C   UNL     1      34.135 -14.287 -25.802  0.00  0.00    +0.141 C 
ATOM      7  C   UNL     1      34.839 -15.908 -24.071  0.00  0.00    +0.169 C 
ATOM      8  C   UNL     1      33.652 -12.550 -23.169  0.00  0.00    +0.078 C 
ATOM      9  C   UNL     1      33.066 -13.231 -25.958  0.00  0.00    +0.227 C 
ATOM     10  C   UNL     1      33.426 -11.675 -24.245  0.00  0.00    +0.144 C 
ATOM     11  C   UNL     1      33.419 -12.047 -21.871  0.00  0.00    +0.008 C 
ATOM     12  C   UNL     1      33.035 -10.344 -24.017  0.00  0.00    +0.051 C 
ATOM     13  C   UNL     1      32.819  -9.876 -22.726  0.00  0.00    +0.048 C 
ATOM     14  C   UNL     1      33.006 -10.731 -21.649  0.00  0.00    +0.015 C 
ATOM     15  O   UNL     1      36.000 -18.008 -20.035  0.00  0.00    -0.432 OA
ATOM     16  O   UNL     1      34.941 -15.998 -19.757  0.00  0.00    -0.226 OA
ATOM     17  N   UNL     1      35.320 -16.912 -21.892  0.00  0.00    -0.194 N 
ATOM     18  C   UNL     1      35.780 -18.207 -22.344  0.00  0.00    +0.195 C 
ATOM     19  C   UNL     1      36.596 -18.671 -21.155  0.00  0.00    +0.236 C 
ATOM     20  C   UNL     1      35.373 -16.871 -20.497  0.00  0.00    +0.411 C 
ENDROOT
BRANCH  18  23
ATOM     21  F   UNL     1      34.994 -20.025 -23.590  0.00  0.00    -0.196 F 
ATOM     22  F   UNL     1      34.341 -19.859 -21.521  0.00  0.00    -0.196 F 
ATOM     23  C   UNL     1      34.614 -19.151 -22.636  0.00  0.00    +0.340 C 
ENDBRANCH  18  23
BRANCH  13  24
ATOM     24  N   UNL     1      32.413  -8.543 -22.512  0.00  0.00    -0.327 N 
ATOM     25  H   UNL     1      31.530  -8.262 -22.843  0.00  0.00    +0.147 HD
BRANCH  24  26
ATOM     26  C   UNL     1      33.228  -7.580 -21.837  0.00  0.00    +0.146 C 
ATOM     27  C   UNL     1      33.426  -6.366 -22.732  0.00  0.00    +0.031 C 
BRANCH  26  30
ATOM     28  O   UNL     1      31.428  -6.705 -20.466  0.00  0.00    -0.274 OA
ATOM     29  N   UNL     1      33.344  -7.428 -19.428  0.00  0.00    -0.327 N 
ATOM     30  C   UNL     1      32.557  -7.186 -20.532  0.00  0.00    +0.237 C 
ATOM     31  H   UNL     1      33.011  -7.211 -18.528  0.00  0.00    +0.145 HD
ATOM     32  H   UNL     1      34.242  -7.819 -19.538  0.00  0.00    +0.145 HD
ENDBRANCH  26  30
ENDBRANCH  24  26
ENDBRANCH  13  24
TORSDOF 4
ENDMDL
MODEL 5
REMARK VINA RESULT:      -9.9     10.874     14.506
REMARK  Name = 124173720
REMARK  4 active torsions:
REMARK  status: ('A' for Active; 'I' for Inactive)
REMARK    1  A    between atoms: C_13  and  N_24
REMARK    2  A    between atoms: C_18  and  C_23
REMARK    3  A    between atoms: N_24  and  C_26
REMARK    4  A    between atoms: C_26  and  C_30
REMARK                            x       y       z     vdW  Elec       q    Type
REMARK                         _______ _______ _______ _____ _____    ______ ____
ROOT
ATOM      1  O   UNL     1      31.387  -9.646 -19.768  0.00  0.00    -0.473 OA
ATOM      2  N   UNL     1      32.503 -12.093 -21.169  0.00  0.00    -0.272 N 
ATOM      3  N   UNL     1      32.908 -11.757 -23.311  0.00  0.00    -0.374 NA
ATOM      4  C   UNL     1      33.115 -13.074 -23.011  0.00  0.00    +0.190 C 
ATOM      5  C   UNL     1      32.529 -11.159 -22.186  0.00  0.00    +0.188 C 
ATOM      6  C   UNL     1      32.165 -11.907 -19.774  0.00  0.00    +0.141 C 
ATOM      7  C   UNL     1      32.867 -13.310 -21.686  0.00  0.00    +0.169 C 
ATOM      8  C   UNL     1      32.201  -9.721 -22.100  0.00  0.00    +0.078 C 
ATOM      9  C   UNL     1      32.419 -10.499 -19.284  0.00  0.00    +0.227 C 
ATOM     10  C   UNL     1      31.666  -9.068 -20.977  0.00  0.00    +0.144 C 
ATOM     11  C   UNL     1      32.407  -8.943 -23.259  0.00  0.00    +0.008 C 
ATOM     12  C   UNL     1      31.308  -7.710 -21.040  0.00  0.00    +0.051 C 
ATOM     13  C   UNL     1      31.518  -6.970 -22.199  0.00  0.00    +0.048 C 
ATOM     14  C   UNL     1      32.075  -7.587 -23.310  0.00  0.00    +0.015 C 
ATOM     15  O   UNL     1      33.977 -14.930 -25.950  0.00  0.00    -0.432 OA
ATOM     16  O   UNL     1      33.802 -12.651 -25.848  0.00  0.00    -0.226 OA
ATOM     17  N   UNL     1      33.513 -14.002 -23.942  0.00  0.00    -0.194 N 
ATOM     18  C   UNL     1      33.745 -15.406 -23.684  0.00  0.00    +0.195 C 
ATOM     19  C   UNL     1      33.605 -15.998 -25.072  0.00  0.00    +0.236 C 
ATOM     20  C   UNL     1      33.762 -13.740 -25.292  0.00  0.00    +0.411 C 
ENDROOT
BRANCH  18  23
ATOM     21  F   UNL     1      35.043 -15.672 -21.754  0.00  0.00    -0.196 F 
ATOM     22  F   UNL     1      35.564 -16.868 -23.497  0.00  0.00    -0.196 F 
ATOM     23  C   UNL     1      35.135 -15.652 -23.099  0.00  0.00    +0.340 C 
ENDBRANCH  18  23
BRANCH  13  24
ATOM     24  N   UNL     1      31.169  -5.606 -22.243  0.00  0.00    -0.327 N 
ATOM     25  H   UNL     1      30.218  -5.367 -22.325  0.00  0.00    +0.147 HD
BRANCH  24  26
ATOM     26  C   UNL     1      32.135  -4.553 -22.176  0.00  0.00    +0.146 C 
ATOM     27  C   UNL     1      32.618  -4.215 -23.579  0.00  0.00    +0.031 C 
BRANCH  26  30
ATOM     28  O   UNL     1      32.113  -2.577 -20.768  0.00  0.00    -0.274 OA
ATOM     29  N   UNL     1      30.176  -3.177 -21.844  0.00  0.00    -0.327 N 
ATOM     30  C   UNL     1      31.504  -3.339 -21.515  0.00  0.00    +0.237 C 
ATOM     31  H   UNL     1      29.664  -2.423 -21.472  0.00  0.00    +0.145 HD
ATOM     32  H   UNL     1      29.737  -3.818 -22.450  0.00  0.00    +0.145 HD
ENDBRANCH  26  30
ENDBRANCH  24  26
ENDBRANCH  13  24
TORSDOF 4
ENDMDL
MODEL 6
REMARK VINA RESULT:      -9.8     11.337     15.184
REMARK  Name = 124173720
REMARK  4 active torsions:
REMARK  status: ('A' for Active; 'I' for Inactive)
REMARK    1  A    between atoms: C_13  and  N_24
REMARK    2  A    between atoms: C_18  and  C_23
REMARK    3  A    between atoms: N_24  and  C_26
REMARK    4  A    between atoms: C_26  and  C_30
REMARK                            x       y       z     vdW  Elec       q    Type
REMARK                         _______ _______ _______ _____ _____    ______ ____
ROOT
ATOM      1  O   UNL     1      31.435  -8.646 -19.651  0.00  0.00    -0.473 OA
ATOM      2  N   UNL     1      32.352 -11.158 -21.080  0.00  0.00    -0.272 N 
ATOM      3  N   UNL     1      33.000 -10.788 -23.155  0.00  0.00    -0.374 NA
ATOM      4  C   UNL     1      33.004 -12.132 -22.911  0.00  0.00    +0.190 C 
ATOM      5  C   UNL     1      32.597 -10.194 -22.037  0.00  0.00    +0.188 C 
ATOM      6  C   UNL     1      31.908 -10.988 -19.712  0.00  0.00    +0.141 C 
ATOM      7  C   UNL     1      32.602 -12.390 -21.629  0.00  0.00    +0.169 C 
ATOM      8  C   UNL     1      32.452  -8.730 -21.901  0.00  0.00    +0.078 C 
ATOM      9  C   UNL     1      32.296  -9.651 -19.124  0.00  0.00    +0.227 C 
ATOM     10  C   UNL     1      31.901  -8.059 -20.796  0.00  0.00    +0.144 C 
ATOM     11  C   UNL     1      32.868  -7.937 -22.993  0.00  0.00    +0.008 C 
ATOM     12  C   UNL     1      31.732  -6.663 -20.815  0.00  0.00    +0.051 C 
ATOM     13  C   UNL     1      32.147  -5.910 -21.908  0.00  0.00    +0.048 C 
ATOM     14  C   UNL     1      32.722  -6.547 -22.998  0.00  0.00    +0.015 C 
ATOM     15  O   UNL     1      33.895 -13.960 -25.860  0.00  0.00    -0.432 OA
ATOM     16  O   UNL     1      34.009 -11.684 -25.648  0.00  0.00    -0.226 OA
ATOM     17  N   UNL     1      33.366 -13.065 -23.853  0.00  0.00    -0.194 N 
ATOM     18  C   UNL     1      33.387 -14.497 -23.653  0.00  0.00    +0.195 C 
ATOM     19  C   UNL     1      33.304 -15.004 -25.079  0.00  0.00    +0.236 C 
ATOM     20  C   UNL     1      33.775 -12.781 -25.159  0.00  0.00    +0.411 C 
ENDROOT
BRANCH  18  23
ATOM     21  F   UNL     1      34.388 -15.254 -21.678  0.00  0.00    -0.196 F 
ATOM     22  F   UNL     1      35.106 -16.082 -23.558  0.00  0.00    -0.196 F 
ATOM     23  C   UNL     1      34.670 -14.953 -22.962  0.00  0.00    +0.340 C 
ENDBRANCH  18  23
BRANCH  13  24
ATOM     24  N   UNL     1      31.984  -4.510 -21.908  0.00  0.00    -0.327 N 
ATOM     25  H   UNL     1      32.726  -3.951 -21.582  0.00  0.00    +0.147 HD
BRANCH  24  26
ATOM     26  C   UNL     1      30.789  -3.866 -22.359  0.00  0.00    +0.146 C 
ATOM     27  C   UNL     1      30.366  -2.812 -21.346  0.00  0.00    +0.031 C 
BRANCH  26  30
ATOM     28  O   UNL     1      32.102  -3.353 -24.334  0.00  0.00    -0.274 OA
ATOM     29  N   UNL     1      29.967  -2.521 -24.191  0.00  0.00    -0.327 N 
ATOM     30  C   UNL     1      31.045  -3.236 -23.718  0.00  0.00    +0.237 C 
ATOM     31  H   UNL     1      30.020  -2.068 -25.064  0.00  0.00    +0.145 HD
ATOM     32  H   UNL     1      29.142  -2.462 -23.657  0.00  0.00    +0.145 HD
ENDBRANCH  26  30
ENDBRANCH  24  26
ENDBRANCH  13  24
TORSDOF 4
ENDMDL
MODEL 7
REMARK VINA RESULT:      -9.6      8.061     13.760
REMARK  Name = 124173720
REMARK  4 active torsions:
REMARK  status: ('A' for Active; 'I' for Inactive)
REMARK    1  A    between atoms: C_13  and  N_24
REMARK    2  A    between atoms: C_18  and  C_23
REMARK    3  A    between atoms: N_24  and  C_26
REMARK    4  A    between atoms: C_26  and  C_30
REMARK                            x       y       z     vdW  Elec       q    Type
REMARK                         _______ _______ _______ _____ _____    ______ ____
ROOT
ATOM      1  O   UNL     1      34.059 -14.865 -25.604  0.00  0.00    -0.473 OA
ATOM      2  N   UNL     1      33.314 -12.067 -24.703  0.00  0.00    -0.272 N 
ATOM      3  N   UNL     1      33.305 -11.836 -22.510  0.00  0.00    -0.374 NA
ATOM      4  C   UNL     1      32.839 -10.689 -23.089  0.00  0.00    +0.190 C 
ATOM      5  C   UNL     1      33.590 -12.679 -23.496  0.00  0.00    +0.188 C 
ATOM      6  C   UNL     1      33.476 -12.588 -26.044  0.00  0.00    +0.141 C 
ATOM      7  C   UNL     1      32.831 -10.808 -24.452  0.00  0.00    +0.169 C 
ATOM      8  C   UNL     1      34.116 -14.042 -23.275  0.00  0.00    +0.078 C 
ATOM      9  C   UNL     1      34.554 -13.643 -26.144  0.00  0.00    +0.227 C 
ATOM     10  C   UNL     1      34.303 -15.019 -24.266  0.00  0.00    +0.144 C 
ATOM     11  C   UNL     1      34.420 -14.407 -21.946  0.00  0.00    +0.008 C 
ATOM     12  C   UNL     1      34.727 -16.316 -23.924  0.00  0.00    +0.051 C 
ATOM     13  C   UNL     1      35.014 -16.647 -22.605  0.00  0.00    +0.048 C 
ATOM     14  C   UNL     1      34.866 -15.688 -21.613  0.00  0.00    +0.015 C 
ATOM     15  O   UNL     1      31.833  -8.320 -20.598  0.00  0.00    -0.432 OA
ATOM     16  O   UNL     1      32.938 -10.279 -20.170  0.00  0.00    -0.226 OA
ATOM     17  N   UNL     1      32.440  -9.592 -22.366  0.00  0.00    -0.194 N 
ATOM     18  C   UNL     1      31.937  -8.355 -22.923  0.00  0.00    +0.195 C 
ATOM     19  C   UNL     1      31.172  -7.781 -21.747  0.00  0.00    +0.236 C 
ATOM     20  C   UNL     1      32.456  -9.490 -20.972  0.00  0.00    +0.411 C 
ENDROOT
BRANCH  18  23
ATOM     21  F   UNL     1      32.714  -6.157 -23.117  0.00  0.00    -0.196 F 
ATOM     22  F   UNL     1      34.165  -7.702 -22.625  0.00  0.00    -0.196 F 
ATOM     23  C   UNL     1      33.071  -7.433 -23.367  0.00  0.00    +0.340 C 
ENDBRANCH  18  23
BRANCH  13  24
ATOM     24  N   UNL     1      35.452 -17.946 -22.278  0.00  0.00    -0.327 N 
ATOM     25  H   UNL     1      35.845 -18.502 -22.988  0.00  0.00    +0.147 HD
BRANCH  24  26
ATOM     26  C   UNL     1      35.350 -18.493 -20.960  0.00  0.00    +0.146 C 
ATOM     27  C   UNL     1      34.316 -19.610 -20.952  0.00  0.00    +0.031 C 
BRANCH  26  30
ATOM     28  O   UNL     1      37.769 -18.656 -21.041  0.00  0.00    -0.274 OA
ATOM     29  N   UNL     1      36.636 -19.926 -19.499  0.00  0.00    -0.327 N 
ATOM     30  C   UNL     1      36.710 -19.013 -20.529  0.00  0.00    +0.237 C 
ATOM     31  H   UNL     1      37.458 -20.330 -19.139  0.00  0.00    +0.145 HD
ATOM     32  H   UNL     1      35.760 -20.174 -19.123  0.00  0.00    +0.145 HD
ENDBRANCH  26  30
ENDBRANCH  24  26
ENDBRANCH  13  24
TORSDOF 4
ENDMDL
MODEL 8
REMARK VINA RESULT:      -9.4      3.237      5.162
REMARK  Name = 124173720
REMARK  4 active torsions:
REMARK  status: ('A' for Active; 'I' for Inactive)
REMARK    1  A    between atoms: C_13  and  N_24
REMARK    2  A    between atoms: C_18  and  C_23
REMARK    3  A    between atoms: N_24  and  C_26
REMARK    4  A    between atoms: C_26  and  C_30
REMARK                            x       y       z     vdW  Elec       q    Type
REMARK                         _______ _______ _______ _____ _____    ______ ____
ROOT
ATOM      1  O   UNL     1      35.817 -21.378 -18.114  0.00  0.00    -0.473 OA
ATOM      2  N   UNL     1      33.606 -22.661 -16.483  0.00  0.00    -0.272 N 
ATOM      3  N   UNL     1      31.590 -22.235 -17.270  0.00  0.00    -0.374 NA
ATOM      4  C   UNL     1      31.482 -22.911 -16.087  0.00  0.00    +0.190 C 
ATOM      5  C   UNL     1      32.887 -22.078 -17.508  0.00  0.00    +0.188 C 
ATOM      6  C   UNL     1      35.041 -22.751 -16.317  0.00  0.00    +0.141 C 
ATOM      7  C   UNL     1      32.721 -23.185 -15.575  0.00  0.00    +0.169 C 
ATOM      8  C   UNL     1      33.417 -21.381 -18.699  0.00  0.00    +0.078 C 
ATOM      9  C   UNL     1      35.794 -22.717 -17.627  0.00  0.00    +0.227 C 
ATOM     10  C   UNL     1      34.766 -21.067 -18.933  0.00  0.00    +0.144 C 
ATOM     11  C   UNL     1      32.481 -20.960 -19.668  0.00  0.00    +0.008 C 
ATOM     12  C   UNL     1      35.143 -20.319 -20.063  0.00  0.00    +0.051 C 
ATOM     13  C   UNL     1      34.197 -19.914 -20.997  0.00  0.00    +0.048 C 
ATOM     14  C   UNL     1      32.862 -20.240 -20.803  0.00  0.00    +0.015 C 
ATOM     15  O   UNL     1      28.047 -23.294 -15.145  0.00  0.00    -0.432 OA
ATOM     16  O   UNL     1      28.769 -22.488 -17.163  0.00  0.00    -0.226 OA
ATOM     17  N   UNL     1      30.276 -23.246 -15.522  0.00  0.00    -0.194 N 
ATOM     18  C   UNL     1      30.101 -23.958 -14.274  0.00  0.00    +0.195 C 
ATOM     19  C   UNL     1      28.689 -23.561 -13.894  0.00  0.00    +0.236 C 
ATOM     20  C   UNL     1      29.020 -22.957 -16.061  0.00  0.00    +0.411 C 
ENDROOT
BRANCH  18  23
ATOM     21  F   UNL     1      31.281 -25.903 -13.726  0.00  0.00    -0.196 F 
ATOM     22  F   UNL     1      29.126 -26.065 -13.981  0.00  0.00    -0.196 F 
ATOM     23  C   UNL     1      30.237 -25.468 -14.460  0.00  0.00    +0.340 C 
ENDBRANCH  18  23
BRANCH  13  24
ATOM     24  N   UNL     1      34.591 -19.178 -22.133  0.00  0.00    -0.327 N 
ATOM     25  H   UNL     1      34.384 -19.542 -23.023  0.00  0.00    +0.147 HD
BRANCH  24  26
ATOM     26  C   UNL     1      35.277 -17.925 -22.048  0.00  0.00    +0.146 C 
ATOM     27  C   UNL     1      36.771 -18.174 -21.905  0.00  0.00    +0.031 C 
BRANCH  26  30
ATOM     28  O   UNL     1      34.283 -17.513 -24.223  0.00  0.00    -0.274 OA
ATOM     29  N   UNL     1      35.579 -15.868 -23.280  0.00  0.00    -0.327 N 
ATOM     30  C   UNL     1      34.982 -17.110 -23.296  0.00  0.00    +0.237 C 
ATOM     31  H   UNL     1      35.457 -15.253 -24.039  0.00  0.00    +0.145 HD
ATOM     32  H   UNL     1      36.128 -15.595 -22.510  0.00  0.00    +0.145 HD
ENDBRANCH  26  30
ENDBRANCH  24  26
ENDBRANCH  13  24
TORSDOF 4
ENDMDL
MODEL 9
REMARK VINA RESULT:      -9.2      8.150     12.452
REMARK  Name = 124173720
REMARK  4 active torsions:
REMARK  status: ('A' for Active; 'I' for Inactive)
REMARK    1  A    between atoms: C_13  and  N_24
REMARK    2  A    between atoms: C_18  and  C_23
REMARK    3  A    between atoms: N_24  and  C_26
REMARK    4  A    between atoms: C_26  and  C_30
REMARK                            x       y       z     vdW  Elec       q    Type
REMARK                         _______ _______ _______ _____ _____    ______ ____
ROOT
ATOM      1  O   UNL     1      33.269 -10.578 -24.532  0.00  0.00    -0.473 OA
ATOM      2  N   UNL     1      34.115 -13.421 -23.898  0.00  0.00    -0.272 N 
ATOM      3  N   UNL     1      34.039 -13.888 -21.744  0.00  0.00    -0.374 NA
ATOM      4  C   UNL     1      34.587 -14.942 -22.418  0.00  0.00    +0.190 C 
ATOM      5  C   UNL     1      33.755 -12.957 -22.648  0.00  0.00    +0.188 C 
ATOM      6  C   UNL     1      33.985 -12.765 -25.182  0.00  0.00    +0.141 C 
ATOM      7  C   UNL     1      34.649 -14.676 -23.759  0.00  0.00    +0.169 C 
ATOM      8  C   UNL     1      33.152 -11.651 -22.309  0.00  0.00    +0.078 C 
ATOM      9  C   UNL     1      32.860 -11.755 -25.222  0.00  0.00    +0.227 C 
ATOM     10  C   UNL     1      32.959 -10.581 -23.198  0.00  0.00    +0.144 C 
ATOM     11  C   UNL     1      32.772 -11.447 -20.965  0.00  0.00    +0.008 C 
ATOM     12  C   UNL     1      32.456  -9.350 -22.742  0.00  0.00    +0.051 C 
ATOM     13  C   UNL     1      32.095  -9.178 -21.410  0.00  0.00    +0.048 C 
ATOM     14  C   UNL     1      32.248 -10.231 -20.520  0.00  0.00    +0.015 C 
ATOM     15  O   UNL     1      35.601 -17.520 -20.147  0.00  0.00    -0.432 OA
ATOM     16  O   UNL     1      34.382 -15.672 -19.568  0.00  0.00    -0.226 OA
ATOM     17  N   UNL     1      35.009 -16.093 -21.797  0.00  0.00    -0.194 N 
ATOM     18  C   UNL     1      35.597 -17.237 -22.457  0.00  0.00    +0.195 C 
ATOM     19  C   UNL     1      36.339 -17.900 -21.314  0.00  0.00    +0.236 C 
ATOM     20  C   UNL     1      34.937 -16.346 -20.425  0.00  0.00    +0.411 C 
ENDROOT
BRANCH  18  23
ATOM     21  F   UNL     1      34.539 -18.016 -24.393  0.00  0.00    -0.196 F 
ATOM     22  F   UNL     1      34.860 -19.436 -22.775  0.00  0.00    -0.196 F 
ATOM     23  C   UNL     1      34.532 -18.157 -23.052  0.00  0.00    +0.340 C 
ENDBRANCH  18  23
BRANCH  13  24
ATOM     24  N   UNL     1      31.578  -7.943 -20.968  0.00  0.00    -0.327 N 
ATOM     25  H   UNL     1      31.141  -7.905 -20.088  0.00  0.00    +0.147 HD
BRANCH  24  26
ATOM     26  C   UNL     1      31.661  -6.743 -21.743  0.00  0.00    +0.146 C 
ATOM     27  C   UNL     1      30.469  -5.852 -21.429  0.00  0.00    +0.031 C 
BRANCH  26  30
ATOM     28  O   UNL     1      34.068  -6.570 -21.495  0.00  0.00    -0.274 OA
ATOM     29  N   UNL     1      32.785  -4.719 -21.048  0.00  0.00    -0.327 N 
ATOM     30  C   UNL     1      32.965  -6.033 -21.424  0.00  0.00    +0.237 C 
ATOM     31  H   UNL     1      33.562  -4.161 -20.817  0.00  0.00    +0.145 HD
ATOM     32  H   UNL     1      31.877  -4.338 -21.010  0.00  0.00    +0.145 HD
ENDBRANCH  26  30
ENDBRANCH  24  26
ENDBRANCH  13  24
TORSDOF 4
ENDMDL
