MODEL 1
REMARK VINA RESULT:     -14.0      0.000      0.000
REMARK  Name = 25171648
REMARK  8 active torsions:
REMARK  status: ('A' for Active; 'I' for Inactive)
REMARK    1  A    between atoms: C_1  and  C_12
REMARK    2  A    between atoms: C_2  and  C_23
REMARK    3  A    between atoms: C_9  and  O_13
REMARK    4  A    between atoms: O_13  and  C_14
REMARK    5  A    between atoms: C_14  and  C_16
REMARK    6  A    between atoms: C_23  and  N_25
REMARK    7  A    between atoms: C_27  and  C_31
REMARK    8  A    between atoms: C_34  and  C_38
REMARK                            x       y       z     vdW  Elec       q    Type
REMARK                         _______ _______ _______ _____ _____    ______ ____
ROOT
ATOM      1  C   UNL     1      35.176 -19.939 -20.293  0.00  0.00    +0.062 C 
ATOM      2  C   UNL     1      34.106 -21.635 -18.944  0.00  0.00    +0.000 C 
ATOM      3  C   UNL     1      34.025 -20.624 -19.903  0.00  0.00    +0.007 C 
ATOM      4  C   UNL     1      36.407 -20.265 -19.725  0.00  0.00    +0.010 C 
ATOM      5  C   UNL     1      35.338 -21.960 -18.376  0.00  0.00    -0.003 C 
ATOM      6  C   UNL     1      36.488 -21.276 -18.768  0.00  0.00    +0.000 C 
ENDROOT
BRANCH   1  12
ATOM      7  N   UNL     1      34.653 -19.259 -22.502  0.00  0.00    -0.212 NA
ATOM      8  N   UNL     1      35.461 -17.663 -20.888  0.00  0.00    -0.190 NA
ATOM      9  C   UNL     1      34.935 -16.951 -23.126  0.00  0.00    +0.161 C 
ATOM     10  C   UNL     1      34.587 -18.257 -23.404  0.00  0.00    +0.201 C 
ATOM     11  C   UNL     1      35.369 -16.710 -21.838  0.00  0.00    +0.144 C 
ATOM     12  C   UNL     1      35.092 -18.896 -21.282  0.00  0.00    +0.031 C 
BRANCH   9  13
ATOM     13  O   UNL     1      34.854 -15.956 -24.069  0.00  0.00    -0.476 OA
BRANCH  13  14
ATOM     14  C   UNL     1      33.569 -15.656 -24.579  0.00  0.00    +0.205 C 
BRANCH  14  16
ATOM     15  N   UNL     1      34.246 -11.413 -24.132  0.00  0.00    +0.386 N 
ATOM     16  C   UNL     1      33.285 -14.176 -24.342  0.00  0.00    +0.040 C 
ATOM     17  C   UNL     1      33.660 -13.340 -25.570  0.00  0.00    -0.019 C 
ATOM     18  C   UNL     1      34.042 -13.659 -23.114  0.00  0.00    -0.019 C 
ATOM     19  C   UNL     1      33.473 -11.844 -25.305  0.00  0.00    -0.077 C 
ATOM     20  C   UNL     1      33.841 -12.153 -22.929  0.00  0.00    -0.077 C 
ATOM     21  C   UNL     1      34.097  -9.973 -23.923  0.00  0.00    -0.101 C 
ATOM     22  H   UNL     1      35.229 -11.618 -24.312  0.00  0.00    -0.080 HD
ENDBRANCH  14  16
ENDBRANCH  13  14
ENDBRANCH   9  13
ENDBRANCH   1  12
BRANCH   2  23
ATOM     23  C   UNL     1      32.876 -22.367 -18.526  0.00  0.00    +0.146 C 
BRANCH  23  25
ATOM     24  O   UNL     1      30.611 -22.381 -16.769  0.00  0.00    -0.268 OA
ATOM     25  N   UNL     1      32.887 -22.703 -17.112  0.00  0.00    -0.173 N 
ATOM     26  N   UNL     1      34.116 -23.028 -16.611  0.00  0.00    -0.175 NA
ATOM     27  C   UNL     1      34.204 -23.331 -15.356  0.00  0.00    +0.099 C 
ATOM     28  C   UNL     1      31.729 -22.681 -16.349  0.00  0.00    +0.268 C 
ATOM     29  C   UNL     1      33.061 -23.377 -14.425  0.00  0.00    +0.025 C 
ATOM     30  C   UNL     1      31.871 -23.056 -14.927  0.00  0.00    +0.061 C 
BRANCH  27  31
ATOM     31  C   UNL     1      35.538 -23.682 -14.798  0.00  0.00    +0.020 C 
ATOM     32  C   UNL     1      35.633 -24.557 -13.716  0.00  0.00    +0.012 C 
ATOM     33  C   UNL     1      36.693 -23.135 -15.357  0.00  0.00    +0.002 C 
ATOM     34  C   UNL     1      36.885 -24.885 -13.193  0.00  0.00    +0.068 C 
ATOM     35  C   UNL     1      37.944 -23.463 -14.835  0.00  0.00    +0.001 C 
ATOM     36  C   UNL     1      38.040 -24.338 -13.753  0.00  0.00    +0.010 C 
BRANCH  34  38
ATOM     37  N   UNL     1      37.064 -26.508 -11.183  0.00  0.00    -0.191 NA
ATOM     38  C   UNL     1      36.984 -25.780 -12.084  0.00  0.00    +0.100 C 
ENDBRANCH  34  38
ENDBRANCH  27  31
ENDBRANCH  23  25
ENDBRANCH   2  23
TORSDOF 8
ENDMDL
MODEL 2
REMARK VINA RESULT:     -13.7      1.991      3.893
REMARK  Name = 25171648
REMARK  8 active torsions:
REMARK  status: ('A' for Active; 'I' for Inactive)
REMARK    1  A    between atoms: C_1  and  C_12
REMARK    2  A    between atoms: C_2  and  C_23
REMARK    3  A    between atoms: C_9  and  O_13
REMARK    4  A    between atoms: O_13  and  C_14
REMARK    5  A    between atoms: C_14  and  C_16
REMARK    6  A    between atoms: C_23  and  N_25
REMARK    7  A    between atoms: C_27  and  C_31
REMARK    8  A    between atoms: C_34  and  C_38
REMARK                            x       y       z     vdW  Elec       q    Type
REMARK                         _______ _______ _______ _____ _____    ______ ____
ROOT
ATOM      1  C   UNL     1      34.400 -20.076 -20.138  0.00  0.00    +0.062 C 
ATOM      2  C   UNL     1      35.276 -21.629 -18.507  0.00  0.00    +0.000 C 
ATOM      3  C   UNL     1      35.485 -20.629 -19.458  0.00  0.00    +0.007 C 
ATOM      4  C   UNL     1      33.107 -20.524 -19.868  0.00  0.00    +0.010 C 
ATOM      5  C   UNL     1      33.983 -22.076 -18.238  0.00  0.00    -0.003 C 
ATOM      6  C   UNL     1      32.898 -21.523 -18.918  0.00  0.00    +0.000 C 
ENDROOT
BRANCH   1  12
ATOM      7  N   UNL     1      34.228 -19.321 -22.378  0.00  0.00    -0.212 NA
ATOM      8  N   UNL     1      35.182 -17.904 -20.677  0.00  0.00    -0.190 NA
ATOM      9  C   UNL     1      35.017 -17.119 -22.946  0.00  0.00    +0.161 C 
ATOM     10  C   UNL     1      34.445 -18.332 -23.270  0.00  0.00    +0.201 C 
ATOM     11  C   UNL     1      35.369 -16.959 -21.622  0.00  0.00    +0.144 C 
ATOM     12  C   UNL     1      34.615 -19.044 -21.119  0.00  0.00    +0.031 C 
BRANCH   9  13
ATOM     13  O   UNL     1      35.221 -16.134 -23.881  0.00  0.00    -0.476 OA
BRANCH  13  14
ATOM     14  C   UNL     1      34.149 -15.847 -24.759  0.00  0.00    +0.205 C 
BRANCH  14  16
ATOM     15  N   UNL     1      34.083 -11.587 -24.048  0.00  0.00    +0.386 N 
ATOM     16  C   UNL     1      33.614 -14.456 -24.435  0.00  0.00    +0.040 C 
ATOM     17  C   UNL     1      33.838 -13.493 -25.607  0.00  0.00    -0.019 C 
ATOM     18  C   UNL     1      34.271 -13.893 -23.170  0.00  0.00    -0.019 C 
ATOM     19  C   UNL     1      33.395 -12.072 -25.253  0.00  0.00    -0.077 C 
ATOM     20  C   UNL     1      33.813 -12.458 -22.896  0.00  0.00    -0.077 C 
ATOM     21  C   UNL     1      33.688 -10.210 -23.753  0.00  0.00    -0.101 C 
ATOM     22  H   UNL     1      35.087 -11.608 -24.230  0.00  0.00    -0.080 HD
ENDBRANCH  14  16
ENDBRANCH  13  14
ENDBRANCH   9  13
ENDBRANCH   1  12
BRANCH   2  23
ATOM     23  C   UNL     1      36.436 -22.221 -17.780  0.00  0.00    +0.146 C 
BRANCH  23  25
ATOM     24  O   UNL     1      38.259 -22.108 -15.571  0.00  0.00    -0.268 OA
ATOM     25  N   UNL     1      36.124 -22.519 -16.392  0.00  0.00    -0.173 N 
ATOM     26  N   UNL     1      34.831 -22.895 -16.165  0.00  0.00    -0.175 NA
ATOM     27  C   UNL     1      34.481 -23.184 -14.953  0.00  0.00    +0.099 C 
ATOM     28  C   UNL     1      37.084 -22.431 -15.395  0.00  0.00    +0.268 C 
ATOM     29  C   UNL     1      35.379 -23.112 -13.785  0.00  0.00    +0.025 C 
ATOM     30  C   UNL     1      36.637 -22.747 -14.022  0.00  0.00    +0.061 C 
BRANCH  27  31
ATOM     31  C   UNL     1      33.077 -23.599 -14.694  0.00  0.00    +0.020 C 
ATOM     32  C   UNL     1      32.039 -23.069 -15.460  0.00  0.00    +0.012 C 
ATOM     33  C   UNL     1      32.798 -24.520 -13.684  0.00  0.00    +0.002 C 
ATOM     34  C   UNL     1      30.722 -23.459 -15.216  0.00  0.00    +0.068 C 
ATOM     35  C   UNL     1      31.481 -24.911 -13.440  0.00  0.00    +0.001 C 
ATOM     36  C   UNL     1      30.443 -24.381 -14.206  0.00  0.00    +0.010 C 
BRANCH  34  38
ATOM     37  N   UNL     1      28.793 -22.474 -16.636  0.00  0.00    -0.191 NA
ATOM     38  C   UNL     1      29.658 -22.916 -16.000  0.00  0.00    +0.100 C 
ENDBRANCH  34  38
ENDBRANCH  27  31
ENDBRANCH  23  25
ENDBRANCH   2  23
TORSDOF 8
ENDMDL
MODEL 3
REMARK VINA RESULT:     -13.5      4.173      8.673
REMARK  Name = 25171648
REMARK  8 active torsions:
REMARK  status: ('A' for Active; 'I' for Inactive)
REMARK    1  A    between atoms: C_1  and  C_12
REMARK    2  A    between atoms: C_2  and  C_23
REMARK    3  A    between atoms: C_9  and  O_13
REMARK    4  A    between atoms: O_13  and  C_14
REMARK    5  A    between atoms: C_14  and  C_16
REMARK    6  A    between atoms: C_23  and  N_25
REMARK    7  A    between atoms: C_27  and  C_31
REMARK    8  A    between atoms: C_34  and  C_38
REMARK                            x       y       z     vdW  Elec       q    Type
REMARK                         _______ _______ _______ _____ _____    ______ ____
ROOT
ATOM      1  C   UNL     1      33.065 -12.172 -21.794  0.00  0.00    +0.062 C 
ATOM      2  C   UNL     1      34.286 -14.171 -22.387  0.00  0.00    +0.000 C 
ATOM      3  C   UNL     1      33.885 -12.867 -22.682  0.00  0.00    +0.007 C 
ATOM      4  C   UNL     1      32.645 -12.780 -20.611  0.00  0.00    +0.010 C 
ATOM      5  C   UNL     1      33.866 -14.778 -21.203  0.00  0.00    -0.003 C 
ATOM      6  C   UNL     1      33.047 -14.082 -20.315  0.00  0.00    +0.000 C 
ENDROOT
BRANCH   1  12
ATOM      7  N   UNL     1      31.653 -10.321 -21.351  0.00  0.00    -0.212 NA
ATOM      8  N   UNL     1      33.305 -10.210 -23.102  0.00  0.00    -0.190 NA
ATOM      9  C   UNL     1      31.880  -8.319 -22.669  0.00  0.00    +0.161 C 
ATOM     10  C   UNL     1      31.291  -9.059 -21.664  0.00  0.00    +0.201 C 
ATOM     11  C   UNL     1      32.893  -8.952 -23.361  0.00  0.00    +0.144 C 
ATOM     12  C   UNL     1      32.651 -10.827 -22.099  0.00  0.00    +0.031 C 
BRANCH   9  13
ATOM     13  O   UNL     1      31.487  -7.036 -22.959  0.00  0.00    -0.476 OA
BRANCH  13  14
ATOM     14  C   UNL     1      32.218  -5.986 -22.355  0.00  0.00    +0.205 C 
BRANCH  14  16
ATOM     15  N   UNL     1      33.622  -4.716 -26.237  0.00  0.00    +0.386 N 
ATOM     16  C   UNL     1      32.778  -5.088 -23.454  0.00  0.00    +0.040 C 
ATOM     17  C   UNL     1      31.776  -4.937 -24.605  0.00  0.00    -0.019 C 
ATOM     18  C   UNL     1      34.104  -5.635 -23.991  0.00  0.00    -0.019 C 
ATOM     19  C   UNL     1      32.368  -4.120 -25.755  0.00  0.00    -0.077 C 
ATOM     20  C   UNL     1      34.620  -4.795 -25.162  0.00  0.00    -0.077 C 
ATOM     21  C   UNL     1      34.149  -3.954 -27.369  0.00  0.00    -0.101 C 
ATOM     22  H   UNL     1      33.419  -5.666 -26.548  0.00  0.00    -0.080 HD
ENDBRANCH  14  16
ENDBRANCH  13  14
ENDBRANCH   9  13
ENDBRANCH   1  12
BRANCH   2  23
ATOM     23  C   UNL     1      35.163 -14.916 -23.336  0.00  0.00    +0.146 C 
BRANCH  23  25
ATOM     24  O   UNL     1      33.803 -16.087 -25.570  0.00  0.00    -0.268 OA
ATOM     25  N   UNL     1      34.773 -16.309 -23.470  0.00  0.00    -0.173 N 
ATOM     26  N   UNL     1      35.096 -17.098 -22.403  0.00  0.00    -0.175 NA
ATOM     27  C   UNL     1      34.774 -18.351 -22.449  0.00  0.00    +0.099 C 
ATOM     28  C   UNL     1      34.118 -16.776 -24.600  0.00  0.00    +0.268 C 
ATOM     29  C   UNL     1      34.098 -18.999 -23.589  0.00  0.00    +0.025 C 
ATOM     30  C   UNL     1      33.788 -18.217 -24.620  0.00  0.00    +0.061 C 
BRANCH  27  31
ATOM     31  C   UNL     1      35.115 -19.220 -21.291  0.00  0.00    +0.020 C 
ATOM     32  C   UNL     1      34.118 -19.959 -20.654  0.00  0.00    +0.012 C 
ATOM     33  C   UNL     1      36.434 -19.297 -20.843  0.00  0.00    +0.002 C 
ATOM     34  C   UNL     1      34.440 -20.774 -19.569  0.00  0.00    +0.068 C 
ATOM     35  C   UNL     1      36.757 -20.112 -19.757  0.00  0.00    +0.001 C 
ATOM     36  C   UNL     1      35.759 -20.851 -19.120  0.00  0.00    +0.010 C 
BRANCH  34  38
ATOM     37  N   UNL     1      32.590 -22.145 -18.384  0.00  0.00    -0.191 NA
ATOM     38  C   UNL     1      33.419 -21.530 -18.915  0.00  0.00    +0.100 C 
ENDBRANCH  34  38
ENDBRANCH  27  31
ENDBRANCH  23  25
ENDBRANCH   2  23
TORSDOF 8
ENDMDL
MODEL 4
REMARK VINA RESULT:     -13.4      3.793     14.363
REMARK  Name = 25171648
REMARK  8 active torsions:
REMARK  status: ('A' for Active; 'I' for Inactive)
REMARK    1  A    between atoms: C_1  and  C_12
REMARK    2  A    between atoms: C_2  and  C_23
REMARK    3  A    between atoms: C_9  and  O_13
REMARK    4  A    between atoms: O_13  and  C_14
REMARK    5  A    between atoms: C_14  and  C_16
REMARK    6  A    between atoms: C_23  and  N_25
REMARK    7  A    between atoms: C_27  and  C_31
REMARK    8  A    between atoms: C_34  and  C_38
REMARK                            x       y       z     vdW  Elec       q    Type
REMARK                         _______ _______ _______ _____ _____    ______ ____
ROOT
ATOM      1  C   UNL     1      33.927 -13.063 -22.371  0.00  0.00    +0.062 C 
ATOM      2  C   UNL     1      32.582 -11.064 -22.182  0.00  0.00    +0.000 C 
ATOM      3  C   UNL     1      33.029 -12.275 -21.651  0.00  0.00    +0.007 C 
ATOM      4  C   UNL     1      34.378 -12.641 -23.621  0.00  0.00    +0.010 C 
ATOM      5  C   UNL     1      33.033 -10.643 -23.433  0.00  0.00    -0.003 C 
ATOM      6  C   UNL     1      33.931 -11.430 -24.152  0.00  0.00    +0.000 C 
ENDROOT
BRANCH   1  12
ATOM      7  N   UNL     1      34.828 -15.229 -22.703  0.00  0.00    -0.212 NA
ATOM      8  N   UNL     1      34.335 -14.436 -20.482  0.00  0.00    -0.190 NA
ATOM      9  C   UNL     1      35.250 -16.640 -20.799  0.00  0.00    +0.161 C 
ATOM     10  C   UNL     1      35.253 -16.386 -22.155  0.00  0.00    +0.201 C 
ATOM     11  C   UNL     1      34.775 -15.617 -20.002  0.00  0.00    +0.144 C 
ATOM     12  C   UNL     1      34.389 -14.312 -21.822  0.00  0.00    +0.031 C 
BRANCH   9  13
ATOM     13  O   UNL     1      35.691 -17.830 -20.276  0.00  0.00    -0.476 OA
BRANCH  13  14
ATOM     14  C   UNL     1      35.947 -18.879 -21.190  0.00  0.00    +0.205 C 
BRANCH  14  16
ATOM     15  N   UNL     1      34.063 -21.633 -18.447  0.00  0.00    +0.386 N 
ATOM     16  C   UNL     1      35.315 -20.159 -20.651  0.00  0.00    +0.040 C 
ATOM     17  C   UNL     1      33.865 -19.917 -20.218  0.00  0.00    -0.019 C 
ATOM     18  C   UNL     1      36.120 -20.718 -19.473  0.00  0.00    -0.019 C 
ATOM     19  C   UNL     1      33.256 -21.170 -19.584  0.00  0.00    -0.077 C 
ATOM     20  C   UNL     1      35.437 -21.944 -18.864  0.00  0.00    -0.077 C 
ATOM     21  C   UNL     1      33.441 -22.800 -17.820  0.00  0.00    -0.101 C 
ATOM     22  H   UNL     1      34.105 -20.878 -17.763  0.00  0.00    -0.080 HD
ENDBRANCH  14  16
ENDBRANCH  13  14
ENDBRANCH   9  13
ENDBRANCH   1  12
BRANCH   2  23
ATOM     23  C   UNL     1      31.621 -10.221 -21.413  0.00  0.00    +0.146 C 
BRANCH  23  25
ATOM     24  O   UNL     1      32.475  -9.292 -18.840  0.00  0.00    -0.268 OA
ATOM     25  N   UNL     1      32.160  -8.906 -21.110  0.00  0.00    -0.173 N 
ATOM     26  N   UNL     1      32.241  -8.061 -22.180  0.00  0.00    -0.175 NA
ATOM     27  C   UNL     1      32.706  -6.869 -21.984  0.00  0.00    +0.099 C 
ATOM     28  C   UNL     1      32.548  -8.557 -19.825  0.00  0.00    +0.268 C 
ATOM     29  C   UNL     1      33.180  -6.360 -20.683  0.00  0.00    +0.025 C 
ATOM     30  C   UNL     1      33.093  -7.195 -19.649  0.00  0.00    +0.061 C 
BRANCH  27  31
ATOM     31  C   UNL     1      32.794  -5.937 -23.140  0.00  0.00    +0.020 C 
ATOM     32  C   UNL     1      33.977  -5.844 -23.873  0.00  0.00    +0.012 C 
ATOM     33  C   UNL     1      31.692  -5.156 -23.491  0.00  0.00    +0.002 C 
ATOM     34  C   UNL     1      34.058  -4.970 -24.957  0.00  0.00    +0.068 C 
ATOM     35  C   UNL     1      31.774  -4.282 -24.576  0.00  0.00    +0.001 C 
ATOM     36  C   UNL     1      32.957  -4.190 -25.309  0.00  0.00    +0.010 C 
BRANCH  34  38
ATOM     37  N   UNL     1      36.254  -4.796 -26.319  0.00  0.00    -0.191 NA
ATOM     38  C   UNL     1      35.270  -4.874 -25.709  0.00  0.00    +0.100 C 
ENDBRANCH  34  38
ENDBRANCH  27  31
ENDBRANCH  23  25
ENDBRANCH   2  23
TORSDOF 8
ENDMDL
MODEL 5
REMARK VINA RESULT:     -13.3      4.183     14.627
REMARK  Name = 25171648
REMARK  8 active torsions:
REMARK  status: ('A' for Active; 'I' for Inactive)
REMARK    1  A    between atoms: C_1  and  C_12
REMARK    2  A    between atoms: C_2  and  C_23
REMARK    3  A    between atoms: C_9  and  O_13
REMARK    4  A    between atoms: O_13  and  C_14
REMARK    5  A    between atoms: C_14  and  C_16
REMARK    6  A    between atoms: C_23  and  N_25
REMARK    7  A    between atoms: C_27  and  C_31
REMARK    8  A    between atoms: C_34  and  C_38
REMARK                            x       y       z     vdW  Elec       q    Type
REMARK                         _______ _______ _______ _____ _____    ______ ____
ROOT
ATOM      1  C   UNL     1      33.870 -12.928 -22.422  0.00  0.00    +0.062 C 
ATOM      2  C   UNL     1      32.523 -10.932 -22.226  0.00  0.00    +0.000 C 
ATOM      3  C   UNL     1      32.971 -12.144 -21.699  0.00  0.00    +0.007 C 
ATOM      4  C   UNL     1      34.320 -12.501 -23.671  0.00  0.00    +0.010 C 
ATOM      5  C   UNL     1      32.974 -10.505 -23.474  0.00  0.00    -0.003 C 
ATOM      6  C   UNL     1      33.874 -11.289 -24.196  0.00  0.00    +0.000 C 
ENDROOT
BRANCH   1  12
ATOM      7  N   UNL     1      34.781 -15.089 -22.762  0.00  0.00    -0.212 NA
ATOM      8  N   UNL     1      34.269 -14.312 -20.539  0.00  0.00    -0.190 NA
ATOM      9  C   UNL     1      35.194 -16.511 -20.864  0.00  0.00    +0.161 C 
ATOM     10  C   UNL     1      35.206 -16.249 -22.219  0.00  0.00    +0.201 C 
ATOM     11  C   UNL     1      34.711 -15.495 -20.064  0.00  0.00    +0.144 C 
ATOM     12  C   UNL     1      34.332 -14.179 -21.878  0.00  0.00    +0.031 C 
BRANCH   9  13
ATOM     13  O   UNL     1      35.636 -17.703 -20.345  0.00  0.00    -0.476 OA
BRANCH  13  14
ATOM     14  C   UNL     1      35.902 -18.745 -21.265  0.00  0.00    +0.205 C 
BRANCH  14  16
ATOM     15  N   UNL     1      34.102 -21.547 -18.514  0.00  0.00    +0.386 N 
ATOM     16  C   UNL     1      35.288 -20.035 -20.729  0.00  0.00    +0.040 C 
ATOM     17  C   UNL     1      33.850 -19.803 -20.251  0.00  0.00    -0.019 C 
ATOM     18  C   UNL     1      36.127 -20.611 -19.583  0.00  0.00    -0.019 C 
ATOM     19  C   UNL     1      33.262 -21.067 -19.621  0.00  0.00    -0.077 C 
ATOM     20  C   UNL     1      35.464 -21.849 -18.975  0.00  0.00    -0.077 C 
ATOM     21  C   UNL     1      33.500 -22.726 -17.889  0.00  0.00    -0.101 C 
ATOM     22  H   UNL     1      34.162 -20.803 -17.820  0.00  0.00    -0.080 HD
ENDBRANCH  14  16
ENDBRANCH  13  14
ENDBRANCH   9  13
ENDBRANCH   1  12
BRANCH   2  23
ATOM     23  C   UNL     1      31.562 -10.092 -21.454  0.00  0.00    +0.146 C 
BRANCH  23  25
ATOM     24  O   UNL     1      32.561  -9.299 -18.887  0.00  0.00    -0.268 OA
ATOM     25  N   UNL     1      32.114  -8.792 -21.111  0.00  0.00    -0.173 N 
ATOM     26  N   UNL     1      32.131  -7.890 -22.136  0.00  0.00    -0.175 NA
ATOM     27  C   UNL     1      32.603  -6.708 -21.904  0.00  0.00    +0.099 C 
ATOM     28  C   UNL     1      32.574  -8.511 -19.833  0.00  0.00    +0.268 C 
ATOM     29  C   UNL     1      33.151  -6.268 -20.607  0.00  0.00    +0.025 C 
ATOM     30  C   UNL     1      33.125  -7.157 -19.617  0.00  0.00    +0.061 C 
BRANCH  27  31
ATOM     31  C   UNL     1      32.622  -5.715 -23.011  0.00  0.00    +0.020 C 
ATOM     32  C   UNL     1      31.617  -4.752 -23.102  0.00  0.00    +0.012 C 
ATOM     33  C   UNL     1      33.646  -5.746 -23.957  0.00  0.00    +0.002 C 
ATOM     34  C   UNL     1      31.636  -3.820 -24.141  0.00  0.00    +0.068 C 
ATOM     35  C   UNL     1      33.666  -4.814 -24.996  0.00  0.00    +0.001 C 
ATOM     36  C   UNL     1      32.661  -3.851 -25.087  0.00  0.00    +0.010 C 
BRANCH  34  38
ATOM     37  N   UNL     1      29.770  -2.033 -24.313  0.00  0.00    -0.191 NA
ATOM     38  C   UNL     1      30.606  -2.834 -24.236  0.00  0.00    +0.100 C 
ENDBRANCH  34  38
ENDBRANCH  27  31
ENDBRANCH  23  25
ENDBRANCH   2  23
TORSDOF 8
ENDMDL
MODEL 6
REMARK VINA RESULT:     -12.9      3.781     14.696
REMARK  Name = 25171648
REMARK  8 active torsions:
REMARK  status: ('A' for Active; 'I' for Inactive)
REMARK    1  A    between atoms: C_1  and  C_12
REMARK    2  A    between atoms: C_2  and  C_23
REMARK    3  A    between atoms: C_9  and  O_13
REMARK    4  A    between atoms: O_13  and  C_14
REMARK    5  A    between atoms: C_14  and  C_16
REMARK    6  A    between atoms: C_23  and  N_25
REMARK    7  A    between atoms: C_27  and  C_31
REMARK    8  A    between atoms: C_34  and  C_38
REMARK                            x       y       z     vdW  Elec       q    Type
REMARK                         _______ _______ _______ _____ _____    ______ ____
ROOT
ATOM      1  C   UNL     1      34.017 -13.778 -24.309  0.00  0.00    +0.062 C 
ATOM      2  C   UNL     1      34.081 -11.387 -23.964  0.00  0.00    +0.000 C 
ATOM      3  C   UNL     1      34.381 -12.679 -23.531  0.00  0.00    +0.007 C 
ATOM      4  C   UNL     1      33.351 -13.585 -25.519  0.00  0.00    +0.010 C 
ATOM      5  C   UNL     1      33.416 -11.195 -25.175  0.00  0.00    -0.003 C 
ATOM      6  C   UNL     1      33.052 -12.294 -25.953  0.00  0.00    +0.000 C 
ENDROOT
BRANCH   1  12
ATOM      7  N   UNL     1      35.006 -15.214 -22.704  0.00  0.00    -0.212 NA
ATOM      8  N   UNL     1      33.905 -16.122 -24.646  0.00  0.00    -0.190 NA
ATOM      9  C   UNL     1      34.904 -17.597 -23.027  0.00  0.00    +0.161 C 
ATOM     10  C   UNL     1      35.279 -16.477 -22.314  0.00  0.00    +0.201 C 
ATOM     11  C   UNL     1      34.211 -17.357 -24.196  0.00  0.00    +0.144 C 
ATOM     12  C   UNL     1      34.327 -15.111 -23.861  0.00  0.00    +0.031 C 
BRANCH   9  13
ATOM     13  O   UNL     1      35.198 -18.868 -22.600  0.00  0.00    -0.476 OA
BRANCH  13  14
ATOM     14  C   UNL     1      35.728 -19.002 -21.295  0.00  0.00    +0.205 C 
BRANCH  14  16
ATOM     15  N   UNL     1      34.039 -21.666 -18.344  0.00  0.00    +0.386 N 
ATOM     16  C   UNL     1      35.161 -20.271 -20.667  0.00  0.00    +0.040 C 
ATOM     17  C   UNL     1      33.719 -20.054 -20.193  0.00  0.00    -0.019 C 
ATOM     18  C   UNL     1      36.025 -20.740 -19.492  0.00  0.00    -0.019 C 
ATOM     19  C   UNL     1      33.176 -21.290 -19.473  0.00  0.00    -0.077 C 
ATOM     20  C   UNL     1      35.407 -21.954 -18.795  0.00  0.00    -0.077 C 
ATOM     21  C   UNL     1      33.480 -22.818 -17.635  0.00  0.00    -0.101 C 
ATOM     22  H   UNL     1      34.079 -20.875 -17.702  0.00  0.00    -0.080 HD
ENDBRANCH  14  16
ENDBRANCH  13  14
ENDBRANCH   9  13
ENDBRANCH   1  12
BRANCH   2  23
ATOM     23  C   UNL     1      34.470 -10.212 -23.133  0.00  0.00    +0.146 C 
BRANCH  23  25
ATOM     24  O   UNL     1      32.112 -10.841 -21.632  0.00  0.00    -0.268 OA
ATOM     25  N   UNL     1      33.351  -9.321 -22.878  0.00  0.00    -0.173 N 
ATOM     26  N   UNL     1      33.471  -8.079 -23.433  0.00  0.00    -0.175 NA
ATOM     27  C   UNL     1      32.508  -7.232 -23.255  0.00  0.00    +0.099 C 
ATOM     28  C   UNL     1      32.253  -9.726 -22.134  0.00  0.00    +0.268 C 
ATOM     29  C   UNL     1      31.291  -7.507 -22.468  0.00  0.00    +0.025 C 
ATOM     30  C   UNL     1      31.187  -8.722 -21.935  0.00  0.00    +0.061 C 
BRANCH  27  31
ATOM     31  C   UNL     1      32.624  -5.878 -23.858  0.00  0.00    +0.020 C 
ATOM     32  C   UNL     1      31.583  -4.961 -23.721  0.00  0.00    +0.012 C 
ATOM     33  C   UNL     1      33.777  -5.525 -24.561  0.00  0.00    +0.002 C 
ATOM     34  C   UNL     1      31.693  -3.691 -24.288  0.00  0.00    +0.068 C 
ATOM     35  C   UNL     1      33.888  -4.255 -25.127  0.00  0.00    +0.001 C 
ATOM     36  C   UNL     1      32.846  -3.338 -24.990  0.00  0.00    +0.010 C 
BRANCH  34  38
ATOM     37  N   UNL     1      29.759  -1.987 -24.035  0.00  0.00    -0.191 NA
ATOM     38  C   UNL     1      30.626  -2.750 -24.149  0.00  0.00    +0.100 C 
ENDBRANCH  34  38
ENDBRANCH  27  31
ENDBRANCH  23  25
ENDBRANCH   2  23
TORSDOF 8
ENDMDL
MODEL 7
REMARK VINA RESULT:     -12.4      2.295     12.488
REMARK  Name = 25171648
REMARK  8 active torsions:
REMARK  status: ('A' for Active; 'I' for Inactive)
REMARK    1  A    between atoms: C_1  and  C_12
REMARK    2  A    between atoms: C_2  and  C_23
REMARK    3  A    between atoms: C_9  and  O_13
REMARK    4  A    between atoms: O_13  and  C_14
REMARK    5  A    between atoms: C_14  and  C_16
REMARK    6  A    between atoms: C_23  and  N_25
REMARK    7  A    between atoms: C_27  and  C_31
REMARK    8  A    between atoms: C_34  and  C_38
REMARK                            x       y       z     vdW  Elec       q    Type
REMARK                         _______ _______ _______ _____ _____    ______ ____
ROOT
ATOM      1  C   UNL     1      34.901 -19.318 -21.527  0.00  0.00    +0.062 C 
ATOM      2  C   UNL     1      35.120 -17.252 -22.760  0.00  0.00    +0.000 C 
ATOM      3  C   UNL     1      35.403 -18.021 -21.631  0.00  0.00    +0.007 C 
ATOM      4  C   UNL     1      34.114 -19.845 -22.552  0.00  0.00    +0.010 C 
ATOM      5  C   UNL     1      34.333 -17.779 -23.784  0.00  0.00    -0.003 C 
ATOM      6  C   UNL     1      33.831 -19.076 -23.680  0.00  0.00    +0.000 C 
ENDROOT
BRANCH   1  12
ATOM      7  N   UNL     1      34.179 -20.841 -19.861  0.00  0.00    -0.212 NA
ATOM      8  N   UNL     1      36.454 -20.047 -19.892  0.00  0.00    -0.190 NA
ATOM      9  C   UNL     1      35.741 -21.593 -18.191  0.00  0.00    +0.161 C 
ATOM     10  C   UNL     1      34.489 -21.572 -18.770  0.00  0.00    +0.201 C 
ATOM     11  C   UNL     1      36.694 -20.804 -18.801  0.00  0.00    +0.144 C 
ATOM     12  C   UNL     1      35.194 -20.112 -20.362  0.00  0.00    +0.031 C 
BRANCH   9  13
ATOM     13  O   UNL     1      36.021 -22.351 -17.081  0.00  0.00    -0.476 OA
BRANCH  13  14
ATOM     14  C   UNL     1      36.923 -21.804 -16.138  0.00  0.00    +0.205 C 
BRANCH  14  16
ATOM     15  N   UNL     1      37.109 -25.484 -13.884  0.00  0.00    +0.386 N 
ATOM     16  C   UNL     1      37.017 -22.753 -14.947  0.00  0.00    +0.040 C 
ATOM     17  C   UNL     1      38.270 -23.630 -15.040  0.00  0.00    -0.019 C 
ATOM     18  C   UNL     1      35.771 -23.640 -14.848  0.00  0.00    -0.019 C 
ATOM     19  C   UNL     1      38.320 -24.652 -13.902  0.00  0.00    -0.077 C 
ATOM     20  C   UNL     1      35.903 -24.661 -13.717  0.00  0.00    -0.077 C 
ATOM     21  C   UNL     1      37.194 -26.489 -12.825  0.00  0.00    -0.101 C 
ATOM     22  H   UNL     1      37.042 -25.961 -14.783  0.00  0.00    -0.080 HD
ENDBRANCH  14  16
ENDBRANCH  13  14
ENDBRANCH   9  13
ENDBRANCH   1  12
BRANCH   2  23
ATOM     23  C   UNL     1      35.656 -15.864 -22.872  0.00  0.00    +0.146 C 
BRANCH  23  25
ATOM     24  O   UNL     1      34.778 -15.680 -25.593  0.00  0.00    -0.268 OA
ATOM     25  N   UNL     1      34.672 -14.932 -23.395  0.00  0.00    -0.173 N 
ATOM     26  N   UNL     1      34.149 -14.074 -22.471  0.00  0.00    -0.175 NA
ATOM     27  C   UNL     1      33.271 -13.209 -22.866  0.00  0.00    +0.099 C 
ATOM     28  C   UNL     1      34.315 -14.928 -24.736  0.00  0.00    +0.268 C 
ATOM     29  C   UNL     1      32.772 -13.098 -24.250  0.00  0.00    +0.025 C 
ATOM     30  C   UNL     1      33.293 -13.940 -25.140  0.00  0.00    +0.061 C 
BRANCH  27  31
ATOM     31  C   UNL     1      32.697 -12.265 -21.870  0.00  0.00    +0.020 C 
ATOM     32  C   UNL     1      32.406 -10.952 -22.239  0.00  0.00    +0.012 C 
ATOM     33  C   UNL     1      32.449 -12.695 -20.566  0.00  0.00    +0.002 C 
ATOM     34  C   UNL     1      31.867 -10.068 -21.304  0.00  0.00    +0.068 C 
ATOM     35  C   UNL     1      31.911 -11.811 -19.630  0.00  0.00    +0.001 C 
ATOM     36  C   UNL     1      31.619 -10.498 -20.000  0.00  0.00    +0.010 C 
BRANCH  34  38
ATOM     37  N   UNL     1      31.327  -7.629 -21.987  0.00  0.00    -0.191 NA
ATOM     38  C   UNL     1      31.569  -8.722 -21.681  0.00  0.00    +0.100 C 
ENDBRANCH  34  38
ENDBRANCH  27  31
ENDBRANCH  23  25
ENDBRANCH   2  23
TORSDOF 8
ENDMDL
MODEL 8
REMARK VINA RESULT:     -12.4      2.370     12.382
REMARK  Name = 25171648
REMARK  8 active torsions:
REMARK  status: ('A' for Active; 'I' for Inactive)
REMARK    1  A    between atoms: C_1  and  C_12
REMARK    2  A    between atoms: C_2  and  C_23
REMARK    3  A    between atoms: C_9  and  O_13
REMARK    4  A    between atoms: O_13  and  C_14
REMARK    5  A    between atoms: C_14  and  C_16
REMARK    6  A    between atoms: C_23  and  N_25
REMARK    7  A    between atoms: C_27  and  C_31
REMARK    8  A    between atoms: C_34  and  C_38
REMARK                            x       y       z     vdW  Elec       q    Type
REMARK                         _______ _______ _______ _____ _____    ______ ____
ROOT
ATOM      1  C   UNL     1      34.851 -19.322 -21.616  0.00  0.00    +0.062 C 
ATOM      2  C   UNL     1      35.127 -17.225 -22.785  0.00  0.00    +0.000 C 
ATOM      3  C   UNL     1      35.319 -18.008 -21.646  0.00  0.00    +0.007 C 
ATOM      4  C   UNL     1      34.192 -19.853 -22.725  0.00  0.00    +0.010 C 
ATOM      5  C   UNL     1      34.467 -17.757 -23.893  0.00  0.00    -0.003 C 
ATOM      6  C   UNL     1      34.001 -19.071 -23.864  0.00  0.00    +0.000 C 
ENDROOT
BRANCH   1  12
ATOM      7  N   UNL     1      33.970 -20.782 -19.971  0.00  0.00    -0.212 NA
ATOM      8  N   UNL     1      36.296 -20.151 -19.929  0.00  0.00    -0.190 NA
ATOM      9  C   UNL     1      35.420 -21.636 -18.249  0.00  0.00    +0.161 C 
ATOM     10  C   UNL     1      34.192 -21.529 -18.869  0.00  0.00    +0.201 C 
ATOM     11  C   UNL     1      36.446 -20.918 -18.830  0.00  0.00    +0.144 C 
ATOM     12  C   UNL     1      35.050 -20.130 -20.441  0.00  0.00    +0.031 C 
BRANCH   9  13
ATOM     13  O   UNL     1      35.609 -22.407 -17.129  0.00  0.00    -0.476 OA
BRANCH  13  14
ATOM     14  C   UNL     1      34.452 -22.918 -16.496  0.00  0.00    +0.205 C 
BRANCH  14  16
ATOM     15  N   UNL     1      35.343 -23.360 -12.293  0.00  0.00    +0.386 N 
ATOM     16  C   UNL     1      34.864 -23.567 -15.179  0.00  0.00    +0.040 C 
ATOM     17  C   UNL     1      33.722 -23.510 -14.157  0.00  0.00    -0.019 C 
ATOM     18  C   UNL     1      36.112 -22.894 -14.598  0.00  0.00    -0.019 C 
ATOM     19  C   UNL     1      34.160 -24.068 -12.801  0.00  0.00    -0.077 C 
ATOM     20  C   UNL     1      36.470 -23.473 -13.228  0.00  0.00    -0.077 C 
ATOM     21  C   UNL     1      35.718 -23.870 -10.974  0.00  0.00    -0.101 C 
ATOM     22  H   UNL     1      35.104 -22.372 -12.206  0.00  0.00    -0.080 HD
ENDBRANCH  14  16
ENDBRANCH  13  14
ENDBRANCH   9  13
ENDBRANCH   1  12
BRANCH   2  23
ATOM     23  C   UNL     1      35.626 -15.820 -22.818  0.00  0.00    +0.146 C 
BRANCH  23  25
ATOM     24  O   UNL     1      34.739 -15.671 -25.539  0.00  0.00    -0.268 OA
ATOM     25  N   UNL     1      34.639 -14.896 -23.351  0.00  0.00    -0.173 N 
ATOM     26  N   UNL     1      34.117 -14.027 -22.436  0.00  0.00    -0.175 NA
ATOM     27  C   UNL     1      33.236 -13.168 -22.840  0.00  0.00    +0.099 C 
ATOM     28  C   UNL     1      34.278 -14.909 -24.690  0.00  0.00    +0.268 C 
ATOM     29  C   UNL     1      32.733 -13.076 -24.223  0.00  0.00    +0.025 C 
ATOM     30  C   UNL     1      33.253 -13.928 -25.104  0.00  0.00    +0.061 C 
BRANCH  27  31
ATOM     31  C   UNL     1      32.664 -12.213 -21.854  0.00  0.00    +0.020 C 
ATOM     32  C   UNL     1      32.380 -10.902 -22.236  0.00  0.00    +0.012 C 
ATOM     33  C   UNL     1      32.409 -12.629 -20.547  0.00  0.00    +0.002 C 
ATOM     34  C   UNL     1      31.842 -10.007 -21.310  0.00  0.00    +0.068 C 
ATOM     35  C   UNL     1      31.872 -11.735 -19.621  0.00  0.00    +0.001 C 
ATOM     36  C   UNL     1      31.588 -10.424 -20.003  0.00  0.00    +0.010 C 
BRANCH  34  38
ATOM     37  N   UNL     1      31.316  -7.572 -22.017  0.00  0.00    -0.191 NA
ATOM     38  C   UNL     1      31.552  -8.663 -21.700  0.00  0.00    +0.100 C 
ENDBRANCH  34  38
ENDBRANCH  27  31
ENDBRANCH  23  25
ENDBRANCH   2  23
TORSDOF 8
ENDMDL
MODEL 9
REMARK VINA RESULT:     -11.8      2.457     12.226
REMARK  Name = 25171648
REMARK  8 active torsions:
REMARK  status: ('A' for Active; 'I' for Inactive)
REMARK    1  A    between atoms: C_1  and  C_12
REMARK    2  A    between atoms: C_2  and  C_23
REMARK    3  A    between atoms: C_9  and  O_13
REMARK    4  A    between atoms: O_13  and  C_14
REMARK    5  A    between atoms: C_14  and  C_16
REMARK    6  A    between atoms: C_23  and  N_25
REMARK    7  A    between atoms: C_27  and  C_31
REMARK    8  A    between atoms: C_34  and  C_38
REMARK                            x       y       z     vdW  Elec       q    Type
REMARK                         _______ _______ _______ _____ _____    ______ ____
ROOT
ATOM      1  C   UNL     1      34.806 -19.387 -21.529  0.00  0.00    +0.062 C 
ATOM      2  C   UNL     1      35.124 -17.302 -22.709  0.00  0.00    +0.000 C 
ATOM      3  C   UNL     1      35.288 -18.078 -21.561  0.00  0.00    +0.007 C 
ATOM      4  C   UNL     1      34.161 -19.919 -22.645  0.00  0.00    +0.010 C 
ATOM      5  C   UNL     1      34.479 -17.835 -23.825  0.00  0.00    -0.003 C 
ATOM      6  C   UNL     1      33.998 -19.144 -23.793  0.00  0.00    +0.000 C 
ENDROOT
BRANCH   1  12
ATOM      7  N   UNL     1      33.874 -20.795 -19.867  0.00  0.00    -0.212 NA
ATOM      8  N   UNL     1      36.220 -20.249 -19.833  0.00  0.00    -0.190 NA
ATOM      9  C   UNL     1      35.292 -21.680 -18.135  0.00  0.00    +0.161 C 
ATOM     10  C   UNL     1      34.069 -21.536 -18.757  0.00  0.00    +0.201 C 
ATOM     11  C   UNL     1      36.343 -21.007 -18.725  0.00  0.00    +0.144 C 
ATOM     12  C   UNL     1      34.976 -20.187 -20.345  0.00  0.00    +0.031 C 
BRANCH   9  13
ATOM     13  O   UNL     1      35.454 -22.444 -17.006  0.00  0.00    -0.476 OA
BRANCH  13  14
ATOM     14  C   UNL     1      34.537 -23.504 -16.809  0.00  0.00    +0.205 C 
BRANCH  14  16
ATOM     15  N   UNL     1      31.612 -23.966 -13.665  0.00  0.00    +0.386 N 
ATOM     16  C   UNL     1      33.653 -23.167 -15.613  0.00  0.00    +0.040 C 
ATOM     17  C   UNL     1      33.964 -24.083 -14.424  0.00  0.00    -0.019 C 
ATOM     18  C   UNL     1      32.169 -23.275 -15.975  0.00  0.00    -0.019 C 
ATOM     19  C   UNL     1      33.015 -23.819 -13.253  0.00  0.00    -0.077 C 
ATOM     20  C   UNL     1      31.278 -23.036 -14.753  0.00  0.00    -0.077 C 
ATOM     21  C   UNL     1      30.719 -23.760 -12.524  0.00  0.00    -0.101 C 
ATOM     22  H   UNL     1      31.485 -24.916 -14.013  0.00  0.00    -0.080 HD
ENDBRANCH  14  16
ENDBRANCH  13  14
ENDBRANCH   9  13
ENDBRANCH   1  12
BRANCH   2  23
ATOM     23  C   UNL     1      35.638 -15.902 -22.744  0.00  0.00    +0.146 C 
BRANCH  23  25
ATOM     24  O   UNL     1      34.803 -15.752 -25.481  0.00  0.00    -0.268 OA
ATOM     25  N   UNL     1      34.668 -14.971 -23.297  0.00  0.00    -0.173 N 
ATOM     26  N   UNL     1      34.136 -14.096 -22.393  0.00  0.00    -0.175 NA
ATOM     27  C   UNL     1      33.271 -13.232 -22.815  0.00  0.00    +0.099 C 
ATOM     28  C   UNL     1      34.332 -14.985 -24.642  0.00  0.00    +0.268 C 
ATOM     29  C   UNL     1      32.794 -13.138 -24.208  0.00  0.00    +0.025 C 
ATOM     30  C   UNL     1      33.324 -13.996 -25.078  0.00  0.00    +0.061 C 
BRANCH  27  31
ATOM     31  C   UNL     1      32.688 -12.270 -21.842  0.00  0.00    +0.020 C 
ATOM     32  C   UNL     1      32.415 -10.959 -22.234  0.00  0.00    +0.012 C 
ATOM     33  C   UNL     1      32.412 -12.679 -20.537  0.00  0.00    +0.002 C 
ATOM     34  C   UNL     1      31.868 -10.058 -21.320  0.00  0.00    +0.068 C 
ATOM     35  C   UNL     1      31.865 -11.778 -19.624  0.00  0.00    +0.001 C 
ATOM     36  C   UNL     1      31.592 -10.468 -20.015  0.00  0.00    +0.010 C 
BRANCH  34  38
ATOM     37  N   UNL     1      31.363  -7.623 -22.046  0.00  0.00    -0.191 NA
ATOM     38  C   UNL     1      31.589  -8.714 -21.721  0.00  0.00    +0.100 C 
ENDBRANCH  34  38
ENDBRANCH  27  31
ENDBRANCH  23  25
ENDBRANCH   2  23
TORSDOF 8
ENDMDL
