MODEL 1
REMARK VINA RESULT:     -11.6      0.000      0.000
REMARK  Name = 9804992
REMARK  10 active torsions:
REMARK  status: ('A' for Active; 'I' for Inactive)
REMARK    1  A    between atoms: C_1  and  C_9
REMARK    2  A    between atoms: C_1  and  O_19
REMARK    3  A    between atoms: C_2  and  C_12
REMARK    4  A    between atoms: C_12  and  N_13
REMARK    5  A    between atoms: N_13  and  C_15
REMARK    6  A    between atoms: N_13  and  C_17
REMARK    7  A    between atoms: O_19  and  C_22
REMARK    8  A    between atoms: N_21  and  C_24
REMARK    9  A    between atoms: C_27  and  C_32
REMARK   10  A    between atoms: N_31  and  O_34
REMARK                            x       y       z     vdW  Elec       q    Type
REMARK                         _______ _______ _______ _____ _____    ______ ____
ROOT
ATOM      1  C   UNL     1      37.053 -20.795 -19.507  0.00  0.00    +0.237 C 
ENDROOT
BRANCH   1   9
ATOM      2  C   UNL     1      32.443 -23.466 -15.752  0.00  0.00    -0.043 C 
ATOM      3  C   UNL     1      33.505 -22.333 -17.625  0.00  0.00    -0.000 C 
ATOM      4  C   UNL     1      34.760 -22.462 -16.982  0.00  0.00    -0.000 C 
ATOM      5  C   UNL     1      32.357 -22.841 -16.996  0.00  0.00    -0.006 C 
ATOM      6  C   UNL     1      33.677 -23.593 -15.121  0.00  0.00    -0.006 C 
ATOM      7  C   UNL     1      34.828 -23.095 -15.730  0.00  0.00    -0.000 C 
ATOM      8  C   UNL     1      35.909 -21.955 -17.611  0.00  0.00    -0.001 C 
ATOM      9  C   UNL     1      35.822 -21.328 -18.855  0.00  0.00    +0.021 C 
ATOM     10  C   UNL     1      33.437 -21.700 -18.876  0.00  0.00    -0.000 C 
ATOM     11  C   UNL     1      34.589 -21.202 -19.487  0.00  0.00    -0.001 C 
BRANCH   2  12
ATOM     12  C   UNL     1      31.213 -23.999 -15.099  0.00  0.00    -0.050 C 
BRANCH  12  13
ATOM     13  N   UNL     1      30.605 -23.033 -14.183  0.00  0.00    +0.390 N 
ATOM     14  H   UNL     1      31.194 -22.201 -14.150  0.00  0.00    -0.079 HD
BRANCH  13  15
ATOM     15  C   UNL     1      29.280 -22.641 -14.662  0.00  0.00    -0.077 C 
ATOM     16  C   UNL     1      28.538 -23.826 -15.255  0.00  0.00    -0.025 C 
ENDBRANCH  13  15
BRANCH  13  17
ATOM     17  C   UNL     1      30.519 -23.592 -12.836  0.00  0.00    -0.077 C 
ATOM     18  C   UNL     1      31.051 -25.015 -12.796  0.00  0.00    -0.025 C 
ENDBRANCH  13  17
ENDBRANCH  12  13
ENDBRANCH   2  12
ENDBRANCH   1   9
BRANCH   1  19
ATOM     19  O   UNL     1      37.073 -19.378 -19.392  0.00  0.00    -0.429 OA
BRANCH  19  22
ATOM     20  O   UNL     1      37.992 -18.525 -21.304  0.00  0.00    -0.226 OA
ATOM     21  N   UNL     1      35.745 -18.177 -20.746  0.00  0.00    -0.250 N 
ATOM     22  C   UNL     1      37.023 -18.668 -20.567  0.00  0.00    +0.406 C 
ATOM     23  H   UNL     1      35.095 -18.400 -20.040  0.00  0.00    +0.158 HD
BRANCH  21  24
ATOM     24  C   UNL     1      35.253 -17.397 -21.817  0.00  0.00    +0.053 C 
ATOM     25  C   UNL     1      34.804 -18.018 -22.983  0.00  0.00    +0.015 C 
ATOM     26  C   UNL     1      35.219 -16.007 -21.709  0.00  0.00    +0.015 C 
ATOM     27  C   UNL     1      34.286 -15.857 -23.932  0.00  0.00    +0.055 C 
ATOM     28  C   UNL     1      34.320 -17.248 -24.040  0.00  0.00    +0.006 C 
ATOM     29  C   UNL     1      34.735 -15.237 -22.766  0.00  0.00    +0.006 C 
BRANCH  27  32
ATOM     30  O   UNL     1      34.285 -15.143 -26.170  0.00  0.00    -0.268 OA
ATOM     31  N   UNL     1      32.733 -14.188 -24.760  0.00  0.00    -0.193 N 
ATOM     32  C   UNL     1      33.781 -15.055 -25.035  0.00  0.00    +0.268 C 
ATOM     33  H   UNL     1      32.340 -14.125 -23.859  0.00  0.00    +0.183 HD
BRANCH  31  34
ATOM     34  O   UNL     1      32.260 -13.408 -25.825  0.00  0.00    -0.295 OA
ATOM     35  H   UNL     1      32.263 -13.935 -26.639  0.00  0.00    +0.241 HD
ENDBRANCH  31  34
ENDBRANCH  27  32
ENDBRANCH  21  24
ENDBRANCH  19  22
ENDBRANCH   1  19
TORSDOF 10
ENDMDL
MODEL 2
REMARK VINA RESULT:     -11.5      2.689      3.792
REMARK  Name = 9804992
REMARK  10 active torsions:
REMARK  status: ('A' for Active; 'I' for Inactive)
REMARK    1  A    between atoms: C_1  and  C_9
REMARK    2  A    between atoms: C_1  and  O_19
REMARK    3  A    between atoms: C_2  and  C_12
REMARK    4  A    between atoms: C_12  and  N_13
REMARK    5  A    between atoms: N_13  and  C_15
REMARK    6  A    between atoms: N_13  and  C_17
REMARK    7  A    between atoms: O_19  and  C_22
REMARK    8  A    between atoms: N_21  and  C_24
REMARK    9  A    between atoms: C_27  and  C_32
REMARK   10  A    between atoms: N_31  and  O_34
REMARK                            x       y       z     vdW  Elec       q    Type
REMARK                         _______ _______ _______ _____ _____    ______ ____
ROOT
ATOM      1  C   UNL     1      35.537 -20.627 -20.025  0.00  0.00    +0.237 C 
ENDROOT
BRANCH   1   9
ATOM      2  C   UNL     1      35.878 -23.698 -14.286  0.00  0.00    -0.043 C 
ATOM      3  C   UNL     1      34.994 -22.868 -16.395  0.00  0.00    -0.000 C 
ATOM      4  C   UNL     1      36.232 -22.235 -16.657  0.00  0.00    -0.000 C 
ATOM      5  C   UNL     1      34.833 -23.596 -15.205  0.00  0.00    -0.006 C 
ATOM      6  C   UNL     1      37.096 -23.076 -14.544  0.00  0.00    -0.006 C 
ATOM      7  C   UNL     1      37.273 -22.349 -15.721  0.00  0.00    -0.000 C 
ATOM      8  C   UNL     1      36.394 -21.507 -17.847  0.00  0.00    -0.001 C 
ATOM      9  C   UNL     1      35.348 -21.404 -18.766  0.00  0.00    +0.021 C 
ATOM     10  C   UNL     1      33.953 -22.754 -17.331  0.00  0.00    -0.000 C 
ATOM     11  C   UNL     1      34.131 -22.027 -18.509  0.00  0.00    -0.001 C 
BRANCH   2  12
ATOM     12  C   UNL     1      35.689 -24.475 -13.026  0.00  0.00    -0.050 C 
BRANCH  12  13
ATOM     13  N   UNL     1      36.960 -24.823 -12.391  0.00  0.00    +0.390 N 
ATOM     14  H   UNL     1      37.714 -24.360 -12.898  0.00  0.00    -0.079 HD
BRANCH  13  15
ATOM     15  C   UNL     1      36.981 -24.358 -11.005  0.00  0.00    -0.077 C 
ATOM     16  C   UNL     1      37.054 -22.842 -10.936  0.00  0.00    -0.025 C 
ENDBRANCH  13  15
BRANCH  13  17
ATOM     17  C   UNL     1      37.181 -26.266 -12.450  0.00  0.00    -0.077 C 
ATOM     18  C   UNL     1      37.778 -26.677 -13.786  0.00  0.00    -0.025 C 
ENDBRANCH  13  17
ENDBRANCH  12  13
ENDBRANCH   2  12
ENDBRANCH   1   9
BRANCH   1  19
ATOM     19  O   UNL     1      36.725 -19.852 -19.928  0.00  0.00    -0.429 OA
BRANCH  19  22
ATOM     20  O   UNL     1      37.814 -18.415 -21.335  0.00  0.00    -0.226 OA
ATOM     21  N   UNL     1      35.575 -18.100 -20.730  0.00  0.00    -0.250 N 
ATOM     22  C   UNL     1      36.798 -18.740 -20.732  0.00  0.00    +0.406 C 
ATOM     23  H   UNL     1      34.871 -18.516 -20.181  0.00  0.00    +0.158 HD
BRANCH  21  24
ATOM     24  C   UNL     1      35.207 -16.922 -21.420  0.00  0.00    +0.053 C 
ATOM     25  C   UNL     1      35.118 -16.929 -22.813  0.00  0.00    +0.015 C 
ATOM     26  C   UNL     1      34.935 -15.753 -20.710  0.00  0.00    +0.015 C 
ATOM     27  C   UNL     1      34.485 -14.597 -22.783  0.00  0.00    +0.055 C 
ATOM     28  C   UNL     1      34.757 -15.767 -23.494  0.00  0.00    +0.006 C 
ATOM     29  C   UNL     1      34.574 -14.591 -21.391  0.00  0.00    +0.006 C 
BRANCH  27  32
ATOM     30  O   UNL     1      33.429 -13.444 -24.535  0.00  0.00    -0.268 OA
ATOM     31  N   UNL     1      34.548 -12.181 -22.967  0.00  0.00    -0.193 N 
ATOM     32  C   UNL     1      34.108 -13.386 -23.493  0.00  0.00    +0.268 C 
ATOM     33  H   UNL     1      35.086 -12.144 -22.141  0.00  0.00    +0.183 HD
BRANCH  31  34
ATOM     34  O   UNL     1      34.193 -11.017 -23.664  0.00  0.00    -0.295 OA
ATOM     35  H   UNL     1      33.428 -11.200 -24.231  0.00  0.00    +0.241 HD
ENDBRANCH  31  34
ENDBRANCH  27  32
ENDBRANCH  21  24
ENDBRANCH  19  22
ENDBRANCH   1  19
TORSDOF 10
ENDMDL
MODEL 3
REMARK VINA RESULT:     -11.2      5.228     12.054
REMARK  Name = 9804992
REMARK  10 active torsions:
REMARK  status: ('A' for Active; 'I' for Inactive)
REMARK    1  A    between atoms: C_1  and  C_9
REMARK    2  A    between atoms: C_1  and  O_19
REMARK    3  A    between atoms: C_2  and  C_12
REMARK    4  A    between atoms: C_12  and  N_13
REMARK    5  A    between atoms: N_13  and  C_15
REMARK    6  A    between atoms: N_13  and  C_17
REMARK    7  A    between atoms: O_19  and  C_22
REMARK    8  A    between atoms: N_21  and  C_24
REMARK    9  A    between atoms: C_27  and  C_32
REMARK   10  A    between atoms: N_31  and  O_34
REMARK                            x       y       z     vdW  Elec       q    Type
REMARK                         _______ _______ _______ _____ _____    ______ ____
ROOT
ATOM      1  C   UNL     1      33.982 -14.875 -23.725  0.00  0.00    +0.237 C 
ENDROOT
BRANCH   1   9
ATOM      2  C   UNL     1      31.936  -9.250 -21.146  0.00  0.00    -0.043 C 
ATOM      3  C   UNL     1      33.041 -10.822 -22.637  0.00  0.00    -0.000 C 
ATOM      4  C   UNL     1      32.550 -11.897 -21.857  0.00  0.00    -0.000 C 
ATOM      5  C   UNL     1      32.725  -9.505 -22.267  0.00  0.00    -0.006 C 
ATOM      6  C   UNL     1      31.453 -10.307 -20.380  0.00  0.00    -0.006 C 
ATOM      7  C   UNL     1      31.757 -11.621 -20.731  0.00  0.00    -0.000 C 
ATOM      8  C   UNL     1      32.866 -13.214 -22.226  0.00  0.00    -0.001 C 
ATOM      9  C   UNL     1      33.656 -13.469 -23.348  0.00  0.00    +0.021 C 
ATOM     10  C   UNL     1      33.834 -11.098 -23.763  0.00  0.00    -0.000 C 
ATOM     11  C   UNL     1      34.138 -12.413 -24.115  0.00  0.00    -0.001 C 
BRANCH   2  12
ATOM     12  C   UNL     1      31.610  -7.844 -20.768  0.00  0.00    -0.050 C 
BRANCH  12  13
ATOM     13  N   UNL     1      31.978  -6.887 -21.812  0.00  0.00    +0.390 N 
ATOM     14  H   UNL     1      32.554  -7.366 -22.503  0.00  0.00    -0.079 HD
BRANCH  13  15
ATOM     15  C   UNL     1      30.781  -6.380 -22.481  0.00  0.00    -0.077 C 
ATOM     16  C   UNL     1      30.823  -6.664 -23.972  0.00  0.00    -0.025 C 
ENDBRANCH  13  15
BRANCH  13  17
ATOM     17  C   UNL     1      32.754  -5.786 -21.245  0.00  0.00    -0.077 C 
ATOM     18  C   UNL     1      31.981  -4.480 -21.307  0.00  0.00    -0.025 C 
ENDBRANCH  13  17
ENDBRANCH  12  13
ENDBRANCH   2  12
ENDBRANCH   1   9
BRANCH   1  19
ATOM     19  O   UNL     1      35.244 -15.231 -23.176  0.00  0.00    -0.429 OA
BRANCH  19  22
ATOM     20  O   UNL     1      35.010 -15.460 -20.913  0.00  0.00    -0.226 OA
ATOM     21  N   UNL     1      35.467 -17.287 -22.304  0.00  0.00    -0.250 N 
ATOM     22  C   UNL     1      35.222 -15.960 -22.012  0.00  0.00    +0.406 C 
ATOM     23  H   UNL     1      35.614 -17.500 -23.255  0.00  0.00    +0.158 HD
BRANCH  21  24
ATOM     24  C   UNL     1      35.533 -18.378 -21.408  0.00  0.00    +0.053 C 
ATOM     25  C   UNL     1      36.746 -18.711 -20.803  0.00  0.00    +0.015 C 
ATOM     26  C   UNL     1      34.387 -19.122 -21.129  0.00  0.00    +0.015 C 
ATOM     27  C   UNL     1      35.664 -20.533 -19.641  0.00  0.00    +0.055 C 
ATOM     28  C   UNL     1      36.811 -19.788 -19.919  0.00  0.00    +0.006 C 
ATOM     29  C   UNL     1      34.453 -20.200 -20.246  0.00  0.00    +0.006 C 
BRANCH  27  32
ATOM     30  O   UNL     1      35.006 -22.654 -18.877  0.00  0.00    -0.268 OA
ATOM     31  N   UNL     1      36.629 -21.556 -17.665  0.00  0.00    -0.193 N 
ATOM     32  C   UNL     1      35.734 -21.656 -18.720  0.00  0.00    +0.268 C 
ATOM     33  H   UNL     1      37.201 -20.762 -17.549  0.00  0.00    +0.183 HD
BRANCH  31  34
ATOM     34  O   UNL     1      36.682 -22.636 -16.774  0.00  0.00    -0.295 OA
ATOM     35  H   UNL     1      35.786 -22.848 -16.468  0.00  0.00    +0.241 HD
ENDBRANCH  31  34
ENDBRANCH  27  32
ENDBRANCH  21  24
ENDBRANCH  19  22
ENDBRANCH   1  19
TORSDOF 10
ENDMDL
MODEL 4
REMARK VINA RESULT:     -11.2      2.871      4.610
REMARK  Name = 9804992
REMARK  10 active torsions:
REMARK  status: ('A' for Active; 'I' for Inactive)
REMARK    1  A    between atoms: C_1  and  C_9
REMARK    2  A    between atoms: C_1  and  O_19
REMARK    3  A    between atoms: C_2  and  C_12
REMARK    4  A    between atoms: C_12  and  N_13
REMARK    5  A    between atoms: N_13  and  C_15
REMARK    6  A    between atoms: N_13  and  C_17
REMARK    7  A    between atoms: O_19  and  C_22
REMARK    8  A    between atoms: N_21  and  C_24
REMARK    9  A    between atoms: C_27  and  C_32
REMARK   10  A    between atoms: N_31  and  O_34
REMARK                            x       y       z     vdW  Elec       q    Type
REMARK                         _______ _______ _______ _____ _____    ______ ____
ROOT
ATOM      1  C   UNL     1      36.106 -17.205 -22.136  0.00  0.00    +0.237 C 
ENDROOT
BRANCH   1   9
ATOM      2  C   UNL     1      33.888 -22.153 -18.519  0.00  0.00    -0.043 C 
ATOM      3  C   UNL     1      35.427 -20.595 -19.577  0.00  0.00    -0.000 C 
ATOM      4  C   UNL     1      34.332 -19.940 -20.189  0.00  0.00    -0.000 C 
ATOM      5  C   UNL     1      35.188 -21.700 -18.745  0.00  0.00    -0.006 C 
ATOM      6  C   UNL     1      32.812 -21.509 -19.121  0.00  0.00    -0.006 C 
ATOM      7  C   UNL     1      33.030 -20.409 -19.950  0.00  0.00    -0.000 C 
ATOM      8  C   UNL     1      34.571 -18.834 -21.022  0.00  0.00    -0.001 C 
ATOM      9  C   UNL     1      35.872 -18.381 -21.248  0.00  0.00    +0.021 C 
ATOM     10  C   UNL     1      36.729 -20.125 -19.816  0.00  0.00    -0.000 C 
ATOM     11  C   UNL     1      36.948 -19.024 -20.646  0.00  0.00    -0.001 C 
BRANCH   2  12
ATOM     12  C   UNL     1      33.653 -23.329 -17.632  0.00  0.00    -0.050 C 
BRANCH  12  13
ATOM     13  N   UNL     1      33.371 -22.937 -16.250  0.00  0.00    +0.390 N 
ATOM     14  H   UNL     1      33.502 -21.930 -16.165  0.00  0.00    -0.079 HD
BRANCH  13  15
ATOM     15  C   UNL     1      31.986 -23.254 -15.903  0.00  0.00    -0.077 C 
ATOM     16  C   UNL     1      31.773 -23.210 -14.400  0.00  0.00    -0.025 C 
ENDBRANCH  13  15
BRANCH  13  17
ATOM     17  C   UNL     1      34.294 -23.603 -15.333  0.00  0.00    -0.077 C 
ATOM     18  C   UNL     1      35.563 -22.789 -15.145  0.00  0.00    -0.025 C 
ENDBRANCH  13  17
ENDBRANCH  12  13
ENDBRANCH   2  12
ENDBRANCH   1   9
BRANCH   1  19
ATOM     19  O   UNL     1      35.235 -17.278 -23.257  0.00  0.00    -0.429 OA
BRANCH  19  22
ATOM     20  O   UNL     1      33.959 -15.962 -24.624  0.00  0.00    -0.226 OA
ATOM     21  N   UNL     1      34.542 -15.299 -22.456  0.00  0.00    -0.250 N 
ATOM     22  C   UNL     1      34.517 -16.144 -23.548  0.00  0.00    +0.406 C 
ATOM     23  H   UNL     1      35.047 -15.621 -21.673  0.00  0.00    +0.158 HD
BRANCH  21  24
ATOM     24  C   UNL     1      33.935 -14.030 -22.322  0.00  0.00    +0.053 C 
ATOM     25  C   UNL     1      34.192 -13.032 -23.263  0.00  0.00    +0.015 C 
ATOM     26  C   UNL     1      33.080 -13.776 -21.251  0.00  0.00    +0.015 C 
ATOM     27  C   UNL     1      32.738 -11.524 -22.058  0.00  0.00    +0.055 C 
ATOM     28  C   UNL     1      33.594 -11.779 -23.130  0.00  0.00    +0.006 C 
ATOM     29  C   UNL     1      32.481 -12.523 -21.118  0.00  0.00    +0.006 C 
BRANCH  27  32
ATOM     30  O   UNL     1      31.142 -10.053 -21.161  0.00  0.00    -0.268 OA
ATOM     31  N   UNL     1      32.643  -9.182 -22.676  0.00  0.00    -0.193 N 
ATOM     32  C   UNL     1      32.115 -10.218 -21.920  0.00  0.00    +0.268 C 
ATOM     33  H   UNL     1      33.414  -9.321 -23.274  0.00  0.00    +0.183 HD
BRANCH  31  34
ATOM     34  O   UNL     1      32.030  -7.927 -22.548  0.00  0.00    -0.295 OA
ATOM     35  H   UNL     1      32.392  -7.466 -21.776  0.00  0.00    +0.241 HD
ENDBRANCH  31  34
ENDBRANCH  27  32
ENDBRANCH  21  24
ENDBRANCH  19  22
ENDBRANCH   1  19
TORSDOF 10
ENDMDL
MODEL 5
REMARK VINA RESULT:     -11.1      3.730     11.277
REMARK  Name = 9804992
REMARK  10 active torsions:
REMARK  status: ('A' for Active; 'I' for Inactive)
REMARK    1  A    between atoms: C_1  and  C_9
REMARK    2  A    between atoms: C_1  and  O_19
REMARK    3  A    between atoms: C_2  and  C_12
REMARK    4  A    between atoms: C_12  and  N_13
REMARK    5  A    between atoms: N_13  and  C_15
REMARK    6  A    between atoms: N_13  and  C_17
REMARK    7  A    between atoms: O_19  and  C_22
REMARK    8  A    between atoms: N_21  and  C_24
REMARK    9  A    between atoms: C_27  and  C_32
REMARK   10  A    between atoms: N_31  and  O_34
REMARK                            x       y       z     vdW  Elec       q    Type
REMARK                         _______ _______ _______ _____ _____    ______ ____
ROOT
ATOM      1  C   UNL     1      34.981 -17.705 -23.063  0.00  0.00    +0.237 C 
ENDROOT
BRANCH   1   9
ATOM      2  C   UNL     1      33.499 -11.438 -24.067  0.00  0.00    -0.043 C 
ATOM      3  C   UNL     1      34.230 -13.472 -22.951  0.00  0.00    -0.000 C 
ATOM      4  C   UNL     1      33.991 -14.202 -24.140  0.00  0.00    -0.000 C 
ATOM      5  C   UNL     1      33.979 -12.091 -22.931  0.00  0.00    -0.006 C 
ATOM      6  C   UNL     1      33.266 -12.155 -25.236  0.00  0.00    -0.006 C 
ATOM      7  C   UNL     1      33.509 -13.528 -25.274  0.00  0.00    -0.000 C 
ATOM      8  C   UNL     1      34.242 -15.583 -24.160  0.00  0.00    -0.001 C 
ATOM      9  C   UNL     1      34.721 -16.237 -23.023  0.00  0.00    +0.021 C 
ATOM     10  C   UNL     1      34.711 -14.146 -21.817  0.00  0.00    -0.000 C 
ATOM     11  C   UNL     1      34.956 -15.519 -21.854  0.00  0.00    -0.001 C 
BRANCH   2  12
ATOM     12  C   UNL     1      33.238  -9.970 -24.028  0.00  0.00    -0.050 C 
BRANCH  12  13
ATOM     13  N   UNL     1      33.146  -9.456 -22.661  0.00  0.00    +0.390 N 
ATOM     14  H   UNL     1      33.565 -10.138 -22.029  0.00  0.00    -0.079 HD
BRANCH  13  15
ATOM     15  C   UNL     1      33.882  -8.199 -22.538  0.00  0.00    -0.077 C 
ATOM     16  C   UNL     1      32.947  -7.044 -22.224  0.00  0.00    -0.025 C 
ENDBRANCH  13  15
BRANCH  13  17
ATOM     17  C   UNL     1      31.747  -9.271 -22.279  0.00  0.00    -0.077 C 
ATOM     18  C   UNL     1      31.353 -10.219 -21.159  0.00  0.00    -0.025 C 
ENDBRANCH  13  17
ENDBRANCH  12  13
ENDBRANCH   2  12
ENDBRANCH   1   9
BRANCH   1  19
ATOM     19  O   UNL     1      36.196 -17.988 -22.380  0.00  0.00    -0.429 OA
BRANCH  19  22
ATOM     20  O   UNL     1      36.841 -18.436 -20.232  0.00  0.00    -0.226 OA
ATOM     21  N   UNL     1      35.011 -19.505 -21.226  0.00  0.00    -0.250 N 
ATOM     22  C   UNL     1      36.083 -18.637 -21.174  0.00  0.00    +0.406 C 
ATOM     23  H   UNL     1      34.515 -19.528 -22.077  0.00  0.00    +0.158 HD
BRANCH  21  24
ATOM     24  C   UNL     1      34.537 -20.366 -20.210  0.00  0.00    +0.053 C 
ATOM     25  C   UNL     1      35.434 -21.163 -19.498  0.00  0.00    +0.015 C 
ATOM     26  C   UNL     1      33.174 -20.419 -19.920  0.00  0.00    +0.015 C 
ATOM     27  C   UNL     1      33.602 -22.067 -18.206  0.00  0.00    +0.055 C 
ATOM     28  C   UNL     1      34.967 -22.014 -18.496  0.00  0.00    +0.006 C 
ATOM     29  C   UNL     1      32.707 -21.270 -18.918  0.00  0.00    +0.006 C 
BRANCH  27  32
ATOM     30  O   UNL     1      33.844 -23.850 -16.697  0.00  0.00    -0.268 OA
ATOM     31  N   UNL     1      31.814 -22.762 -16.724  0.00  0.00    -0.193 N 
ATOM     32  C   UNL     1      33.116 -22.954 -17.162  0.00  0.00    +0.268 C 
ATOM     33  H   UNL     1      31.244 -22.050 -17.097  0.00  0.00    +0.183 HD
BRANCH  31  34
ATOM     34  O   UNL     1      31.346 -23.628 -15.726  0.00  0.00    -0.295 OA
ATOM     35  H   UNL     1      30.403 -23.463 -15.568  0.00  0.00    +0.241 HD
ENDBRANCH  31  34
ENDBRANCH  27  32
ENDBRANCH  21  24
ENDBRANCH  19  22
ENDBRANCH   1  19
TORSDOF 10
ENDMDL
MODEL 6
REMARK VINA RESULT:     -11.0      4.413     10.982
REMARK  Name = 9804992
REMARK  10 active torsions:
REMARK  status: ('A' for Active; 'I' for Inactive)
REMARK    1  A    between atoms: C_1  and  C_9
REMARK    2  A    between atoms: C_1  and  O_19
REMARK    3  A    between atoms: C_2  and  C_12
REMARK    4  A    between atoms: C_12  and  N_13
REMARK    5  A    between atoms: N_13  and  C_15
REMARK    6  A    between atoms: N_13  and  C_17
REMARK    7  A    between atoms: O_19  and  C_22
REMARK    8  A    between atoms: N_21  and  C_24
REMARK    9  A    between atoms: C_27  and  C_32
REMARK   10  A    between atoms: N_31  and  O_34
REMARK                            x       y       z     vdW  Elec       q    Type
REMARK                         _______ _______ _______ _____ _____    ______ ____
ROOT
ATOM      1  C   UNL     1      35.566 -16.433 -22.563  0.00  0.00    +0.237 C 
ENDROOT
BRANCH   1   9
ATOM      2  C   UNL     1      31.880 -11.299 -20.971  0.00  0.00    -0.043 C 
ATOM      3  C   UNL     1      33.242 -12.825 -22.287  0.00  0.00    -0.000 C 
ATOM      4  C   UNL     1      33.397 -13.655 -21.152  0.00  0.00    -0.000 C 
ATOM      5  C   UNL     1      32.481 -11.650 -22.180  0.00  0.00    -0.006 C 
ATOM      6  C   UNL     1      32.031 -12.116 -19.855  0.00  0.00    -0.006 C 
ATOM      7  C   UNL     1      32.784 -13.287 -19.943  0.00  0.00    -0.000 C 
ATOM      8  C   UNL     1      34.158 -14.830 -21.259  0.00  0.00    -0.001 C 
ATOM      9  C   UNL     1      34.760 -15.182 -22.468  0.00  0.00    +0.021 C 
ATOM     10  C   UNL     1      33.855 -13.193 -23.496  0.00  0.00    -0.000 C 
ATOM     11  C   UNL     1      34.608 -14.365 -23.585  0.00  0.00    -0.001 C 
BRANCH   2  12
ATOM     12  C   UNL     1      31.075 -10.046 -20.875  0.00  0.00    -0.050 C 
BRANCH  12  13
ATOM     13  N   UNL     1      31.886  -8.845 -21.076  0.00  0.00    +0.390 N 
ATOM     14  H   UNL     1      32.831  -9.131 -21.331  0.00  0.00    -0.079 HD
BRANCH  13  15
ATOM     15  C   UNL     1      31.338  -8.037 -22.165  0.00  0.00    -0.077 C 
ATOM     16  C   UNL     1      32.370  -7.815 -23.257  0.00  0.00    -0.025 C 
ENDBRANCH  13  15
BRANCH  13  17
ATOM     17  C   UNL     1      31.956  -8.065 -19.843  0.00  0.00    -0.077 C 
ATOM     18  C   UNL     1      33.201  -7.195 -19.813  0.00  0.00    -0.025 C 
ENDBRANCH  13  17
ENDBRANCH  12  13
ENDBRANCH   2  12
ENDBRANCH   1   9
BRANCH   1  19
ATOM     19  O   UNL     1      34.867 -17.386 -23.355  0.00  0.00    -0.429 OA
BRANCH  19  22
ATOM     20  O   UNL     1      34.834 -19.664 -23.554  0.00  0.00    -0.226 OA
ATOM     21  N   UNL     1      34.663 -18.598 -21.477  0.00  0.00    -0.250 N 
ATOM     22  C   UNL     1      34.790 -18.661 -22.850  0.00  0.00    +0.406 C 
ATOM     23  H   UNL     1      34.647 -17.693 -21.086  0.00  0.00    +0.158 HD
BRANCH  21  24
ATOM     24  C   UNL     1      34.552 -19.669 -20.562  0.00  0.00    +0.053 C 
ATOM     25  C   UNL     1      35.703 -20.281 -20.063  0.00  0.00    +0.015 C 
ATOM     26  C   UNL     1      33.294 -20.116 -20.159  0.00  0.00    +0.015 C 
ATOM     27  C   UNL     1      34.336 -21.786 -18.757  0.00  0.00    +0.055 C 
ATOM     28  C   UNL     1      35.595 -21.339 -19.161  0.00  0.00    +0.006 C 
ATOM     29  C   UNL     1      33.186 -21.174 -19.256  0.00  0.00    +0.006 C 
BRANCH  27  32
ATOM     30  O   UNL     1      33.603 -23.924 -18.121  0.00  0.00    -0.268 OA
ATOM     31  N   UNL     1      34.824 -22.728 -16.577  0.00  0.00    -0.193 N 
ATOM     32  C   UNL     1      34.224 -22.889 -17.817  0.00  0.00    +0.268 C 
ATOM     33  H   UNL     1      35.314 -21.905 -16.345  0.00  0.00    +0.183 HD
BRANCH  31  34
ATOM     34  O   UNL     1      34.702 -23.790 -15.670  0.00  0.00    -0.295 OA
ATOM     35  H   UNL     1      35.003 -23.505 -14.794  0.00  0.00    +0.241 HD
ENDBRANCH  31  34
ENDBRANCH  27  32
ENDBRANCH  21  24
ENDBRANCH  19  22
ENDBRANCH   1  19
TORSDOF 10
ENDMDL
MODEL 7
REMARK VINA RESULT:     -11.0      6.175      9.556
REMARK  Name = 9804992
REMARK  10 active torsions:
REMARK  status: ('A' for Active; 'I' for Inactive)
REMARK    1  A    between atoms: C_1  and  C_9
REMARK    2  A    between atoms: C_1  and  O_19
REMARK    3  A    between atoms: C_2  and  C_12
REMARK    4  A    between atoms: C_12  and  N_13
REMARK    5  A    between atoms: N_13  and  C_15
REMARK    6  A    between atoms: N_13  and  C_17
REMARK    7  A    between atoms: O_19  and  C_22
REMARK    8  A    between atoms: N_21  and  C_24
REMARK    9  A    between atoms: C_27  and  C_32
REMARK   10  A    between atoms: N_31  and  O_34
REMARK                            x       y       z     vdW  Elec       q    Type
REMARK                         _______ _______ _______ _____ _____    ______ ____
ROOT
ATOM      1  C   UNL     1      33.719 -12.396 -23.309  0.00  0.00    +0.237 C 
ENDROOT
BRANCH   1   9
ATOM      2  C   UNL     1      35.782 -18.204 -21.192  0.00  0.00    -0.043 C 
ATOM      3  C   UNL     1      34.999 -15.902 -21.173  0.00  0.00    -0.000 C 
ATOM      4  C   UNL     1      34.945 -15.915 -22.587  0.00  0.00    -0.000 C 
ATOM      5  C   UNL     1      35.420 -17.054 -20.490  0.00  0.00    -0.006 C 
ATOM      6  C   UNL     1      35.728 -18.218 -22.582  0.00  0.00    -0.006 C 
ATOM      7  C   UNL     1      35.313 -17.082 -23.277  0.00  0.00    -0.000 C 
ATOM      8  C   UNL     1      34.524 -14.762 -23.269  0.00  0.00    -0.001 C 
ATOM      9  C   UNL     1      34.163 -13.611 -22.568  0.00  0.00    +0.021 C 
ATOM     10  C   UNL     1      34.631 -14.735 -20.483  0.00  0.00    -0.000 C 
ATOM     11  C   UNL     1      34.215 -13.598 -21.177  0.00  0.00    -0.001 C 
BRANCH   2  12
ATOM     12  C   UNL     1      36.227 -19.420 -20.451  0.00  0.00    -0.050 C 
BRANCH  12  13
ATOM     13  N   UNL     1      35.127 -20.073 -19.740  0.00  0.00    +0.390 N 
ATOM     14  H   UNL     1      34.921 -19.537 -18.897  0.00  0.00    -0.079 HD
BRANCH  13  15
ATOM     15  C   UNL     1      33.927 -20.100 -20.574  0.00  0.00    -0.077 C 
ATOM     16  C   UNL     1      32.686 -20.377 -19.743  0.00  0.00    -0.025 C 
ENDBRANCH  13  15
BRANCH  13  17
ATOM     17  C   UNL     1      35.508 -21.427 -19.345  0.00  0.00    -0.077 C 
ATOM     18  C   UNL     1      36.458 -21.408 -18.160  0.00  0.00    -0.025 C 
ENDBRANCH  13  17
ENDBRANCH  12  13
ENDBRANCH   2  12
ENDBRANCH   1   9
BRANCH   1  19
ATOM     19  O   UNL     1      32.986 -11.549 -22.433  0.00  0.00    -0.429 OA
BRANCH  19  22
ATOM     20  O   UNL     1      33.757  -9.719 -23.568  0.00  0.00    -0.226 OA
ATOM     21  N   UNL     1      32.244  -9.530 -21.792  0.00  0.00    -0.250 N 
ATOM     22  C   UNL     1      33.061 -10.200 -22.682  0.00  0.00    +0.406 C 
ATOM     23  H   UNL     1      31.757 -10.092 -21.146  0.00  0.00    +0.158 HD
BRANCH  21  24
ATOM     24  C   UNL     1      32.020  -8.138 -21.693  0.00  0.00    +0.053 C 
ATOM     25  C   UNL     1      32.855  -7.353 -20.897  0.00  0.00    +0.015 C 
ATOM     26  C   UNL     1      30.966  -7.549 -22.391  0.00  0.00    +0.015 C 
ATOM     27  C   UNL     1      31.579  -5.390 -21.497  0.00  0.00    +0.055 C 
ATOM     28  C   UNL     1      32.634  -5.979 -20.798  0.00  0.00    +0.006 C 
ATOM     29  C   UNL     1      30.745  -6.176 -22.293  0.00  0.00    +0.006 C 
BRANCH  27  32
ATOM     30  O   UNL     1      32.122  -3.235 -20.739  0.00  0.00    -0.268 OA
ATOM     31  N   UNL     1      30.233  -3.448 -22.042  0.00  0.00    -0.193 N 
ATOM     32  C   UNL     1      31.349  -3.958 -21.393  0.00  0.00    +0.268 C 
ATOM     33  H   UNL     1      29.627  -4.028 -22.558  0.00  0.00    +0.183 HD
BRANCH  31  34
ATOM     34  O   UNL     1      30.010  -2.068 -21.928  0.00  0.00    -0.295 OA
ATOM     35  H   UNL     1      29.862  -1.840 -20.997  0.00  0.00    +0.241 HD
ENDBRANCH  31  34
ENDBRANCH  27  32
ENDBRANCH  21  24
ENDBRANCH  19  22
ENDBRANCH   1  19
TORSDOF 10
ENDMDL
MODEL 8
REMARK VINA RESULT:     -10.9      4.071     11.483
REMARK  Name = 9804992
REMARK  10 active torsions:
REMARK  status: ('A' for Active; 'I' for Inactive)
REMARK    1  A    between atoms: C_1  and  C_9
REMARK    2  A    between atoms: C_1  and  O_19
REMARK    3  A    between atoms: C_2  and  C_12
REMARK    4  A    between atoms: C_12  and  N_13
REMARK    5  A    between atoms: N_13  and  C_15
REMARK    6  A    between atoms: N_13  and  C_17
REMARK    7  A    between atoms: O_19  and  C_22
REMARK    8  A    between atoms: N_21  and  C_24
REMARK    9  A    between atoms: C_27  and  C_32
REMARK   10  A    between atoms: N_31  and  O_34
REMARK                            x       y       z     vdW  Elec       q    Type
REMARK                         _______ _______ _______ _____ _____    ______ ____
ROOT
ATOM      1  C   UNL     1      34.477 -16.966 -24.128  0.00  0.00    +0.237 C 
ENDROOT
BRANCH   1   9
ATOM      2  C   UNL     1      33.517 -10.545 -23.557  0.00  0.00    -0.043 C 
ATOM      3  C   UNL     1      34.061 -12.843 -22.977  0.00  0.00    -0.000 C 
ATOM      4  C   UNL     1      33.790 -13.237 -24.309  0.00  0.00    -0.000 C 
ATOM      5  C   UNL     1      33.920 -11.493 -22.617  0.00  0.00    -0.006 C 
ATOM      6  C   UNL     1      33.251 -10.932 -24.867  0.00  0.00    -0.006 C 
ATOM      7  C   UNL     1      33.385 -12.268 -25.242  0.00  0.00    -0.000 C 
ATOM      8  C   UNL     1      33.931 -14.587 -24.669  0.00  0.00    -0.001 C 
ATOM      9  C   UNL     1      34.333 -15.537 -23.728  0.00  0.00    +0.021 C 
ATOM     10  C   UNL     1      34.466 -13.812 -22.044  0.00  0.00    -0.000 C 
ATOM     11  C   UNL     1      34.601 -15.150 -22.419  0.00  0.00    -0.001 C 
BRANCH   2  12
ATOM     12  C   UNL     1      33.372  -9.115 -23.158  0.00  0.00    -0.050 C 
BRANCH  12  13
ATOM     13  N   UNL     1      32.834  -8.966 -21.805  0.00  0.00    +0.390 N 
ATOM     14  H   UNL     1      33.331  -9.606 -21.186  0.00  0.00    -0.079 HD
BRANCH  13  15
ATOM     15  C   UNL     1      33.042  -7.602 -21.322  0.00  0.00    -0.077 C 
ATOM     16  C   UNL     1      33.983  -6.833 -22.233  0.00  0.00    -0.025 C 
ENDBRANCH  13  15
BRANCH  13  17
ATOM     17  C   UNL     1      31.414  -9.308 -21.781  0.00  0.00    -0.077 C 
ATOM     18  C   UNL     1      31.085 -10.207 -20.601  0.00  0.00    -0.025 C 
ENDBRANCH  13  17
ENDBRANCH  12  13
ENDBRANCH   2  12
ENDBRANCH   1   9
BRANCH   1  19
ATOM     19  O   UNL     1      35.467 -17.586 -23.317  0.00  0.00    -0.429 OA
BRANCH  19  22
ATOM     20  O   UNL     1      34.883 -19.789 -23.502  0.00  0.00    -0.226 OA
ATOM     21  N   UNL     1      35.197 -18.760 -21.423  0.00  0.00    -0.250 N 
ATOM     22  C   UNL     1      35.152 -18.820 -22.802  0.00  0.00    +0.406 C 
ATOM     23  H   UNL     1      35.437 -17.885 -21.037  0.00  0.00    +0.158 HD
BRANCH  21  24
ATOM     24  C   UNL     1      34.944 -19.797 -20.497  0.00  0.00    +0.053 C 
ATOM     25  C   UNL     1      33.629 -20.143 -20.181  0.00  0.00    +0.015 C 
ATOM     26  C   UNL     1      36.006 -20.474 -19.899  0.00  0.00    +0.015 C 
ATOM     27  C   UNL     1      34.442 -21.843 -18.668  0.00  0.00    +0.055 C 
ATOM     28  C   UNL     1      33.378 -21.166 -19.267  0.00  0.00    +0.006 C 
ATOM     29  C   UNL     1      35.755 -21.497 -18.985  0.00  0.00    +0.006 C 
BRANCH  27  32
ATOM     30  O   UNL     1      33.441 -23.865 -18.015  0.00  0.00    -0.268 OA
ATOM     31  N   UNL     1      34.776 -22.803 -16.467  0.00  0.00    -0.193 N 
ATOM     32  C   UNL     1      34.180 -22.909 -17.715  0.00  0.00    +0.268 C 
ATOM     33  H   UNL     1      35.360 -22.043 -16.237  0.00  0.00    +0.183 HD
BRANCH  31  34
ATOM     34  O   UNL     1      34.509 -23.827 -15.547  0.00  0.00    -0.295 OA
ATOM     35  H   UNL     1      33.708 -24.304 -15.817  0.00  0.00    +0.241 HD
ENDBRANCH  31  34
ENDBRANCH  27  32
ENDBRANCH  21  24
ENDBRANCH  19  22
ENDBRANCH   1  19
TORSDOF 10
ENDMDL
MODEL 9
REMARK VINA RESULT:     -10.9      5.440     12.293
REMARK  Name = 9804992
REMARK  10 active torsions:
REMARK  status: ('A' for Active; 'I' for Inactive)
REMARK    1  A    between atoms: C_1  and  C_9
REMARK    2  A    between atoms: C_1  and  O_19
REMARK    3  A    between atoms: C_2  and  C_12
REMARK    4  A    between atoms: C_12  and  N_13
REMARK    5  A    between atoms: N_13  and  C_15
REMARK    6  A    between atoms: N_13  and  C_17
REMARK    7  A    between atoms: O_19  and  C_22
REMARK    8  A    between atoms: N_21  and  C_24
REMARK    9  A    between atoms: C_27  and  C_32
REMARK   10  A    between atoms: N_31  and  O_34
REMARK                            x       y       z     vdW  Elec       q    Type
REMARK                         _______ _______ _______ _____ _____    ______ ____
ROOT
ATOM      1  C   UNL     1      34.197 -14.852 -23.434  0.00  0.00    +0.237 C 
ENDROOT
BRANCH   1   9
ATOM      2  C   UNL     1      32.352  -8.801 -21.863  0.00  0.00    -0.043 C 
ATOM      3  C   UNL     1      32.498 -11.229 -21.857  0.00  0.00    -0.000 C 
ATOM      4  C   UNL     1      33.462 -11.166 -22.892  0.00  0.00    -0.000 C 
ATOM      5  C   UNL     1      31.953 -10.037 -21.354  0.00  0.00    -0.006 C 
ATOM      6  C   UNL     1      33.300  -8.740 -22.879  0.00  0.00    -0.006 C 
ATOM      7  C   UNL     1      33.852  -9.913 -23.392  0.00  0.00    -0.000 C 
ATOM      8  C   UNL     1      34.007 -12.358 -23.395  0.00  0.00    -0.001 C 
ATOM      9  C   UNL     1      33.607 -13.595 -22.887  0.00  0.00    +0.021 C 
ATOM     10  C   UNL     1      32.108 -12.482 -21.357  0.00  0.00    -0.000 C 
ATOM     11  C   UNL     1      32.660 -13.657 -21.869  0.00  0.00    -0.001 C 
BRANCH   2  12
ATOM     12  C   UNL     1      31.762  -7.544 -21.316  0.00  0.00    -0.050 C 
BRANCH  12  13
ATOM     13  N   UNL     1      32.097  -6.373 -22.127  0.00  0.00    +0.390 N 
ATOM     14  H   UNL     1      32.799  -6.644 -22.815  0.00  0.00    -0.079 HD
BRANCH  13  15
ATOM     15  C   UNL     1      30.915  -5.890 -22.838  0.00  0.00    -0.077 C 
ATOM     16  C   UNL     1      31.019  -6.166 -24.328  0.00  0.00    -0.025 C 
ENDBRANCH  13  15
BRANCH  13  17
ATOM     17  C   UNL     1      32.658  -5.316 -21.287  0.00  0.00    -0.077 C 
ATOM     18  C   UNL     1      31.780  -4.076 -21.307  0.00  0.00    -0.025 C 
ENDBRANCH  13  17
ENDBRANCH  12  13
ENDBRANCH   2  12
ENDBRANCH   1   9
BRANCH   1  19
ATOM     19  O   UNL     1      35.382 -15.169 -22.715  0.00  0.00    -0.429 OA
BRANCH  19  22
ATOM     20  O   UNL     1      35.042 -15.555 -20.487  0.00  0.00    -0.226 OA
ATOM     21  N   UNL     1      35.330 -17.302 -22.018  0.00  0.00    -0.250 N 
ATOM     22  C   UNL     1      35.233 -15.984 -21.619  0.00  0.00    +0.406 C 
ATOM     23  H   UNL     1      35.485 -17.452 -22.980  0.00  0.00    +0.158 HD
BRANCH  21  24
ATOM     24  C   UNL     1      35.235 -18.464 -21.219  0.00  0.00    +0.053 C 
ATOM     25  C   UNL     1      36.389 -19.032 -20.677  0.00  0.00    +0.015 C 
ATOM     26  C   UNL     1      33.990 -19.042 -20.973  0.00  0.00    +0.015 C 
ATOM     27  C   UNL     1      35.050 -20.758 -19.642  0.00  0.00    +0.055 C 
ATOM     28  C   UNL     1      36.296 -20.179 -19.888  0.00  0.00    +0.006 C 
ATOM     29  C   UNL     1      33.897 -20.189 -20.184  0.00  0.00    +0.006 C 
BRANCH  27  32
ATOM     30  O   UNL     1      35.860 -22.251 -18.020  0.00  0.00    -0.268 OA
ATOM     31  N   UNL     1      33.823 -22.742 -18.979  0.00  0.00    -0.193 N 
ATOM     32  C   UNL     1      34.954 -21.953 -18.820  0.00  0.00    +0.268 C 
ATOM     33  H   UNL     1      33.110 -22.498 -19.615  0.00  0.00    +0.183 HD
BRANCH  31  34
ATOM     34  O   UNL     1      33.742 -23.900 -18.193  0.00  0.00    -0.295 OA
ATOM     35  H   UNL     1      32.970 -23.842 -17.609  0.00  0.00    +0.241 HD
ENDBRANCH  31  34
ENDBRANCH  27  32
ENDBRANCH  21  24
ENDBRANCH  19  22
ENDBRANCH   1  19
TORSDOF 10
ENDMDL
