MODEL 1
REMARK VINA RESULT:     -11.7      0.000      0.000
REMARK  Name = 5287739
REMARK  3 active torsions:
REMARK  status: ('A' for Active; 'I' for Inactive)
REMARK    1  A    between atoms: C_2  and  O_21
REMARK    2  A    between atoms: C_3  and  O_23
REMARK    3  A    between atoms: C_4  and  O_25
REMARK                            x       y       z     vdW  Elec       q    Type
REMARK                         _______ _______ _______ _____ _____    ______ ____
ROOT
ATOM      1  C   UNL     1      35.614 -23.719 -13.172  0.00  0.00    -0.021 C 
ATOM      2  C   UNL     1      37.231 -24.773 -10.982  0.00  0.00    +0.168 C 
ATOM      3  C   UNL     1      37.886 -23.817 -11.981  0.00  0.00    +0.162 C 
ATOM      4  C   UNL     1      35.802 -24.324 -10.691  0.00  0.00    +0.144 C 
ATOM      5  C   UNL     1      34.948 -24.340 -11.957  0.00  0.00    +0.058 C 
ATOM      6  C   UNL     1      37.006 -23.489 -13.170  0.00  0.00    +0.003 C 
ATOM      7  C   UNL     1      34.845 -23.412 -14.336  0.00  0.00    -0.004 C 
ATOM      8  C   UNL     1      35.488 -22.835 -15.462  0.00  0.00    -0.000 C 
ATOM      9  C   UNL     1      36.876 -22.582 -15.434  0.00  0.00    -0.000 C 
ATOM     10  C   UNL     1      37.615 -22.913 -14.295  0.00  0.00    -0.002 C 
ATOM     11  C   UNL     1      34.750 -22.507 -16.633  0.00  0.00    -0.000 C 
ATOM     12  C   UNL     1      33.458 -23.656 -14.439  0.00  0.00    -0.000 C 
ATOM     13  C   UNL     1      33.362 -22.760 -16.693  0.00  0.00    -0.000 C 
ATOM     14  C   UNL     1      35.399 -21.927 -17.750  0.00  0.00    -0.000 C 
ATOM     15  C   UNL     1      37.504 -22.008 -16.548  0.00  0.00    -0.000 C 
ATOM     16  C   UNL     1      32.732 -23.337 -15.589  0.00  0.00    -0.000 C 
ATOM     17  C   UNL     1      36.775 -21.682 -17.691  0.00  0.00    -0.000 C 
ATOM     18  C   UNL     1      32.644 -22.432 -17.851  0.00  0.00    -0.000 C 
ATOM     19  C   UNL     1      34.656 -21.609 -18.897  0.00  0.00    -0.000 C 
ATOM     20  C   UNL     1      33.287 -21.860 -18.945  0.00  0.00    +0.000 C 
ENDROOT
BRANCH   2  21
ATOM     21  O   UNL     1      37.220 -26.096 -11.518  0.00  0.00    -0.379 OA
ATOM     22  H   UNL     1      37.794 -26.666 -10.983  0.00  0.00    +0.211 HD
ENDBRANCH   2  21
BRANCH   3  23
ATOM     23  O   UNL     1      38.199 -22.588 -11.327  0.00  0.00    -0.377 OA
ATOM     24  H   UNL     1      37.654 -22.499 -10.529  0.00  0.00    +0.211 HD
ENDBRANCH   3  23
BRANCH   4  25
ATOM     25  O   UNL     1      35.204 -25.187  -9.728  0.00  0.00    -0.382 OA
ATOM     26  H   UNL     1      35.821 -25.330  -8.994  0.00  0.00    +0.210 HD
ENDBRANCH   4  25
TORSDOF 3
ENDMDL
MODEL 2
REMARK VINA RESULT:     -11.1      0.906      3.139
REMARK  Name = 5287739
REMARK  3 active torsions:
REMARK  status: ('A' for Active; 'I' for Inactive)
REMARK    1  A    between atoms: C_2  and  O_21
REMARK    2  A    between atoms: C_3  and  O_23
REMARK    3  A    between atoms: C_4  and  O_25
REMARK                            x       y       z     vdW  Elec       q    Type
REMARK                         _______ _______ _______ _____ _____    ______ ____
ROOT
ATOM      1  C   UNL     1      36.509 -23.155 -13.595  0.00  0.00    -0.021 C 
ATOM      2  C   UNL     1      36.924 -23.567 -10.734  0.00  0.00    +0.168 C 
ATOM      3  C   UNL     1      35.624 -24.071 -11.365  0.00  0.00    +0.162 C 
ATOM      4  C   UNL     1      38.092 -23.803 -11.689  0.00  0.00    +0.144 C 
ATOM      5  C   UNL     1      37.899 -23.039 -12.998  0.00  0.00    +0.058 C 
ATOM      6  C   UNL     1      35.443 -23.635 -12.805  0.00  0.00    +0.003 C 
ATOM      7  C   UNL     1      36.265 -22.736 -14.938  0.00  0.00    -0.004 C 
ATOM      8  C   UNL     1      34.956 -22.851 -15.476  0.00  0.00    -0.000 C 
ATOM      9  C   UNL     1      33.906 -23.361 -14.684  0.00  0.00    -0.000 C 
ATOM     10  C   UNL     1      34.160 -23.742 -13.364  0.00  0.00    -0.002 C 
ATOM     11  C   UNL     1      34.681 -22.452 -16.814  0.00  0.00    -0.000 C 
ATOM     12  C   UNL     1      37.264 -22.200 -15.780  0.00  0.00    -0.000 C 
ATOM     13  C   UNL     1      35.711 -21.927 -17.625  0.00  0.00    -0.000 C 
ATOM     14  C   UNL     1      33.374 -22.574 -17.343  0.00  0.00    -0.000 C 
ATOM     15  C   UNL     1      32.617 -23.475 -15.222  0.00  0.00    -0.000 C 
ATOM     16  C   UNL     1      36.995 -21.805 -17.093  0.00  0.00    -0.000 C 
ATOM     17  C   UNL     1      32.354 -23.089 -16.536  0.00  0.00    -0.000 C 
ATOM     18  C   UNL     1      35.429 -21.538 -18.942  0.00  0.00    -0.000 C 
ATOM     19  C   UNL     1      33.119 -22.177 -18.664  0.00  0.00    -0.000 C 
ATOM     20  C   UNL     1      34.142 -21.663 -19.458  0.00  0.00    +0.000 C 
ENDROOT
BRANCH   2  21
ATOM     21  O   UNL     1      36.812 -22.173 -10.447  0.00  0.00    -0.379 OA
ATOM     22  H   UNL     1      35.896 -21.966 -10.209  0.00  0.00    +0.211 HD
ENDBRANCH   2  21
BRANCH   3  23
ATOM     23  O   UNL     1      35.607 -25.497 -11.343  0.00  0.00    -0.377 OA
ATOM     24  H   UNL     1      35.421 -25.803 -10.441  0.00  0.00    +0.211 HD
ENDBRANCH   3  23
BRANCH   4  25
ATOM     25  O   UNL     1      39.310 -23.375 -11.088  0.00  0.00    -0.382 OA
ATOM     26  H   UNL     1      40.054 -23.855 -11.486  0.00  0.00    +0.210 HD
ENDBRANCH   4  25
TORSDOF 3
ENDMDL
MODEL 3
REMARK VINA RESULT:     -10.4      3.056      4.983
REMARK  Name = 5287739
REMARK  3 active torsions:
REMARK  status: ('A' for Active; 'I' for Inactive)
REMARK    1  A    between atoms: C_2  and  O_21
REMARK    2  A    between atoms: C_3  and  O_23
REMARK    3  A    between atoms: C_4  and  O_25
REMARK                            x       y       z     vdW  Elec       q    Type
REMARK                         _______ _______ _______ _____ _____    ______ ____
ROOT
ATOM      1  C   UNL     1      31.673 -23.564 -15.213  0.00  0.00    -0.021 C 
ATOM      2  C   UNL     1      29.743 -25.016 -13.571  0.00  0.00    +0.168 C 
ATOM      3  C   UNL     1      31.063 -24.577 -12.934  0.00  0.00    +0.162 C 
ATOM      4  C   UNL     1      29.236 -23.930 -14.516  0.00  0.00    +0.144 C 
ATOM      5  C   UNL     1      30.225 -23.679 -15.653  0.00  0.00    +0.058 C 
ATOM      6  C   UNL     1      32.053 -24.003 -13.927  0.00  0.00    +0.003 C 
ATOM      7  C   UNL     1      32.660 -23.057 -16.112  0.00  0.00    -0.004 C 
ATOM      8  C   UNL     1      34.009 -22.961 -15.680  0.00  0.00    -0.000 C 
ATOM      9  C   UNL     1      34.370 -23.376 -14.380  0.00  0.00    -0.000 C 
ATOM     10  C   UNL     1      33.393 -23.892 -13.525  0.00  0.00    -0.002 C 
ATOM     11  C   UNL     1      35.016 -22.451 -16.546  0.00  0.00    -0.000 C 
ATOM     12  C   UNL     1      32.373 -22.642 -17.430  0.00  0.00    -0.000 C 
ATOM     13  C   UNL     1      34.685 -22.039 -17.856  0.00  0.00    -0.000 C 
ATOM     14  C   UNL     1      36.358 -22.353 -16.106  0.00  0.00    -0.000 C 
ATOM     15  C   UNL     1      35.702 -23.274 -13.960  0.00  0.00    -0.000 C 
ATOM     16  C   UNL     1      33.360 -22.143 -18.283  0.00  0.00    -0.000 C 
ATOM     17  C   UNL     1      36.684 -22.767 -14.810  0.00  0.00    -0.000 C 
ATOM     18  C   UNL     1      35.684 -21.537 -18.701  0.00  0.00    -0.000 C 
ATOM     19  C   UNL     1      37.338 -21.847 -16.972  0.00  0.00    -0.000 C 
ATOM     20  C   UNL     1      37.002 -21.441 -18.261  0.00  0.00    +0.000 C 
ENDROOT
BRANCH   2  21
ATOM     21  O   UNL     1      29.937 -26.231 -14.294  0.00  0.00    -0.379 OA
ATOM     22  H   UNL     1      30.784 -26.195 -14.765  0.00  0.00    +0.211 HD
ENDBRANCH   2  21
BRANCH   3  23
ATOM     23  O   UNL     1      30.808 -23.572 -11.954  0.00  0.00    -0.377 OA
ATOM     24  H   UNL     1      31.647 -23.287 -11.559  0.00  0.00    +0.211 HD
ENDBRANCH   3  23
BRANCH   4  25
ATOM     25  O   UNL     1      27.985 -24.316 -15.079  0.00  0.00    -0.382 OA
ATOM     26  H   UNL     1      28.035 -24.264 -16.046  0.00  0.00    +0.210 HD
ENDBRANCH   4  25
TORSDOF 3
ENDMDL
MODEL 4
REMARK VINA RESULT:     -10.3      1.517      3.761
REMARK  Name = 5287739
REMARK  3 active torsions:
REMARK  status: ('A' for Active; 'I' for Inactive)
REMARK    1  A    between atoms: C_2  and  O_21
REMARK    2  A    between atoms: C_3  and  O_23
REMARK    3  A    between atoms: C_4  and  O_25
REMARK                            x       y       z     vdW  Elec       q    Type
REMARK                         _______ _______ _______ _____ _____    ______ ____
ROOT
ATOM      1  C   UNL     1      36.338 -23.186 -15.565  0.00  0.00    -0.021 C 
ATOM      2  C   UNL     1      36.820 -24.358 -12.934  0.00  0.00    +0.168 C 
ATOM      3  C   UNL     1      35.448 -24.555 -13.583  0.00  0.00    +0.162 C 
ATOM      4  C   UNL     1      37.915 -24.451 -13.993  0.00  0.00    +0.144 C 
ATOM      5  C   UNL     1      37.755 -23.361 -15.052  0.00  0.00    +0.058 C 
ATOM      6  C   UNL     1      35.258 -23.749 -14.852  0.00  0.00    +0.003 C 
ATOM      7  C   UNL     1      36.088 -22.414 -16.740  0.00  0.00    -0.004 C 
ATOM      8  C   UNL     1      34.754 -22.261 -17.201  0.00  0.00    -0.000 C 
ATOM      9  C   UNL     1      33.686 -22.855 -16.494  0.00  0.00    -0.000 C 
ATOM     10  C   UNL     1      33.950 -23.585 -15.332  0.00  0.00    -0.002 C 
ATOM     11  C   UNL     1      34.471 -21.507 -18.374  0.00  0.00    -0.000 C 
ATOM     12  C   UNL     1      37.105 -21.778 -17.485  0.00  0.00    -0.000 C 
ATOM     13  C   UNL     1      35.519 -20.893 -19.094  0.00  0.00    -0.000 C 
ATOM     14  C   UNL     1      33.138 -21.363 -18.829  0.00  0.00    -0.000 C 
ATOM     15  C   UNL     1      32.373 -22.703 -16.957  0.00  0.00    -0.000 C 
ATOM     16  C   UNL     1      36.829 -21.036 -18.635  0.00  0.00    -0.000 C 
ATOM     17  C   UNL     1      32.101 -21.968 -18.111  0.00  0.00    -0.000 C 
ATOM     18  C   UNL     1      35.229 -20.153 -20.249  0.00  0.00    -0.000 C 
ATOM     19  C   UNL     1      32.876 -20.618 -19.988  0.00  0.00    -0.000 C 
ATOM     20  C   UNL     1      33.916 -20.018 -20.693  0.00  0.00    +0.000 C 
ENDROOT
BRANCH   2  21
ATOM     21  O   UNL     1      36.873 -23.081 -12.298  0.00  0.00    -0.379 OA
ATOM     22  H   UNL     1      37.306 -22.445 -12.888  0.00  0.00    +0.211 HD
ENDBRANCH   2  21
BRANCH   3  23
ATOM     23  O   UNL     1      35.275 -25.931 -13.919  0.00  0.00    -0.377 OA
ATOM     24  H   UNL     1      35.135 -26.014 -14.876  0.00  0.00    +0.211 HD
ENDBRANCH   3  23
BRANCH   4  25
ATOM     25  O   UNL     1      39.196 -24.311 -13.386  0.00  0.00    -0.382 OA
ATOM     26  H   UNL     1      39.088 -24.084 -12.449  0.00  0.00    +0.210 HD
ENDBRANCH   4  25
TORSDOF 3
ENDMDL
MODEL 5
REMARK VINA RESULT:     -10.3     10.031     13.549
REMARK  Name = 5287739
REMARK  3 active torsions:
REMARK  status: ('A' for Active; 'I' for Inactive)
REMARK    1  A    between atoms: C_2  and  O_21
REMARK    2  A    between atoms: C_3  and  O_23
REMARK    3  A    between atoms: C_4  and  O_25
REMARK                            x       y       z     vdW  Elec       q    Type
REMARK                         _______ _______ _______ _____ _____    ______ ____
ROOT
ATOM      1  C   UNL     1      33.983 -13.527 -23.492  0.00  0.00    -0.021 C 
ATOM      2  C   UNL     1      33.643 -11.223 -25.254  0.00  0.00    +0.168 C 
ATOM      3  C   UNL     1      33.268 -12.610 -25.782  0.00  0.00    +0.162 C 
ATOM      4  C   UNL     1      33.234 -11.096 -23.789  0.00  0.00    +0.144 C 
ATOM      5  C   UNL     1      33.961 -12.121 -22.920  0.00  0.00    +0.058 C 
ATOM      6  C   UNL     1      33.663 -13.738 -24.850  0.00  0.00    +0.003 C 
ATOM      7  C   UNL     1      34.373 -14.631 -22.674  0.00  0.00    -0.004 C 
ATOM      8  C   UNL     1      34.389 -15.936 -23.230  0.00  0.00    -0.000 C 
ATOM      9  C   UNL     1      34.036 -16.137 -24.582  0.00  0.00    -0.000 C 
ATOM     10  C   UNL     1      33.683 -15.040 -25.372  0.00  0.00    -0.002 C 
ATOM     11  C   UNL     1      34.762 -17.060 -22.440  0.00  0.00    -0.000 C 
ATOM     12  C   UNL     1      34.754 -14.500 -21.321  0.00  0.00    -0.000 C 
ATOM     13  C   UNL     1      35.129 -16.886 -21.088  0.00  0.00    -0.000 C 
ATOM     14  C   UNL     1      34.770 -18.360 -23.001  0.00  0.00    -0.000 C 
ATOM     15  C   UNL     1      34.051 -17.430 -25.123  0.00  0.00    -0.000 C 
ATOM     16  C   UNL     1      35.123 -15.601 -20.544  0.00  0.00    -0.000 C 
ATOM     17  C   UNL     1      34.411 -18.528 -24.342  0.00  0.00    -0.000 C 
ATOM     18  C   UNL     1      35.494 -18.000 -20.317  0.00  0.00    -0.000 C 
ATOM     19  C   UNL     1      35.140 -19.456 -22.208  0.00  0.00    -0.000 C 
ATOM     20  C   UNL     1      35.499 -19.276 -20.875  0.00  0.00    +0.000 C 
ENDROOT
BRANCH   2  21
ATOM     21  O   UNL     1      35.051 -11.024 -25.380  0.00  0.00    -0.379 OA
ATOM     22  H   UNL     1      35.238 -10.075 -25.441  0.00  0.00    +0.211 HD
ENDBRANCH   2  21
BRANCH   3  23
ATOM     23  O   UNL     1      31.856 -12.682 -25.968  0.00  0.00    -0.377 OA
ATOM     24  H   UNL     1      31.646 -12.527 -26.903  0.00  0.00    +0.211 HD
ENDBRANCH   3  23
BRANCH   4  25
ATOM     25  O   UNL     1      33.542  -9.791 -23.307  0.00  0.00    -0.382 OA
ATOM     26  H   UNL     1      33.558  -9.167 -24.049  0.00  0.00    +0.210 HD
ENDBRANCH   4  25
TORSDOF 3
ENDMDL
MODEL 6
REMARK VINA RESULT:      -9.8      2.015      4.351
REMARK  Name = 5287739
REMARK  3 active torsions:
REMARK  status: ('A' for Active; 'I' for Inactive)
REMARK    1  A    between atoms: C_2  and  O_21
REMARK    2  A    between atoms: C_3  and  O_23
REMARK    3  A    between atoms: C_4  and  O_25
REMARK                            x       y       z     vdW  Elec       q    Type
REMARK                         _______ _______ _______ _____ _____    ______ ____
ROOT
ATOM      1  C   UNL     1      35.368 -23.941 -14.356  0.00  0.00    -0.021 C 
ATOM      2  C   UNL     1      37.871 -24.231 -12.881  0.00  0.00    +0.168 C 
ATOM      3  C   UNL     1      36.593 -24.814 -12.275  0.00  0.00    +0.162 C 
ATOM      4  C   UNL     1      37.878 -24.448 -14.391  0.00  0.00    +0.144 C 
ATOM      5  C   UNL     1      36.699 -23.741 -15.058  0.00  0.00    +0.058 C 
ATOM      6  C   UNL     1      35.337 -24.440 -13.036  0.00  0.00    +0.003 C 
ATOM      7  C   UNL     1      34.149 -23.581 -15.008  0.00  0.00    -0.004 C 
ATOM      8  C   UNL     1      32.916 -23.774 -14.332  0.00  0.00    -0.000 C 
ATOM      9  C   UNL     1      32.898 -24.302 -13.024  0.00  0.00    -0.000 C 
ATOM     10  C   UNL     1      34.103 -24.624 -12.394  0.00  0.00    -0.002 C 
ATOM     11  C   UNL     1      31.683 -23.436 -14.957  0.00  0.00    -0.000 C 
ATOM     12  C   UNL     1      34.094 -23.031 -16.307  0.00  0.00    -0.000 C 
ATOM     13  C   UNL     1      31.672 -22.895 -16.261  0.00  0.00    -0.000 C 
ATOM     14  C   UNL     1      30.457 -23.636 -14.277  0.00  0.00    -0.000 C 
ATOM     15  C   UNL     1      31.677 -24.493 -12.364  0.00  0.00    -0.000 C 
ATOM     16  C   UNL     1      32.885 -22.696 -16.921  0.00  0.00    -0.000 C 
ATOM     17  C   UNL     1      30.471 -24.167 -12.983  0.00  0.00    -0.000 C 
ATOM     18  C   UNL     1      30.451 -22.566 -16.868  0.00  0.00    -0.000 C 
ATOM     19  C   UNL     1      29.250 -23.298 -14.908  0.00  0.00    -0.000 C 
ATOM     20  C   UNL     1      29.249 -22.768 -16.195  0.00  0.00    +0.000 C 
ENDROOT
BRANCH   2  21
ATOM     21  O   UNL     1      37.945 -22.834 -12.595  0.00  0.00    -0.379 OA
ATOM     22  H   UNL     1      37.695 -22.680 -11.671  0.00  0.00    +0.211 HD
ENDBRANCH   2  21
BRANCH   3  23
ATOM     23  O   UNL     1      36.678 -26.239 -12.265  0.00  0.00    -0.377 OA
ATOM     24  H   UNL     1      37.608 -26.506 -12.338  0.00  0.00    +0.211 HD
ENDBRANCH   3  23
BRANCH   4  25
ATOM     25  O   UNL     1      39.086 -23.944 -14.953  0.00  0.00    -0.382 OA
ATOM     26  H   UNL     1      39.084 -22.975 -14.911  0.00  0.00    +0.210 HD
ENDBRANCH   4  25
TORSDOF 3
ENDMDL
MODEL 7
REMARK VINA RESULT:      -9.6      1.522      3.737
REMARK  Name = 5287739
REMARK  3 active torsions:
REMARK  status: ('A' for Active; 'I' for Inactive)
REMARK    1  A    between atoms: C_2  and  O_21
REMARK    2  A    between atoms: C_3  and  O_23
REMARK    3  A    between atoms: C_4  and  O_25
REMARK                            x       y       z     vdW  Elec       q    Type
REMARK                         _______ _______ _______ _____ _____    ______ ____
ROOT
ATOM      1  C   UNL     1      35.067 -23.436 -14.775  0.00  0.00    -0.021 C 
ATOM      2  C   UNL     1      34.147 -24.458 -12.199  0.00  0.00    +0.168 C 
ATOM      3  C   UNL     1      33.156 -24.411 -13.364  0.00  0.00    +0.162 C 
ATOM      4  C   UNL     1      35.526 -24.873 -12.705  0.00  0.00    +0.144 C 
ATOM      5  C   UNL     1      36.069 -23.868 -13.719  0.00  0.00    +0.058 C 
ATOM      6  C   UNL     1      33.693 -23.692 -14.585  0.00  0.00    +0.003 C 
ATOM      7  C   UNL     1      35.505 -22.730 -15.937  0.00  0.00    -0.004 C 
ATOM      8  C   UNL     1      34.551 -22.334 -16.910  0.00  0.00    -0.000 C 
ATOM      9  C   UNL     1      33.183 -22.623 -16.722  0.00  0.00    -0.000 C 
ATOM     10  C   UNL     1      32.772 -23.292 -15.566  0.00  0.00    -0.002 C 
ATOM     11  C   UNL     1      34.955 -21.638 -18.084  0.00  0.00    -0.000 C 
ATOM     12  C   UNL     1      36.854 -22.392 -16.180  0.00  0.00    -0.000 C 
ATOM     13  C   UNL     1      36.316 -21.326 -18.292  0.00  0.00    -0.000 C 
ATOM     14  C   UNL     1      33.997 -21.251 -19.052  0.00  0.00    -0.000 C 
ATOM     15  C   UNL     1      32.247 -22.232 -17.689  0.00  0.00    -0.000 C 
ATOM     16  C   UNL     1      37.252 -21.707 -17.330  0.00  0.00    -0.000 C 
ATOM     17  C   UNL     1      32.649 -21.556 -18.840  0.00  0.00    -0.000 C 
ATOM     18  C   UNL     1      36.703 -20.641 -19.453  0.00  0.00    -0.000 C 
ATOM     19  C   UNL     1      34.412 -20.566 -20.204  0.00  0.00    -0.000 C 
ATOM     20  C   UNL     1      35.757 -20.265 -20.402  0.00  0.00    +0.000 C 
ENDROOT
BRANCH   2  21
ATOM     21  O   UNL     1      34.228 -23.173 -11.582  0.00  0.00    -0.379 OA
ATOM     22  H   UNL     1      34.090 -22.485 -12.251  0.00  0.00    +0.211 HD
ENDBRANCH   2  21
BRANCH   3  23
ATOM     23  O   UNL     1      32.824 -25.740 -13.760  0.00  0.00    -0.377 OA
ATOM     24  H   UNL     1      31.973 -25.991 -13.367  0.00  0.00    +0.211 HD
ENDBRANCH   3  23
BRANCH   4  25
ATOM     25  O   UNL     1      36.441 -24.961 -11.617  0.00  0.00    -0.382 OA
ATOM     26  H   UNL     1      37.181 -24.352 -11.766  0.00  0.00    +0.210 HD
ENDBRANCH   4  25
TORSDOF 3
ENDMDL
MODEL 8
REMARK VINA RESULT:      -9.5      2.108      4.564
REMARK  Name = 5287739
REMARK  3 active torsions:
REMARK  status: ('A' for Active; 'I' for Inactive)
REMARK    1  A    between atoms: C_2  and  O_21
REMARK    2  A    between atoms: C_3  and  O_23
REMARK    3  A    between atoms: C_4  and  O_25
REMARK                            x       y       z     vdW  Elec       q    Type
REMARK                         _______ _______ _______ _____ _____    ______ ____
ROOT
ATOM      1  C   UNL     1      36.134 -22.499 -16.463  0.00  0.00    -0.021 C 
ATOM      2  C   UNL     1      36.044 -23.845 -13.873  0.00  0.00    +0.168 C 
ATOM      3  C   UNL     1      34.844 -23.984 -14.813  0.00  0.00    +0.162 C 
ATOM      4  C   UNL     1      37.341 -23.882 -14.677  0.00  0.00    +0.144 C 
ATOM      5  C   UNL     1      37.409 -22.724 -15.671  0.00  0.00    +0.058 C 
ATOM      6  C   UNL     1      34.928 -23.094 -16.037  0.00  0.00    +0.003 C 
ATOM      7  C   UNL     1      36.140 -21.649 -17.611  0.00  0.00    -0.004 C 
ATOM      8  C   UNL     1      34.936 -21.450 -18.335  0.00  0.00    -0.000 C 
ATOM      9  C   UNL     1      33.743 -22.077 -17.914  0.00  0.00    -0.000 C 
ATOM     10  C   UNL     1      33.753 -22.884 -16.774  0.00  0.00    -0.002 C 
ATOM     11  C   UNL     1      34.908 -20.618 -19.489  0.00  0.00    -0.000 C 
ATOM     12  C   UNL     1      37.291 -20.978 -18.076  0.00  0.00    -0.000 C 
ATOM     13  C   UNL     1      36.085 -19.971 -19.925  0.00  0.00    -0.000 C 
ATOM     14  C   UNL     1      33.704 -20.430 -20.208  0.00  0.00    -0.000 C 
ATOM     15  C   UNL     1      32.559 -21.879 -18.637  0.00  0.00    -0.000 C 
ATOM     16  C   UNL     1      37.267 -20.158 -19.207  0.00  0.00    -0.000 C 
ATOM     17  C   UNL     1      32.539 -21.068 -19.771  0.00  0.00    -0.000 C 
ATOM     18  C   UNL     1      36.048 -19.154 -21.064  0.00  0.00    -0.000 C 
ATOM     19  C   UNL     1      33.695 -19.607 -21.344  0.00  0.00    -0.000 C 
ATOM     20  C   UNL     1      34.860 -18.974 -21.769  0.00  0.00    +0.000 C 
ENDROOT
BRANCH   2  21
ATOM     21  O   UNL     1      35.956 -22.613 -13.158  0.00  0.00    -0.379 OA
ATOM     22  H   UNL     1      36.798 -22.439 -12.711  0.00  0.00    +0.211 HD
ENDBRANCH   2  21
BRANCH   3  23
ATOM     23  O   UNL     1      34.751 -25.333 -15.269  0.00  0.00    -0.377 OA
ATOM     24  H   UNL     1      34.432 -25.896 -14.546  0.00  0.00    +0.211 HD
ENDBRANCH   3  23
BRANCH   4  25
ATOM     25  O   UNL     1      38.462 -23.797 -13.802  0.00  0.00    -0.382 OA
ATOM     26  H   UNL     1      38.233 -23.250 -13.034  0.00  0.00    +0.210 HD
ENDBRANCH   4  25
TORSDOF 3
ENDMDL
MODEL 9
REMARK VINA RESULT:      -9.2     14.975     17.860
REMARK  Name = 5287739
REMARK  3 active torsions:
REMARK  status: ('A' for Active; 'I' for Inactive)
REMARK    1  A    between atoms: C_2  and  O_21
REMARK    2  A    between atoms: C_3  and  O_23
REMARK    3  A    between atoms: C_4  and  O_25
REMARK                            x       y       z     vdW  Elec       q    Type
REMARK                         _______ _______ _______ _____ _____    ______ ____
ROOT
ATOM      1  C   UNL     1      32.576  -7.115 -22.644  0.00  0.00    -0.021 C 
ATOM      2  C   UNL     1      31.816  -4.304 -22.859  0.00  0.00    +0.168 C 
ATOM      3  C   UNL     1      31.705  -4.990 -21.496  0.00  0.00    +0.162 C 
ATOM      4  C   UNL     1      33.071  -4.785 -23.583  0.00  0.00    +0.144 C 
ATOM      5  C   UNL     1      33.021  -6.290 -23.838  0.00  0.00    +0.058 C 
ATOM      6  C   UNL     1      31.946  -6.485 -21.550  0.00  0.00    +0.003 C 
ATOM      7  C   UNL     1      32.749  -8.533 -22.644  0.00  0.00    -0.004 C 
ATOM      8  C   UNL     1      32.323  -9.285 -21.519  0.00  0.00    -0.000 C 
ATOM      9  C   UNL     1      31.722  -8.638 -20.418  0.00  0.00    -0.000 C 
ATOM     10  C   UNL     1      31.539  -7.253 -20.449  0.00  0.00    -0.002 C 
ATOM     11  C   UNL     1      32.489 -10.698 -21.482  0.00  0.00    -0.000 C 
ATOM     12  C   UNL     1      33.325  -9.247 -23.717  0.00  0.00    -0.000 C 
ATOM     13  C   UNL     1      33.078 -11.373 -22.574  0.00  0.00    -0.000 C 
ATOM     14  C   UNL     1      32.066 -11.441 -20.353  0.00  0.00    -0.000 C 
ATOM     15  C   UNL     1      31.307  -9.387 -19.309  0.00  0.00    -0.000 C 
ATOM     16  C   UNL     1      33.488 -10.634 -23.684  0.00  0.00    -0.000 C 
ATOM     17  C   UNL     1      31.479 -10.770 -19.275  0.00  0.00    -0.000 C 
ATOM     18  C   UNL     1      33.239 -12.765 -22.527  0.00  0.00    -0.000 C 
ATOM     19  C   UNL     1      32.239 -12.832 -20.332  0.00  0.00    -0.000 C 
ATOM     20  C   UNL     1      32.822 -13.489 -21.413  0.00  0.00    +0.000 C 
ENDROOT
BRANCH   2  21
ATOM     21  O   UNL     1      30.663  -4.604 -23.645  0.00  0.00    -0.379 OA
ATOM     22  H   UNL     1      30.197  -3.782 -23.860  0.00  0.00    +0.211 HD
ENDBRANCH   2  21
BRANCH   3  23
ATOM     23  O   UNL     1      32.668  -4.433 -20.603  0.00  0.00    -0.377 OA
ATOM     24  H   UNL     1      33.444  -5.014 -20.562  0.00  0.00    +0.211 HD
ENDBRANCH   3  23
BRANCH   4  25
ATOM     25  O   UNL     1      33.202  -4.116 -24.834  0.00  0.00    -0.382 OA
ATOM     26  H   UNL     1      33.238  -4.771 -25.549  0.00  0.00    +0.210 HD
ENDBRANCH   4  25
TORSDOF 3
ENDMDL
