MODEL 1
REMARK VINA RESULT:     -13.0      0.000      0.000
REMARK  Name = 16750097
REMARK  3 active torsions:
REMARK  status: ('A' for Active; 'I' for Inactive)
REMARK    1  A    between atoms: N_3  and  C_10
REMARK    2  A    between atoms: N_3  and  C_23
REMARK    3  A    between atoms: C_23  and  C_24
REMARK                            x       y       z     vdW  Elec       q    Type
REMARK                         _______ _______ _______ _____ _____    ______ ____
ROOT
ATOM      1  O   UNL     1      33.697 -16.011 -25.831  0.00  0.00    -0.209 OA
ATOM      2  N   UNL     1      35.357 -19.107 -21.924  0.00  0.00    -0.305 N 
ATOM      3  N   UNL     1      35.749 -17.815 -20.159  0.00  0.00    -0.305 N 
ATOM      4  N   UNL     1      34.421 -13.731 -22.619  0.00  0.00    -0.275 N 
ATOM      5  N   UNL     1      33.723 -13.926 -24.886  0.00  0.00    -0.302 NA
ATOM      6  N   UNL     1      33.800 -11.858 -23.787  0.00  0.00    -0.320 N 
ATOM      7  C   UNL     1      35.058 -17.832 -22.330  0.00  0.00    +0.061 C 
ATOM      8  C   UNL     1      35.310 -17.044 -21.211  0.00  0.00    +0.061 C 
ATOM      9  C   UNL     1      35.766 -19.046 -20.620  0.00  0.00    +0.208 C 
ATOM     10  C   UNL     1      34.644 -15.105 -22.494  0.00  0.00    +0.064 C 
ATOM     11  C   UNL     1      34.399 -15.933 -23.600  0.00  0.00    +0.110 C 
ATOM     12  C   UNL     1      34.602 -17.320 -23.546  0.00  0.00    +0.030 C 
ATOM     13  C   UNL     1      35.102 -15.657 -21.286  0.00  0.00    +0.031 C 
ATOM     14  C   UNL     1      33.914 -15.295 -24.858  0.00  0.00    +0.208 C 
ATOM     15  C   UNL     1      33.971 -13.219 -23.814  0.00  0.00    +0.248 C 
ATOM     16  H   UNL     1      35.290 -19.922 -22.471  0.00  0.00    +0.150 HD
ATOM     17  H   UNL     1      35.998 -17.511 -19.257  0.00  0.00    +0.150 HD
ATOM     18  H   UNL     1      34.585 -13.132 -21.855  0.00  0.00    +0.156 HD
ATOM     19  H   UNL     1      33.996 -11.353 -22.965  0.00  0.00    +0.146 HD
ATOM     20  H   UNL     1      33.482 -11.386 -24.591  0.00  0.00    +0.146 HD
ENDROOT
BRANCH   9  21
ATOM     21  N   UNL     1      36.117 -20.195 -20.004  0.00  0.00    -0.263 NA
ATOM     22  H   UNL     1      37.075 -20.357 -19.847  0.00  0.00    +0.127 HD
BRANCH  21  23
ATOM     23  C   UNL     1      35.178 -21.208 -19.554  0.00  0.00    +0.098 C 
BRANCH  23  24
ATOM     24  C   UNL     1      35.535 -21.681 -18.173  0.00  0.00    -0.006 C 
ATOM     25  C   UNL     1      34.591 -22.282 -17.325  0.00  0.00    -0.003 C 
ATOM     26  C   UNL     1      34.989 -22.706 -16.034  0.00  0.00    -0.000 C 
ATOM     27  C   UNL     1      36.854 -21.501 -17.754  0.00  0.00    -0.003 C 
ATOM     28  C   UNL     1      33.259 -22.471 -17.728  0.00  0.00    -0.000 C 
ATOM     29  C   UNL     1      36.321 -22.516 -15.630  0.00  0.00    -0.000 C 
ATOM     30  C   UNL     1      37.246 -21.918 -16.486  0.00  0.00    -0.000 C 
ATOM     31  C   UNL     1      34.045 -23.306 -15.186  0.00  0.00    -0.000 C 
ATOM     32  C   UNL     1      32.334 -23.070 -16.872  0.00  0.00    -0.000 C 
ATOM     33  C   UNL     1      32.727 -23.487 -15.603  0.00  0.00    -0.000 C 
ENDBRANCH  23  24
ENDBRANCH  21  23
ENDBRANCH   9  21
TORSDOF 3
ENDMDL
MODEL 2
REMARK VINA RESULT:     -13.0      0.728      1.981
REMARK  Name = 16750097
REMARK  3 active torsions:
REMARK  status: ('A' for Active; 'I' for Inactive)
REMARK    1  A    between atoms: N_3  and  C_10
REMARK    2  A    between atoms: N_3  and  C_23
REMARK    3  A    between atoms: C_23  and  C_24
REMARK                            x       y       z     vdW  Elec       q    Type
REMARK                         _______ _______ _______ _____ _____    ______ ____
ROOT
ATOM      1  O   UNL     1      33.774 -15.730 -25.799  0.00  0.00    -0.209 OA
ATOM      2  N   UNL     1      35.081 -19.328 -22.199  0.00  0.00    -0.305 N 
ATOM      3  N   UNL     1      35.565 -18.253 -20.316  0.00  0.00    -0.305 N 
ATOM      4  N   UNL     1      34.660 -13.846 -22.378  0.00  0.00    -0.275 N 
ATOM      5  N   UNL     1      33.980 -13.756 -24.657  0.00  0.00    -0.302 NA
ATOM      6  N   UNL     1      34.234 -11.819 -23.364  0.00  0.00    -0.320 N 
ATOM      7  C   UNL     1      34.908 -17.997 -22.482  0.00  0.00    +0.061 C 
ATOM      8  C   UNL     1      35.216 -17.347 -21.291  0.00  0.00    +0.061 C 
ATOM      9  C   UNL     1      35.474 -19.430 -20.893  0.00  0.00    +0.208 C 
ATOM     10  C   UNL     1      34.752 -15.240 -22.384  0.00  0.00    +0.064 C 
ATOM     11  C   UNL     1      34.448 -15.932 -23.567  0.00  0.00    +0.110 C 
ATOM     12  C   UNL     1      34.519 -17.331 -23.646  0.00  0.00    +0.030 C 
ATOM     13  C   UNL     1      35.139 -15.945 -21.233  0.00  0.00    +0.031 C 
ATOM     14  C   UNL     1      34.042 -15.134 -24.760  0.00  0.00    +0.208 C 
ATOM     15  C   UNL     1      34.278 -13.182 -23.521  0.00  0.00    +0.248 C 
ATOM     16  H   UNL     1      34.946 -20.076 -22.823  0.00  0.00    +0.150 HD
ATOM     17  H   UNL     1      35.828 -18.060 -19.387  0.00  0.00    +0.150 HD
ATOM     18  H   UNL     1      34.868 -13.340 -21.559  0.00  0.00    +0.156 HD
ATOM     19  H   UNL     1      34.464 -11.416 -22.495  0.00  0.00    +0.146 HD
ATOM     20  H   UNL     1      33.973 -11.245 -24.120  0.00  0.00    +0.146 HD
ENDROOT
BRANCH   9  21
ATOM     21  N   UNL     1      35.707 -20.660 -20.388  0.00  0.00    -0.263 NA
ATOM     22  H   UNL     1      35.443 -21.437 -20.933  0.00  0.00    +0.127 HD
BRANCH  21  23
ATOM     23  C   UNL     1      36.321 -20.919 -19.098  0.00  0.00    +0.098 C 
BRANCH  23  24
ATOM     24  C   UNL     1      35.383 -21.692 -18.213  0.00  0.00    -0.006 C 
ATOM     25  C   UNL     1      35.780 -22.190 -16.962  0.00  0.00    -0.003 C 
ATOM     26  C   UNL     1      34.850 -22.911 -16.176  0.00  0.00    -0.000 C 
ATOM     27  C   UNL     1      34.086 -21.902 -18.683  0.00  0.00    -0.003 C 
ATOM     28  C   UNL     1      37.082 -21.989 -16.473  0.00  0.00    -0.000 C 
ATOM     29  C   UNL     1      33.548 -23.112 -16.665  0.00  0.00    -0.000 C 
ATOM     30  C   UNL     1      33.171 -22.609 -17.911  0.00  0.00    -0.000 C 
ATOM     31  C   UNL     1      35.247 -23.409 -14.925  0.00  0.00    -0.000 C 
ATOM     32  C   UNL     1      37.459 -22.492 -15.227  0.00  0.00    -0.000 C 
ATOM     33  C   UNL     1      36.543 -23.200 -14.454  0.00  0.00    -0.000 C 
ENDBRANCH  23  24
ENDBRANCH  21  23
ENDBRANCH   9  21
TORSDOF 3
ENDMDL
MODEL 3
REMARK VINA RESULT:     -12.6      3.130      9.177
REMARK  Name = 16750097
REMARK  3 active torsions:
REMARK  status: ('A' for Active; 'I' for Inactive)
REMARK    1  A    between atoms: N_3  and  C_10
REMARK    2  A    between atoms: N_3  and  C_23
REMARK    3  A    between atoms: C_23  and  C_24
REMARK                            x       y       z     vdW  Elec       q    Type
REMARK                         _______ _______ _______ _____ _____    ______ ____
ROOT
ATOM      1  O   UNL     1      36.571 -22.420 -16.931  0.00  0.00    -0.209 OA
ATOM      2  N   UNL     1      35.882 -19.403 -21.177  0.00  0.00    -0.305 N 
ATOM      3  N   UNL     1      33.710 -19.379 -21.642  0.00  0.00    -0.305 N 
ATOM      4  N   UNL     1      32.666 -22.341 -17.817  0.00  0.00    -0.275 N 
ATOM      5  N   UNL     1      34.443 -23.102 -16.429  0.00  0.00    -0.302 NA
ATOM      6  N   UNL     1      32.216 -23.716 -16.038  0.00  0.00    -0.320 N 
ATOM      7  C   UNL     1      35.294 -20.192 -20.221  0.00  0.00    +0.061 C 
ATOM      8  C   UNL     1      33.938 -20.160 -20.533  0.00  0.00    +0.061 C 
ATOM      9  C   UNL     1      34.895 -18.941 -22.003  0.00  0.00    +0.208 C 
ATOM     10  C   UNL     1      33.526 -21.610 -18.642  0.00  0.00    +0.064 C 
ATOM     11  C   UNL     1      34.900 -21.616 -18.359  0.00  0.00    +0.110 C 
ATOM     12  C   UNL     1      35.821 -20.906 -19.143  0.00  0.00    +0.030 C 
ATOM     13  C   UNL     1      33.032 -20.879 -19.735  0.00  0.00    +0.031 C 
ATOM     14  C   UNL     1      35.370 -22.409 -17.187  0.00  0.00    +0.208 C 
ATOM     15  C   UNL     1      33.177 -23.048 -16.754  0.00  0.00    +0.248 C 
ATOM     16  H   UNL     1      36.842 -19.205 -21.256  0.00  0.00    +0.150 HD
ATOM     17  H   UNL     1      32.845 -19.190 -22.073  0.00  0.00    +0.150 HD
ATOM     18  H   UNL     1      31.698 -22.351 -17.997  0.00  0.00    +0.156 HD
ATOM     19  H   UNL     1      31.271 -23.657 -16.307  0.00  0.00    +0.146 HD
ATOM     20  H   UNL     1      32.472 -24.256 -15.255  0.00  0.00    +0.146 HD
ENDROOT
BRANCH   9  21
ATOM     21  N   UNL     1      35.243 -18.137 -23.030  0.00  0.00    -0.263 NA
ATOM     22  H   UNL     1      35.130 -18.486 -23.944  0.00  0.00    +0.127 HD
BRANCH  21  23
ATOM     23  C   UNL     1      35.772 -16.793 -22.881  0.00  0.00    +0.098 C 
BRANCH  23  24
ATOM     24  C   UNL     1      34.830 -15.786 -23.480  0.00  0.00    -0.006 C 
ATOM     25  C   UNL     1      34.189 -14.810 -22.700  0.00  0.00    -0.003 C 
ATOM     26  C   UNL     1      33.312 -13.890 -23.324  0.00  0.00    -0.000 C 
ATOM     27  C   UNL     1      34.609 -15.854 -24.856  0.00  0.00    -0.003 C 
ATOM     28  C   UNL     1      34.398 -14.726 -21.314  0.00  0.00    -0.000 C 
ATOM     29  C   UNL     1      33.102 -13.974 -24.710  0.00  0.00    -0.000 C 
ATOM     30  C   UNL     1      33.748 -14.950 -25.470  0.00  0.00    -0.000 C 
ATOM     31  C   UNL     1      32.672 -12.915 -22.544  0.00  0.00    -0.000 C 
ATOM     32  C   UNL     1      33.753 -13.750 -20.554  0.00  0.00    -0.000 C 
ATOM     33  C   UNL     1      32.891 -12.846 -21.168  0.00  0.00    -0.000 C 
ENDBRANCH  23  24
ENDBRANCH  21  23
ENDBRANCH   9  21
TORSDOF 3
ENDMDL
MODEL 4
REMARK VINA RESULT:     -12.5      3.270      9.385
REMARK  Name = 16750097
REMARK  3 active torsions:
REMARK  status: ('A' for Active; 'I' for Inactive)
REMARK    1  A    between atoms: N_3  and  C_10
REMARK    2  A    between atoms: N_3  and  C_23
REMARK    3  A    between atoms: C_23  and  C_24
REMARK                            x       y       z     vdW  Elec       q    Type
REMARK                         _______ _______ _______ _____ _____    ______ ____
ROOT
ATOM      1  O   UNL     1      32.702 -23.571 -16.457  0.00  0.00    -0.209 OA
ATOM      2  N   UNL     1      33.943 -20.351 -20.419  0.00  0.00    -0.305 N 
ATOM      3  N   UNL     1      36.109 -19.886 -20.258  0.00  0.00    -0.305 N 
ATOM      4  N   UNL     1      36.603 -22.698 -16.215  0.00  0.00    -0.275 N 
ATOM      5  N   UNL     1      34.695 -23.833 -15.360  0.00  0.00    -0.302 NA
ATOM      6  N   UNL     1      36.798 -24.007 -14.342  0.00  0.00    -0.320 N 
ATOM      7  C   UNL     1      34.383 -21.036 -19.316  0.00  0.00    +0.061 C 
ATOM      8  C   UNL     1      35.738 -20.730 -19.237  0.00  0.00    +0.061 C 
ATOM      9  C   UNL     1      35.010 -19.679 -20.947  0.00  0.00    +0.208 C 
ATOM     10  C   UNL     1      35.882 -22.125 -17.267  0.00  0.00    +0.064 C 
ATOM     11  C   UNL     1      34.513 -22.411 -17.381  0.00  0.00    +0.110 C 
ATOM     12  C   UNL     1      33.727 -21.872 -18.410  0.00  0.00    +0.030 C 
ATOM     13  C   UNL     1      36.507 -21.280 -18.198  0.00  0.00    +0.031 C 
ATOM     14  C   UNL     1      33.899 -23.315 -16.365  0.00  0.00    +0.208 C 
ATOM     15  C   UNL     1      35.964 -23.522 -15.318  0.00  0.00    +0.248 C 
ATOM     16  H   UNL     1      33.023 -20.343 -20.770  0.00  0.00    +0.150 HD
ATOM     17  H   UNL     1      37.005 -19.516 -20.433  0.00  0.00    +0.150 HD
ATOM     18  H   UNL     1      37.564 -22.511 -16.116  0.00  0.00    +0.156 HD
ATOM     19  H   UNL     1      37.749 -23.754 -14.338  0.00  0.00    +0.146 HD
ATOM     20  H   UNL     1      36.444 -24.607 -13.646  0.00  0.00    +0.146 HD
ENDROOT
BRANCH   9  21
ATOM     21  N   UNL     1      34.811 -18.927 -22.051  0.00  0.00    -0.263 NA
ATOM     22  H   UNL     1      34.010 -19.111 -22.594  0.00  0.00    +0.127 HD
BRANCH  21  23
ATOM     23  C   UNL     1      35.697 -17.864 -22.495  0.00  0.00    +0.098 C 
BRANCH  23  24
ATOM     24  C   UNL     1      35.120 -16.519 -22.149  0.00  0.00    -0.006 C 
ATOM     25  C   UNL     1      34.523 -15.695 -23.116  0.00  0.00    -0.003 C 
ATOM     26  C   UNL     1      34.000 -14.438 -22.726  0.00  0.00    -0.000 C 
ATOM     27  C   UNL     1      35.201 -16.111 -20.817  0.00  0.00    -0.003 C 
ATOM     28  C   UNL     1      34.434 -16.088 -24.461  0.00  0.00    -0.000 C 
ATOM     29  C   UNL     1      34.089 -14.044 -21.381  0.00  0.00    -0.000 C 
ATOM     30  C   UNL     1      34.686 -14.877 -20.434  0.00  0.00    -0.000 C 
ATOM     31  C   UNL     1      33.402 -13.614 -23.693  0.00  0.00    -0.000 C 
ATOM     32  C   UNL     1      33.838 -15.255 -25.409  0.00  0.00    -0.000 C 
ATOM     33  C   UNL     1      33.322 -14.020 -25.025  0.00  0.00    -0.000 C 
ENDBRANCH  23  24
ENDBRANCH  21  23
ENDBRANCH   9  21
TORSDOF 3
ENDMDL
MODEL 5
REMARK VINA RESULT:     -12.5      3.389      9.114
REMARK  Name = 16750097
REMARK  3 active torsions:
REMARK  status: ('A' for Active; 'I' for Inactive)
REMARK    1  A    between atoms: N_3  and  C_10
REMARK    2  A    between atoms: N_3  and  C_23
REMARK    3  A    between atoms: C_23  and  C_24
REMARK                            x       y       z     vdW  Elec       q    Type
REMARK                         _______ _______ _______ _____ _____    ______ ____
ROOT
ATOM      1  O   UNL     1      35.524 -23.373 -16.149  0.00  0.00    -0.209 OA
ATOM      2  N   UNL     1      35.639 -20.304 -20.413  0.00  0.00    -0.305 N 
ATOM      3  N   UNL     1      33.539 -19.821 -20.953  0.00  0.00    -0.305 N 
ATOM      4  N   UNL     1      31.758 -22.469 -17.170  0.00  0.00    -0.275 N 
ATOM      5  N   UNL     1      33.284 -23.582 -15.722  0.00  0.00    -0.302 NA
ATOM      6  N   UNL     1      30.966 -23.706 -15.409  0.00  0.00    -0.320 N 
ATOM      7  C   UNL     1      34.864 -20.943 -19.479  0.00  0.00    +0.061 C 
ATOM      8  C   UNL     1      33.558 -20.626 -19.837  0.00  0.00    +0.061 C 
ATOM      9  C   UNL     1      34.802 -19.648 -21.272  0.00  0.00    +0.208 C 
ATOM     10  C   UNL     1      32.782 -21.943 -17.963  0.00  0.00    +0.064 C 
ATOM     11  C   UNL     1      34.113 -22.240 -17.633  0.00  0.00    +0.110 C 
ATOM     12  C   UNL     1      35.190 -21.747 -18.384  0.00  0.00    +0.030 C 
ATOM     13  C   UNL     1      32.493 -21.130 -19.072  0.00  0.00    +0.031 C 
ATOM     14  C   UNL     1      34.363 -23.108 -16.446  0.00  0.00    +0.208 C 
ATOM     15  C   UNL     1      32.071 -23.263 -16.090  0.00  0.00    +0.248 C 
ATOM     16  H   UNL     1      36.622 -20.315 -20.458  0.00  0.00    +0.150 HD
ATOM     17  H   UNL     1      32.749 -19.455 -21.413  0.00  0.00    +0.150 HD
ATOM     18  H   UNL     1      30.818 -22.274 -17.383  0.00  0.00    +0.156 HD
ATOM     19  H   UNL     1      30.065 -23.448 -15.711  0.00  0.00    +0.146 HD
ATOM     20  H   UNL     1      31.074 -24.283 -14.618  0.00  0.00    +0.146 HD
ENDROOT
BRANCH   9  21
ATOM     21  N   UNL     1      35.348 -18.942 -22.286  0.00  0.00    -0.263 NA
ATOM     22  H   UNL     1      35.148 -19.232 -23.205  0.00  0.00    +0.127 HD
BRANCH  21  23
ATOM     23  C   UNL     1      36.210 -17.786 -22.114  0.00  0.00    +0.098 C 
BRANCH  23  24
ATOM     24  C   UNL     1      35.392 -16.555 -21.841  0.00  0.00    -0.006 C 
ATOM     25  C   UNL     1      34.763 -15.835 -22.869  0.00  0.00    -0.003 C 
ATOM     26  C   UNL     1      34.006 -14.683 -22.546  0.00  0.00    -0.000 C 
ATOM     27  C   UNL     1      35.277 -16.143 -20.512  0.00  0.00    -0.003 C 
ATOM     28  C   UNL     1      34.868 -16.233 -24.212  0.00  0.00    -0.000 C 
ATOM     29  C   UNL     1      33.902 -14.284 -21.204  0.00  0.00    -0.000 C 
ATOM     30  C   UNL     1      34.534 -15.012 -20.194  0.00  0.00    -0.000 C 
ATOM     31  C   UNL     1      33.378 -13.964 -23.575  0.00  0.00    -0.000 C 
ATOM     32  C   UNL     1      34.236 -15.506 -25.222  0.00  0.00    -0.000 C 
ATOM     33  C   UNL     1      33.492 -14.374 -24.903  0.00  0.00    -0.000 C 
ENDBRANCH  23  24
ENDBRANCH  21  23
ENDBRANCH   9  21
TORSDOF 3
ENDMDL
MODEL 6
REMARK VINA RESULT:     -12.4      3.088      9.215
REMARK  Name = 16750097
REMARK  3 active torsions:
REMARK  status: ('A' for Active; 'I' for Inactive)
REMARK    1  A    between atoms: N_3  and  C_10
REMARK    2  A    between atoms: N_3  and  C_23
REMARK    3  A    between atoms: C_23  and  C_24
REMARK                            x       y       z     vdW  Elec       q    Type
REMARK                         _______ _______ _______ _____ _____    ______ ____
ROOT
ATOM      1  O   UNL     1      31.583 -22.679 -17.254  0.00  0.00    -0.209 OA
ATOM      2  N   UNL     1      33.822 -19.808 -21.042  0.00  0.00    -0.305 N 
ATOM      3  N   UNL     1      36.016 -19.829 -20.697  0.00  0.00    -0.305 N 
ATOM      4  N   UNL     1      35.547 -22.682 -16.680  0.00  0.00    -0.275 N 
ATOM      5  N   UNL     1      33.372 -23.372 -16.003  0.00  0.00    -0.302 NA
ATOM      6  N   UNL     1      35.295 -24.002 -14.822  0.00  0.00    -0.320 N 
ATOM      7  C   UNL     1      34.009 -20.573 -19.919  0.00  0.00    +0.061 C 
ATOM      8  C   UNL     1      35.386 -20.572 -19.725  0.00  0.00    +0.061 C 
ATOM      9  C   UNL     1      35.050 -19.386 -21.469  0.00  0.00    +0.208 C 
ATOM     10  C   UNL     1      35.057 -21.965 -17.776  0.00  0.00    +0.064 C 
ATOM     11  C   UNL     1      33.673 -21.944 -18.006  0.00  0.00    +0.110 C 
ATOM     12  C   UNL     1      33.113 -21.246 -19.085  0.00  0.00    +0.030 C 
ATOM     13  C   UNL     1      35.928 -21.277 -18.637  0.00  0.00    +0.031 C 
ATOM     14  C   UNL     1      32.795 -22.691 -17.060  0.00  0.00    +0.208 C 
ATOM     15  C   UNL     1      34.671 -23.346 -15.853  0.00  0.00    +0.248 C 
ATOM     16  H   UNL     1      32.958 -19.599 -21.465  0.00  0.00    +0.150 HD
ATOM     17  H   UNL     1      36.982 -19.664 -20.792  0.00  0.00    +0.150 HD
ATOM     18  H   UNL     1      36.514 -22.710 -16.500  0.00  0.00    +0.156 HD
ATOM     19  H   UNL     1      36.274 -23.964 -14.736  0.00  0.00    +0.146 HD
ATOM     20  H   UNL     1      34.762 -24.511 -14.168  0.00  0.00    +0.146 HD
ENDROOT
BRANCH   9  21
ATOM     21  N   UNL     1      35.112 -18.608 -22.572  0.00  0.00    -0.263 NA
ATOM     22  H   UNL     1      34.650 -18.924 -23.382  0.00  0.00    +0.127 HD
BRANCH  21  23
ATOM     23  C   UNL     1      35.813 -17.338 -22.645  0.00  0.00    +0.098 C 
BRANCH  23  24
ATOM     24  C   UNL     1      34.945 -16.294 -23.291  0.00  0.00    -0.006 C 
ATOM     25  C   UNL     1      34.404 -15.222 -22.563  0.00  0.00    -0.003 C 
ATOM     26  C   UNL     1      33.594 -14.271 -23.230  0.00  0.00    -0.000 C 
ATOM     27  C   UNL     1      34.691 -16.427 -24.656  0.00  0.00    -0.003 C 
ATOM     28  C   UNL     1      34.647 -15.072 -21.188  0.00  0.00    -0.000 C 
ATOM     29  C   UNL     1      33.349 -14.422 -24.605  0.00  0.00    -0.000 C 
ATOM     30  C   UNL     1      33.896 -15.493 -25.312  0.00  0.00    -0.000 C 
ATOM     31  C   UNL     1      33.052 -13.200 -22.502  0.00  0.00    -0.000 C 
ATOM     32  C   UNL     1      34.100 -14.001 -20.481  0.00  0.00    -0.000 C 
ATOM     33  C   UNL     1      33.305 -13.066 -21.137  0.00  0.00    -0.000 C 
ENDBRANCH  23  24
ENDBRANCH  21  23
ENDBRANCH   9  21
TORSDOF 3
ENDMDL
MODEL 7
REMARK VINA RESULT:     -12.3      3.934      9.885
REMARK  Name = 16750097
REMARK  3 active torsions:
REMARK  status: ('A' for Active; 'I' for Inactive)
REMARK    1  A    between atoms: N_3  and  C_10
REMARK    2  A    between atoms: N_3  and  C_23
REMARK    3  A    between atoms: C_23  and  C_24
REMARK                            x       y       z     vdW  Elec       q    Type
REMARK                         _______ _______ _______ _____ _____    ______ ____
ROOT
ATOM      1  O   UNL     1      37.651 -22.871 -14.038  0.00  0.00    -0.209 OA
ATOM      2  N   UNL     1      36.381 -20.955 -18.763  0.00  0.00    -0.305 N 
ATOM      3  N   UNL     1      34.265 -21.497 -19.165  0.00  0.00    -0.305 N 
ATOM      4  N   UNL     1      33.839 -23.820 -14.815  0.00  0.00    -0.275 N 
ATOM      5  N   UNL     1      35.717 -23.891 -13.356  0.00  0.00    -0.302 NA
ATOM      6  N   UNL     1      33.675 -24.890 -12.793  0.00  0.00    -0.320 N 
ATOM      7  C   UNL     1      35.966 -21.654 -17.658  0.00  0.00    +0.061 C 
ATOM      8  C   UNL     1      34.642 -21.980 -17.933  0.00  0.00    +0.061 C 
ATOM      9  C   UNL     1      35.330 -20.889 -19.635  0.00  0.00    +0.208 C 
ATOM     10  C   UNL     1      34.529 -23.092 -15.788  0.00  0.00    +0.064 C 
ATOM     11  C   UNL     1      35.867 -22.743 -15.547  0.00  0.00    +0.110 C 
ATOM     12  C   UNL     1      36.621 -22.013 -16.479  0.00  0.00    +0.030 C 
ATOM     13  C   UNL     1      33.904 -22.711 -16.987  0.00  0.00    +0.031 C 
ATOM     14  C   UNL     1      36.482 -23.172 -14.258  0.00  0.00    +0.208 C 
ATOM     15  C   UNL     1      34.476 -24.179 -13.650  0.00  0.00    +0.248 C 
ATOM     16  H   UNL     1      37.276 -20.571 -18.905  0.00  0.00    +0.150 HD
ATOM     17  H   UNL     1      33.386 -21.589 -19.600  0.00  0.00    +0.150 HD
ATOM     18  H   UNL     1      32.900 -24.075 -14.963  0.00  0.00    +0.156 HD
ATOM     19  H   UNL     1      32.744 -25.091 -13.043  0.00  0.00    +0.146 HD
ATOM     20  H   UNL     1      34.030 -25.199 -11.929  0.00  0.00    +0.146 HD
ENDROOT
BRANCH   9  21
ATOM     21  N   UNL     1      35.509 -20.242 -20.807  0.00  0.00    -0.263 NA
ATOM     22  H   UNL     1      35.495 -20.778 -21.633  0.00  0.00    +0.127 HD
BRANCH  21  23
ATOM     23  C   UNL     1      35.720 -18.811 -20.934  0.00  0.00    +0.098 C 
BRANCH  23  24
ATOM     24  C   UNL     1      35.131 -18.303 -22.220  0.00  0.00    -0.006 C 
ATOM     25  C   UNL     1      34.881 -16.939 -22.438  0.00  0.00    -0.003 C 
ATOM     26  C   UNL     1      34.325 -16.524 -23.672  0.00  0.00    -0.000 C 
ATOM     27  C   UNL     1      34.835 -19.246 -23.206  0.00  0.00    -0.003 C 
ATOM     28  C   UNL     1      35.171 -15.975 -21.458  0.00  0.00    -0.000 C 
ATOM     29  C   UNL     1      34.034 -17.487 -24.651  0.00  0.00    -0.000 C 
ATOM     30  C   UNL     1      34.289 -18.839 -24.418  0.00  0.00    -0.000 C 
ATOM     31  C   UNL     1      34.075 -15.160 -23.889  0.00  0.00    -0.000 C 
ATOM     32  C   UNL     1      34.916 -14.623 -21.691  0.00  0.00    -0.000 C 
ATOM     33  C   UNL     1      34.370 -14.216 -22.905  0.00  0.00    -0.000 C 
ENDBRANCH  23  24
ENDBRANCH  21  23
ENDBRANCH   9  21
TORSDOF 3
ENDMDL
MODEL 8
REMARK VINA RESULT:     -12.3      1.522      2.842
REMARK  Name = 16750097
REMARK  3 active torsions:
REMARK  status: ('A' for Active; 'I' for Inactive)
REMARK    1  A    between atoms: N_3  and  C_10
REMARK    2  A    between atoms: N_3  and  C_23
REMARK    3  A    between atoms: C_23  and  C_24
REMARK                            x       y       z     vdW  Elec       q    Type
REMARK                         _______ _______ _______ _____ _____    ______ ____
ROOT
ATOM      1  O   UNL     1      33.140 -12.303 -21.759  0.00  0.00    -0.209 OA
ATOM      2  N   UNL     1      35.453 -16.756 -20.202  0.00  0.00    -0.305 N 
ATOM      3  N   UNL     1      35.889 -17.960 -22.018  0.00  0.00    -0.305 N 
ATOM      4  N   UNL     1      33.950 -14.516 -24.997  0.00  0.00    -0.275 N 
ATOM      5  N   UNL     1      33.057 -12.530 -24.036  0.00  0.00    -0.302 NA
ATOM      6  N   UNL     1      33.042 -12.902 -26.349  0.00  0.00    -0.320 N 
ATOM      7  C   UNL     1      34.997 -16.007 -21.257  0.00  0.00    +0.061 C 
ATOM      8  C   UNL     1      35.281 -16.780 -22.378  0.00  0.00    +0.061 C 
ATOM      9  C   UNL     1      35.977 -17.913 -20.707  0.00  0.00    +0.208 C 
ATOM     10  C   UNL     1      34.313 -15.042 -23.753  0.00  0.00    +0.064 C 
ATOM     11  C   UNL     1      34.043 -14.291 -22.598  0.00  0.00    +0.110 C 
ATOM     12  C   UNL     1      34.379 -14.757 -21.318  0.00  0.00    +0.030 C 
ATOM     13  C   UNL     1      34.937 -16.296 -23.652  0.00  0.00    +0.031 C 
ATOM     14  C   UNL     1      33.379 -12.966 -22.763  0.00  0.00    +0.208 C 
ATOM     15  C   UNL     1      33.340 -13.285 -25.066  0.00  0.00    +0.248 C 
ATOM     16  H   UNL     1      35.411 -16.506 -19.251  0.00  0.00    +0.150 HD
ATOM     17  H   UNL     1      36.193 -18.683 -22.613  0.00  0.00    +0.150 HD
ATOM     18  H   UNL     1      34.130 -15.025 -25.820  0.00  0.00    +0.156 HD
ATOM     19  H   UNL     1      33.268 -13.492 -27.104  0.00  0.00    +0.146 HD
ATOM     20  H   UNL     1      32.603 -12.036 -26.515  0.00  0.00    +0.146 HD
ENDROOT
BRANCH   9  21
ATOM     21  N   UNL     1      36.491 -18.815 -19.843  0.00  0.00    -0.263 NA
ATOM     22  H   UNL     1      36.862 -18.478 -18.996  0.00  0.00    +0.127 HD
BRANCH  21  23
ATOM     23  C   UNL     1      36.533 -20.248 -20.076  0.00  0.00    +0.098 C 
BRANCH  23  24
ATOM     24  C   UNL     1      35.405 -20.933 -19.354  0.00  0.00    -0.006 C 
ATOM     25  C   UNL     1      35.594 -21.583 -18.125  0.00  0.00    -0.003 C 
ATOM     26  C   UNL     1      34.491 -22.210 -17.496  0.00  0.00    -0.000 C 
ATOM     27  C   UNL     1      34.147 -20.901 -19.956  0.00  0.00    -0.003 C 
ATOM     28  C   UNL     1      36.853 -21.626 -17.504  0.00  0.00    -0.000 C 
ATOM     29  C   UNL     1      33.232 -22.168 -18.117  0.00  0.00    -0.000 C 
ATOM     30  C   UNL     1      33.063 -21.516 -19.339  0.00  0.00    -0.000 C 
ATOM     31  C   UNL     1      34.680 -22.860 -16.266  0.00  0.00    -0.000 C 
ATOM     32  C   UNL     1      37.023 -22.278 -16.282  0.00  0.00    -0.000 C 
ATOM     33  C   UNL     1      35.938 -22.893 -15.664  0.00  0.00    -0.000 C 
ENDBRANCH  23  24
ENDBRANCH  21  23
ENDBRANCH   9  21
TORSDOF 3
ENDMDL
MODEL 9
REMARK VINA RESULT:     -12.2      2.840      5.228
REMARK  Name = 16750097
REMARK  3 active torsions:
REMARK  status: ('A' for Active; 'I' for Inactive)
REMARK    1  A    between atoms: N_3  and  C_10
REMARK    2  A    between atoms: N_3  and  C_23
REMARK    3  A    between atoms: C_23  and  C_24
REMARK                            x       y       z     vdW  Elec       q    Type
REMARK                         _______ _______ _______ _____ _____    ______ ____
ROOT
ATOM      1  O   UNL     1      37.939 -18.788 -20.928  0.00  0.00    -0.209 OA
ATOM      2  N   UNL     1      35.065 -22.022 -17.948  0.00  0.00    -0.305 N 
ATOM      3  N   UNL     1      32.970 -21.935 -18.684  0.00  0.00    -0.305 N 
ATOM      4  N   UNL     1      34.148 -18.671 -22.212  0.00  0.00    -0.275 N 
ATOM      5  N   UNL     1      36.405 -17.939 -22.400  0.00  0.00    -0.302 NA
ATOM      6  N   UNL     1      34.726 -17.157 -23.836  0.00  0.00    -0.320 N 
ATOM      7  C   UNL     1      35.081 -21.137 -18.995  0.00  0.00    +0.061 C 
ATOM      8  C   UNL     1      33.763 -21.101 -19.438  0.00  0.00    +0.061 C 
ATOM      9  C   UNL     1      33.782 -22.471 -17.800  0.00  0.00    +0.208 C 
ATOM     10  C   UNL     1      34.433 -19.508 -21.130  0.00  0.00    +0.064 C 
ATOM     11  C   UNL     1      35.752 -19.573 -20.655  0.00  0.00    +0.110 C 
ATOM     12  C   UNL     1      36.110 -20.391 -19.573  0.00  0.00    +0.030 C 
ATOM     13  C   UNL     1      33.425 -20.275 -20.523  0.00  0.00    +0.031 C 
ATOM     14  C   UNL     1      36.783 -18.738 -21.336  0.00  0.00    +0.208 C 
ATOM     15  C   UNL     1      35.156 -17.931 -22.787  0.00  0.00    +0.248 C 
ATOM     16  H   UNL     1      35.837 -22.288 -17.399  0.00  0.00    +0.150 HD
ATOM     17  H   UNL     1      32.004 -22.095 -18.784  0.00  0.00    +0.150 HD
ATOM     18  H   UNL     1      33.230 -18.610 -22.562  0.00  0.00    +0.156 HD
ATOM     19  H   UNL     1      33.779 -17.173 -24.103  0.00  0.00    +0.146 HD
ATOM     20  H   UNL     1      35.365 -16.586 -24.320  0.00  0.00    +0.146 HD
ENDROOT
BRANCH   9  21
ATOM     21  N   UNL     1      33.523 -23.361 -16.818  0.00  0.00    -0.263 NA
ATOM     22  H   UNL     1      33.272 -24.276 -17.082  0.00  0.00    +0.127 HD
BRANCH  21  23
ATOM     23  C   UNL     1      33.591 -23.064 -15.398  0.00  0.00    +0.098 C 
BRANCH  23  24
ATOM     24  C   UNL     1      32.487 -23.767 -14.658  0.00  0.00    -0.006 C 
ATOM     25  C   UNL     1      31.137 -23.604 -15.006  0.00  0.00    -0.003 C 
ATOM     26  C   UNL     1      30.144 -24.294 -14.269  0.00  0.00    -0.000 C 
ATOM     27  C   UNL     1      32.854 -24.598 -13.599  0.00  0.00    -0.003 C 
ATOM     28  C   UNL     1      30.748 -22.771 -16.068  0.00  0.00    -0.000 C 
ATOM     29  C   UNL     1      30.532 -25.126 -13.206  0.00  0.00    -0.000 C 
ATOM     30  C   UNL     1      31.879 -25.277 -12.875  0.00  0.00    -0.000 C 
ATOM     31  C   UNL     1      28.793 -24.132 -14.617  0.00  0.00    -0.000 C 
ATOM     32  C   UNL     1      29.401 -22.621 -16.399  0.00  0.00    -0.000 C 
ATOM     33  C   UNL     1      28.425 -23.301 -15.675  0.00  0.00    -0.000 C 
ENDBRANCH  23  24
ENDBRANCH  21  23
ENDBRANCH   9  21
TORSDOF 3
ENDMDL
