MODEL 1
REMARK VINA RESULT:     -12.3      0.000      0.000
REMARK  Name = 44129624
REMARK  6 active torsions:
REMARK  status: ('A' for Active; 'I' for Inactive)
REMARK    1  A    between atoms: C_1  and  O_20
REMARK    2  A    between atoms: C_4  and  C_8
REMARK    3  A    between atoms: C_8  and  C_9
REMARK    4  A    between atoms: C_10  and  C_16
REMARK    5  A    between atoms: O_20  and  C_21
REMARK    6  A    between atoms: C_21  and  C_23
REMARK                            x       y       z     vdW  Elec       q    Type
REMARK                         _______ _______ _______ _____ _____    ______ ____
ROOT
ATOM      1  C   UNL     1      33.832 -21.849 -18.781  0.00  0.00    +0.138 C 
ATOM      2  C   UNL     1      33.270 -20.873 -19.603  0.00  0.00    +0.037 C 
ATOM      3  C   UNL     1      35.212 -21.876 -18.573  0.00  0.00    +0.037 C 
ATOM      4  C   UNL     1      35.465 -19.949 -20.009  0.00  0.00    +0.039 C 
ATOM      5  C   UNL     1      34.085 -19.923 -20.217  0.00  0.00    +0.006 C 
ATOM      6  C   UNL     1      36.027 -20.926 -19.187  0.00  0.00    +0.006 C 
ENDROOT
BRANCH   4   8
ATOM      7  O   UNL     1      37.549 -19.057 -20.582  0.00  0.00    -0.287 OA
ATOM      8  C   UNL     1      36.315 -18.957 -20.647  0.00  0.00    +0.196 C 
BRANCH   8   9
ATOM      9  C   UNL     1      35.760 -17.790 -21.398  0.00  0.00    +0.039 C 
ATOM     10  C   UNL     1      34.725 -15.612 -22.800  0.00  0.00    +0.001 C 
ATOM     11  C   UNL     1      35.427 -16.619 -20.718  0.00  0.00    +0.003 C 
ATOM     12  C   UNL     1      35.574 -17.873 -22.778  0.00  0.00    +0.003 C 
ATOM     13  C   UNL     1      34.910 -15.529 -21.420  0.00  0.00    +0.000 C 
ATOM     14  C   UNL     1      35.057 -16.784 -23.479  0.00  0.00    +0.000 C 
BRANCH  10  16
ATOM     15  S   UNL     1      33.569 -12.052 -24.040  0.00  0.00    -0.086 S 
ATOM     16  C   UNL     1      34.193 -14.489 -23.520  0.00  0.00    +0.007 C 
ATOM     17  C   UNL     1      33.550 -14.509 -24.791  0.00  0.00    +0.007 C 
ATOM     18  C   UNL     1      34.270 -13.216 -22.999  0.00  0.00    +0.035 C 
ATOM     19  C   UNL     1      33.159 -13.250 -25.193  0.00  0.00    +0.035 C 
ENDBRANCH  10  16
ENDBRANCH   8   9
ENDBRANCH   4   8
BRANCH   1  20
ATOM     20  O   UNL     1      33.030 -22.785 -18.177  0.00  0.00    -0.478 OA
BRANCH  20  21
ATOM     21  C   UNL     1      33.350 -23.138 -16.842  0.00  0.00    +0.184 C 
BRANCH  21  23
ATOM     22  N   UNL     1      30.934 -22.638 -16.584  0.00  0.00    +0.388 N 
ATOM     23  C   UNL     1      32.062 -23.444 -16.094  0.00  0.00    -0.017 C 
ATOM     24  C   UNL     1      32.130 -23.082 -14.619  0.00  0.00    -0.020 C 
ATOM     25  C   UNL     1      30.676 -22.880 -14.221  0.00  0.00    -0.025 C 
ATOM     26  C   UNL     1      29.916 -22.747 -15.533  0.00  0.00    -0.082 C 
ATOM     27  H   UNL     1      30.582 -23.011 -17.466  0.00  0.00    -0.084 HD
ATOM     28  H   UNL     1      31.201 -21.671 -16.766  0.00  0.00    -0.084 HD
ENDBRANCH  21  23
ENDBRANCH  20  21
ENDBRANCH   1  20
TORSDOF 6
ENDMDL
MODEL 2
REMARK VINA RESULT:     -11.5      1.438      1.757
REMARK  Name = 44129624
REMARK  6 active torsions:
REMARK  status: ('A' for Active; 'I' for Inactive)
REMARK    1  A    between atoms: C_1  and  O_20
REMARK    2  A    between atoms: C_4  and  C_8
REMARK    3  A    between atoms: C_8  and  C_9
REMARK    4  A    between atoms: C_10  and  C_16
REMARK    5  A    between atoms: O_20  and  C_21
REMARK    6  A    between atoms: C_21  and  C_23
REMARK                            x       y       z     vdW  Elec       q    Type
REMARK                         _______ _______ _______ _____ _____    ______ ____
ROOT
ATOM      1  C   UNL     1      34.149 -21.751 -19.111  0.00  0.00    +0.138 C 
ATOM      2  C   UNL     1      33.474 -20.778 -19.848  0.00  0.00    +0.037 C 
ATOM      3  C   UNL     1      35.532 -21.670 -18.949  0.00  0.00    +0.037 C 
ATOM      4  C   UNL     1      35.565 -19.640 -20.259  0.00  0.00    +0.039 C 
ATOM      5  C   UNL     1      34.182 -19.723 -20.421  0.00  0.00    +0.006 C 
ATOM      6  C   UNL     1      36.240 -20.613 -19.522  0.00  0.00    +0.006 C 
ENDROOT
BRANCH   4   8
ATOM      7  O   UNL     1      37.506 -18.665 -21.126  0.00  0.00    -0.287 OA
ATOM      8  C   UNL     1      36.302 -18.538 -20.855  0.00  0.00    +0.196 C 
BRANCH   8   9
ATOM      9  C   UNL     1      35.665 -17.222 -21.166  0.00  0.00    +0.039 C 
ATOM     10  C   UNL     1      34.476 -14.766 -21.746  0.00  0.00    +0.001 C 
ATOM     11  C   UNL     1      35.269 -16.378 -20.129  0.00  0.00    +0.003 C 
ATOM     12  C   UNL     1      35.466 -16.839 -22.493  0.00  0.00    +0.003 C 
ATOM     13  C   UNL     1      34.674 -15.149 -20.420  0.00  0.00    +0.000 C 
ATOM     14  C   UNL     1      34.872 -15.612 -22.782  0.00  0.00    +0.000 C 
BRANCH  10  16
ATOM     15  S   UNL     1      32.300 -11.478 -21.799  0.00  0.00    -0.086 S 
ATOM     16  C   UNL     1      33.865 -13.501 -22.043  0.00  0.00    +0.007 C 
ATOM     17  C   UNL     1      34.168 -12.634 -23.132  0.00  0.00    +0.007 C 
ATOM     18  C   UNL     1      32.867 -12.995 -21.240  0.00  0.00    +0.035 C 
ATOM     19  C   UNL     1      33.390 -11.497 -23.119  0.00  0.00    +0.035 C 
ENDBRANCH  10  16
ENDBRANCH   8   9
ENDBRANCH   4   8
BRANCH   1  20
ATOM     20  O   UNL     1      33.453 -22.791 -18.547  0.00  0.00    -0.478 OA
BRANCH  20  21
ATOM     21  C   UNL     1      32.692 -22.499 -17.387  0.00  0.00    +0.184 C 
BRANCH  21  23
ATOM     22  N   UNL     1      32.240 -23.338 -15.097  0.00  0.00    +0.388 N 
ATOM     23  C   UNL     1      33.124 -23.434 -16.268  0.00  0.00    -0.017 C 
ATOM     24  C   UNL     1      34.491 -23.087 -15.699  0.00  0.00    -0.020 C 
ATOM     25  C   UNL     1      34.466 -23.676 -14.296  0.00  0.00    -0.025 C 
ATOM     26  C   UNL     1      33.000 -23.962 -14.008  0.00  0.00    -0.082 C 
ATOM     27  H   UNL     1      31.369 -23.842 -15.263  0.00  0.00    -0.084 HD
ATOM     28  H   UNL     1      31.982 -22.374 -14.886  0.00  0.00    -0.084 HD
ENDBRANCH  21  23
ENDBRANCH  20  21
ENDBRANCH   1  20
TORSDOF 6
ENDMDL
MODEL 3
REMARK VINA RESULT:     -11.1      3.734      5.674
REMARK  Name = 44129624
REMARK  6 active torsions:
REMARK  status: ('A' for Active; 'I' for Inactive)
REMARK    1  A    between atoms: C_1  and  O_20
REMARK    2  A    between atoms: C_4  and  C_8
REMARK    3  A    between atoms: C_8  and  C_9
REMARK    4  A    between atoms: C_10  and  C_16
REMARK    5  A    between atoms: O_20  and  C_21
REMARK    6  A    between atoms: C_21  and  C_23
REMARK                            x       y       z     vdW  Elec       q    Type
REMARK                         _______ _______ _______ _____ _____    ______ ____
ROOT
ATOM      1  C   UNL     1      35.593 -22.920 -14.147  0.00  0.00    +0.138 C 
ATOM      2  C   UNL     1      36.447 -22.494 -15.163  0.00  0.00    +0.037 C 
ATOM      3  C   UNL     1      34.290 -23.317 -14.450  0.00  0.00    +0.037 C 
ATOM      4  C   UNL     1      34.697 -22.862 -16.787  0.00  0.00    +0.039 C 
ATOM      5  C   UNL     1      36.000 -22.465 -16.483  0.00  0.00    +0.006 C 
ATOM      6  C   UNL     1      33.843 -23.287 -15.771  0.00  0.00    +0.006 C 
ENDROOT
BRANCH   4   8
ATOM      7  O   UNL     1      33.670 -23.824 -18.654  0.00  0.00    -0.287 OA
ATOM      8  C   UNL     1      34.232 -22.833 -18.165  0.00  0.00    +0.196 C 
BRANCH   8   9
ATOM      9  C   UNL     1      34.401 -21.637 -19.044  0.00  0.00    +0.039 C 
ATOM     10  C   UNL     1      34.718 -19.403 -20.684  0.00  0.00    +0.001 C 
ATOM     11  C   UNL     1      33.281 -20.940 -19.496  0.00  0.00    +0.003 C 
ATOM     12  C   UNL     1      35.680 -21.217 -19.412  0.00  0.00    +0.003 C 
ATOM     13  C   UNL     1      33.440 -19.823 -20.316  0.00  0.00    +0.000 C 
ATOM     14  C   UNL     1      35.838 -20.100 -20.232  0.00  0.00    +0.000 C 
BRANCH  10  16
ATOM     15  S   UNL     1      34.913 -16.836 -23.671  0.00  0.00    -0.086 S 
ATOM     16  C   UNL     1      34.879 -18.252 -21.527  0.00  0.00    +0.007 C 
ATOM     17  C   UNL     1      35.266 -16.940 -21.128  0.00  0.00    +0.007 C 
ATOM     18  C   UNL     1      34.656 -18.335 -22.884  0.00  0.00    +0.035 C 
ATOM     19  C   UNL     1      35.323 -16.070 -22.195  0.00  0.00    +0.035 C 
ENDBRANCH  10  16
ENDBRANCH   8   9
ENDBRANCH   4   8
BRANCH   1  20
ATOM     20  O   UNL     1      36.032 -22.949 -12.846  0.00  0.00    -0.478 OA
BRANCH  20  21
ATOM     21  C   UNL     1      35.794 -24.140 -12.115  0.00  0.00    +0.184 C 
BRANCH  21  23
ATOM     22  N   UNL     1      38.238 -24.359 -12.477  0.00  0.00    +0.388 N 
ATOM     23  C   UNL     1      36.969 -25.084 -12.319  0.00  0.00    -0.017 C 
ATOM     24  C   UNL     1      36.867 -25.889 -13.605  0.00  0.00    -0.020 C 
ATOM     25  C   UNL     1      38.308 -26.263 -13.920  0.00  0.00    -0.025 C 
ATOM     26  C   UNL     1      39.159 -25.346 -13.052  0.00  0.00    -0.082 C 
ATOM     27  H   UNL     1      38.580 -24.032 -11.574  0.00  0.00    -0.084 HD
ATOM     28  H   UNL     1      38.139 -23.532 -13.066  0.00  0.00    -0.084 HD
ENDBRANCH  21  23
ENDBRANCH  20  21
ENDBRANCH   1  20
TORSDOF 6
ENDMDL
MODEL 4
REMARK VINA RESULT:     -10.9      4.766     10.121
REMARK  Name = 44129624
REMARK  6 active torsions:
REMARK  status: ('A' for Active; 'I' for Inactive)
REMARK    1  A    between atoms: C_1  and  O_20
REMARK    2  A    between atoms: C_4  and  C_8
REMARK    3  A    between atoms: C_8  and  C_9
REMARK    4  A    between atoms: C_10  and  C_16
REMARK    5  A    between atoms: O_20  and  C_21
REMARK    6  A    between atoms: C_21  and  C_23
REMARK                            x       y       z     vdW  Elec       q    Type
REMARK                         _______ _______ _______ _____ _____    ______ ____
ROOT
ATOM      1  C   UNL     1      35.727 -19.049 -20.689  0.00  0.00    +0.138 C 
ATOM      2  C   UNL     1      34.371 -19.361 -20.606  0.00  0.00    +0.037 C 
ATOM      3  C   UNL     1      36.668 -19.849 -20.040  0.00  0.00    +0.037 C 
ATOM      4  C   UNL     1      34.895 -21.272 -19.225  0.00  0.00    +0.039 C 
ATOM      5  C   UNL     1      33.954 -20.472 -19.874  0.00  0.00    +0.006 C 
ATOM      6  C   UNL     1      36.251 -20.961 -19.308  0.00  0.00    +0.006 C 
ENDROOT
BRANCH   4   8
ATOM      7  O   UNL     1      33.733 -23.288 -18.990  0.00  0.00    -0.287 OA
ATOM      8  C   UNL     1      34.460 -22.432 -18.464  0.00  0.00    +0.196 C 
BRANCH   8   9
ATOM      9  C   UNL     1      34.857 -22.651 -17.039  0.00  0.00    +0.039 C 
ATOM     10  C   UNL     1      35.598 -23.061 -14.382  0.00  0.00    +0.001 C 
ATOM     11  C   UNL     1      33.948 -23.209 -16.141  0.00  0.00    +0.003 C 
ATOM     12  C   UNL     1      36.136 -22.298 -16.609  0.00  0.00    +0.003 C 
ATOM     13  C   UNL     1      34.319 -23.414 -14.812  0.00  0.00    +0.000 C 
ATOM     14  C   UNL     1      36.506 -22.503 -15.281  0.00  0.00    +0.000 C 
BRANCH  10  16
ATOM     15  S   UNL     1      35.836 -24.106 -10.587  0.00  0.00    -0.086 S 
ATOM     16  C   UNL     1      35.978 -23.273 -13.013  0.00  0.00    +0.007 C 
ATOM     17  C   UNL     1      37.160 -22.810 -12.367  0.00  0.00    +0.007 C 
ATOM     18  C   UNL     1      35.169 -23.992 -12.160  0.00  0.00    +0.035 C 
ATOM     19  C   UNL     1      37.211 -23.193 -11.045  0.00  0.00    +0.035 C 
ENDBRANCH  10  16
ENDBRANCH   8   9
ENDBRANCH   4   8
BRANCH   1  20
ATOM     20  O   UNL     1      36.138 -17.955 -21.409  0.00  0.00    -0.478 OA
BRANCH  20  21
ATOM     21  C   UNL     1      35.378 -16.768 -21.261  0.00  0.00    +0.184 C 
BRANCH  21  23
ATOM     22  N   UNL     1      34.241 -15.023 -22.610  0.00  0.00    +0.388 N 
ATOM     23  C   UNL     1      35.245 -16.098 -22.620  0.00  0.00    -0.017 C 
ATOM     24  C   UNL     1      34.732 -17.039 -23.699  0.00  0.00    -0.020 C 
ATOM     25  C   UNL     1      34.112 -16.111 -24.733  0.00  0.00    -0.025 C 
ATOM     26  C   UNL     1      33.951 -14.773 -24.026  0.00  0.00    -0.082 C 
ATOM     27  H   UNL     1      34.618 -14.185 -22.166  0.00  0.00    -0.084 HD
ATOM     28  H   UNL     1      33.407 -15.279 -22.083  0.00  0.00    -0.084 HD
ENDBRANCH  21  23
ENDBRANCH  20  21
ENDBRANCH   1  20
TORSDOF 6
ENDMDL
MODEL 5
REMARK VINA RESULT:     -10.9      2.090      3.740
REMARK  Name = 44129624
REMARK  6 active torsions:
REMARK  status: ('A' for Active; 'I' for Inactive)
REMARK    1  A    between atoms: C_1  and  O_20
REMARK    2  A    between atoms: C_4  and  C_8
REMARK    3  A    between atoms: C_8  and  C_9
REMARK    4  A    between atoms: C_10  and  C_16
REMARK    5  A    between atoms: O_20  and  C_21
REMARK    6  A    between atoms: C_21  and  C_23
REMARK                            x       y       z     vdW  Elec       q    Type
REMARK                         _______ _______ _______ _____ _____    ______ ____
ROOT
ATOM      1  C   UNL     1      35.940 -19.641 -20.406  0.00  0.00    +0.138 C 
ATOM      2  C   UNL     1      34.641 -19.790 -20.889  0.00  0.00    +0.037 C 
ATOM      3  C   UNL     1      36.805 -18.721 -21.000  0.00  0.00    +0.037 C 
ATOM      4  C   UNL     1      35.069 -18.100 -22.561  0.00  0.00    +0.039 C 
ATOM      5  C   UNL     1      34.205 -19.020 -21.966  0.00  0.00    +0.006 C 
ATOM      6  C   UNL     1      36.369 -17.951 -22.078  0.00  0.00    +0.006 C 
ENDROOT
BRANCH   4   8
ATOM      7  O   UNL     1      34.408 -17.822 -24.787  0.00  0.00    -0.287 OA
ATOM      8  C   UNL     1      34.614 -17.295 -23.683  0.00  0.00    +0.196 C 
BRANCH   8   9
ATOM      9  C   UNL     1      34.373 -15.824 -23.570  0.00  0.00    +0.039 C 
ATOM     10  C   UNL     1      33.924 -13.080 -23.357  0.00  0.00    +0.001 C 
ATOM     11  C   UNL     1      33.727 -15.142 -24.600  0.00  0.00    +0.003 C 
ATOM     12  C   UNL     1      34.795 -15.134 -22.433  0.00  0.00    +0.003 C 
ATOM     13  C   UNL     1      33.503 -13.770 -24.494  0.00  0.00    +0.000 C 
ATOM     14  C   UNL     1      34.571 -13.762 -22.327  0.00  0.00    +0.000 C 
BRANCH  10  16
ATOM     15  S   UNL     1      32.622  -9.466 -22.464  0.00  0.00    -0.086 S 
ATOM     16  C   UNL     1      33.691 -11.667 -23.249  0.00  0.00    +0.007 C 
ATOM     17  C   UNL     1      34.387 -10.626 -23.928  0.00  0.00    +0.007 C 
ATOM     18  C   UNL     1      32.705 -11.176 -22.421  0.00  0.00    +0.035 C 
ATOM     19  C   UNL     1      33.907  -9.378 -23.592  0.00  0.00    +0.035 C 
ENDBRANCH  10  16
ENDBRANCH   8   9
ENDBRANCH   4   8
BRANCH   1  20
ATOM     20  O   UNL     1      36.371 -20.399 -19.345  0.00  0.00    -0.478 OA
BRANCH  20  21
ATOM     21  C   UNL     1      35.875 -21.725 -19.262  0.00  0.00    +0.184 C 
BRANCH  21  23
ATOM     22  N   UNL     1      35.646 -22.510 -16.920  0.00  0.00    +0.388 N 
ATOM     23  C   UNL     1      34.975 -21.836 -18.042  0.00  0.00    -0.017 C 
ATOM     24  C   UNL     1      33.750 -22.705 -18.284  0.00  0.00    -0.020 C 
ATOM     25  C   UNL     1      33.351 -23.175 -16.893  0.00  0.00    -0.025 C 
ATOM     26  C   UNL     1      34.559 -22.890 -16.012  0.00  0.00    -0.082 C 
ATOM     27  H   UNL     1      36.297 -21.876 -16.457  0.00  0.00    -0.084 HD
ATOM     28  H   UNL     1      36.194 -23.314 -17.226  0.00  0.00    -0.084 HD
ENDBRANCH  21  23
ENDBRANCH  20  21
ENDBRANCH   1  20
TORSDOF 6
ENDMDL
MODEL 6
REMARK VINA RESULT:     -10.9      3.701      5.296
REMARK  Name = 44129624
REMARK  6 active torsions:
REMARK  status: ('A' for Active; 'I' for Inactive)
REMARK    1  A    between atoms: C_1  and  O_20
REMARK    2  A    between atoms: C_4  and  C_8
REMARK    3  A    between atoms: C_8  and  C_9
REMARK    4  A    between atoms: C_10  and  C_16
REMARK    5  A    between atoms: O_20  and  C_21
REMARK    6  A    between atoms: C_21  and  C_23
REMARK                            x       y       z     vdW  Elec       q    Type
REMARK                         _______ _______ _______ _____ _____    ______ ____
ROOT
ATOM      1  C   UNL     1      36.818 -22.747 -14.821  0.00  0.00    +0.138 C 
ATOM      2  C   UNL     1      37.296 -22.136 -15.980  0.00  0.00    +0.037 C 
ATOM      3  C   UNL     1      35.514 -23.239 -14.779  0.00  0.00    +0.037 C 
ATOM      4  C   UNL     1      35.166 -22.509 -17.056  0.00  0.00    +0.039 C 
ATOM      5  C   UNL     1      36.471 -22.016 -17.097  0.00  0.00    +0.006 C 
ATOM      6  C   UNL     1      34.688 -23.120 -15.897  0.00  0.00    +0.006 C 
ENDROOT
BRANCH   4   8
ATOM      7  O   UNL     1      33.416 -23.224 -18.432  0.00  0.00    -0.287 OA
ATOM      8  C   UNL     1      34.306 -22.386 -18.222  0.00  0.00    +0.196 C 
BRANCH   8   9
ATOM      9  C   UNL     1      34.445 -21.271 -19.206  0.00  0.00    +0.039 C 
ATOM     10  C   UNL     1      34.703 -19.189 -21.045  0.00  0.00    +0.001 C 
ATOM     11  C   UNL     1      35.712 -20.827 -19.583  0.00  0.00    +0.003 C 
ATOM     12  C   UNL     1      33.306 -20.673 -19.748  0.00  0.00    +0.003 C 
ATOM     13  C   UNL     1      35.841 -19.786 -20.502  0.00  0.00    +0.000 C 
ATOM     14  C   UNL     1      33.435 -19.632 -20.667  0.00  0.00    +0.000 C 
BRANCH  10  16
ATOM     15  S   UNL     1      34.656 -16.849 -24.219  0.00  0.00    -0.086 S 
ATOM     16  C   UNL     1      34.837 -18.118 -21.992  0.00  0.00    +0.007 C 
ATOM     17  C   UNL     1      35.419 -16.837 -21.765  0.00  0.00    +0.007 C 
ATOM     18  C   UNL     1      34.382 -18.258 -23.285  0.00  0.00    +0.035 C 
ATOM     19  C   UNL     1      35.386 -16.047 -22.893  0.00  0.00    +0.035 C 
ENDBRANCH  10  16
ENDBRANCH   8   9
ENDBRANCH   4   8
BRANCH   1  20
ATOM     20  O   UNL     1      37.630 -22.865 -13.720  0.00  0.00    -0.478 OA
BRANCH  20  21
ATOM     21  C   UNL     1      37.993 -24.178 -13.328  0.00  0.00    +0.184 C 
BRANCH  21  23
ATOM     22  N   UNL     1      36.181 -25.112 -11.915  0.00  0.00    +0.388 N 
ATOM     23  C   UNL     1      37.482 -24.427 -11.917  0.00  0.00    -0.017 C 
ATOM     24  C   UNL     1      37.198 -23.143 -11.153  0.00  0.00    -0.020 C 
ATOM     25  C   UNL     1      36.183 -23.559 -10.099  0.00  0.00    -0.025 C 
ATOM     26  C   UNL     1      35.659 -24.912 -10.558  0.00  0.00    -0.082 C 
ATOM     27  H   UNL     1      36.297 -26.106 -12.112  0.00  0.00    -0.084 HD
ATOM     28  H   UNL     1      35.551 -24.747 -12.629  0.00  0.00    -0.084 HD
ENDBRANCH  21  23
ENDBRANCH  20  21
ENDBRANCH   1  20
TORSDOF 6
ENDMDL
MODEL 7
REMARK VINA RESULT:     -10.8      5.114     10.043
REMARK  Name = 44129624
REMARK  6 active torsions:
REMARK  status: ('A' for Active; 'I' for Inactive)
REMARK    1  A    between atoms: C_1  and  O_20
REMARK    2  A    between atoms: C_4  and  C_8
REMARK    3  A    between atoms: C_8  and  C_9
REMARK    4  A    between atoms: C_10  and  C_16
REMARK    5  A    between atoms: O_20  and  C_21
REMARK    6  A    between atoms: C_21  and  C_23
REMARK                            x       y       z     vdW  Elec       q    Type
REMARK                         _______ _______ _______ _____ _____    ______ ____
ROOT
ATOM      1  C   UNL     1      33.473 -12.173 -23.383  0.00  0.00    +0.138 C 
ATOM      2  C   UNL     1      33.110 -12.749 -24.600  0.00  0.00    +0.037 C 
ATOM      3  C   UNL     1      34.206 -12.910 -22.453  0.00  0.00    +0.037 C 
ATOM      4  C   UNL     1      34.213 -14.800 -23.957  0.00  0.00    +0.039 C 
ATOM      5  C   UNL     1      33.479 -14.063 -24.887  0.00  0.00    +0.006 C 
ATOM      6  C   UNL     1      34.576 -14.224 -22.741  0.00  0.00    +0.006 C 
ENDROOT
BRANCH   4   8
ATOM      7  O   UNL     1      34.793 -16.520 -25.432  0.00  0.00    -0.287 OA
ATOM      8  C   UNL     1      34.600 -16.169 -24.258  0.00  0.00    +0.196 C 
BRANCH   8   9
ATOM      9  C   UNL     1      34.783 -17.203 -23.195  0.00  0.00    +0.039 C 
ATOM     10  C   UNL     1      35.123 -19.133 -21.209  0.00  0.00    +0.001 C 
ATOM     11  C   UNL     1      35.543 -16.911 -22.063  0.00  0.00    +0.003 C 
ATOM     12  C   UNL     1      34.194 -18.460 -23.335  0.00  0.00    +0.003 C 
ATOM     13  C   UNL     1      35.713 -17.876 -21.070  0.00  0.00    +0.000 C 
ATOM     14  C   UNL     1      34.364 -19.424 -22.342  0.00  0.00    +0.000 C 
BRANCH  10  16
ATOM     15  S   UNL     1      34.689 -21.969 -18.505  0.00  0.00    -0.086 S 
ATOM     16  C   UNL     1      35.299 -20.124 -20.186  0.00  0.00    +0.007 C 
ATOM     17  C   UNL     1      36.515 -20.485 -19.538  0.00  0.00    +0.007 C 
ATOM     18  C   UNL     1      34.227 -20.854 -19.719  0.00  0.00    +0.035 C 
ATOM     19  C   UNL     1      36.327 -21.478 -18.600  0.00  0.00    +0.035 C 
ENDBRANCH  10  16
ENDBRANCH   8   9
ENDBRANCH   4   8
BRANCH   1  20
ATOM     20  O   UNL     1      33.110 -10.880 -23.099  0.00  0.00    -0.478 OA
BRANCH  20  21
ATOM     21  C   UNL     1      32.339 -10.673 -21.927  0.00  0.00    +0.184 C 
BRANCH  21  23
ATOM     22  N   UNL     1      33.428  -8.461 -22.196  0.00  0.00    +0.388 N 
ATOM     23  C   UNL     1      32.272  -9.181 -21.641  0.00  0.00    -0.017 C 
ATOM     24  C   UNL     1      32.343  -8.857 -20.157  0.00  0.00    -0.020 C 
ATOM     25  C   UNL     1      32.863  -7.428 -20.116  0.00  0.00    -0.025 C 
ATOM     26  C   UNL     1      33.422  -7.166 -21.507  0.00  0.00    -0.082 C 
ATOM     27  H   UNL     1      33.322  -8.334 -23.202  0.00  0.00    -0.084 HD
ATOM     28  H   UNL     1      34.301  -8.968 -22.058  0.00  0.00    -0.084 HD
ENDBRANCH  21  23
ENDBRANCH  20  21
ENDBRANCH   1  20
TORSDOF 6
ENDMDL
MODEL 8
REMARK VINA RESULT:     -10.7      4.568     10.066
REMARK  Name = 44129624
REMARK  6 active torsions:
REMARK  status: ('A' for Active; 'I' for Inactive)
REMARK    1  A    between atoms: C_1  and  O_20
REMARK    2  A    between atoms: C_4  and  C_8
REMARK    3  A    between atoms: C_8  and  C_9
REMARK    4  A    between atoms: C_10  and  C_16
REMARK    5  A    between atoms: O_20  and  C_21
REMARK    6  A    between atoms: C_21  and  C_23
REMARK                            x       y       z     vdW  Elec       q    Type
REMARK                         _______ _______ _______ _____ _____    ______ ____
ROOT
ATOM      1  C   UNL     1      35.757 -18.933 -20.811  0.00  0.00    +0.138 C 
ATOM      2  C   UNL     1      36.634 -19.774 -20.127  0.00  0.00    +0.037 C 
ATOM      3  C   UNL     1      34.384 -19.175 -20.771  0.00  0.00    +0.037 C 
ATOM      4  C   UNL     1      34.765 -21.099 -19.361  0.00  0.00    +0.039 C 
ATOM      5  C   UNL     1      36.138 -20.856 -19.402  0.00  0.00    +0.006 C 
ATOM      6  C   UNL     1      33.888 -20.258 -20.045  0.00  0.00    +0.006 C 
ENDROOT
BRANCH   4   8
ATOM      7  O   UNL     1      33.394 -22.975 -19.100  0.00  0.00    -0.287 OA
ATOM      8  C   UNL     1      34.248 -22.227 -18.602  0.00  0.00    +0.196 C 
BRANCH   8   9
ATOM      9  C   UNL     1      34.708 -22.537 -17.214  0.00  0.00    +0.039 C 
ATOM     10  C   UNL     1      35.565 -23.116 -14.624  0.00  0.00    +0.001 C 
ATOM     11  C   UNL     1      36.000 -22.197 -16.816  0.00  0.00    +0.003 C 
ATOM     12  C   UNL     1      33.844 -23.168 -16.318  0.00  0.00    +0.003 C 
ATOM     13  C   UNL     1      36.428 -22.486 -15.520  0.00  0.00    +0.000 C 
ATOM     14  C   UNL     1      34.273 -23.458 -15.023  0.00  0.00    +0.000 C 
BRANCH  10  16
ATOM     15  S   UNL     1      37.623 -23.887 -11.350  0.00  0.00    -0.086 S 
ATOM     16  C   UNL     1      36.007 -23.413 -13.290  0.00  0.00    +0.007 C 
ATOM     17  C   UNL     1      35.193 -23.617 -12.139  0.00  0.00    +0.007 C 
ATOM     18  C   UNL     1      37.349 -23.531 -13.003  0.00  0.00    +0.035 C 
ATOM     19  C   UNL     1      35.944 -23.884 -11.015  0.00  0.00    +0.035 C 
ENDBRANCH  10  16
ENDBRANCH   8   9
ENDBRANCH   4   8
BRANCH   1  20
ATOM     20  O   UNL     1      36.244 -17.867 -21.526  0.00  0.00    -0.478 OA
BRANCH  20  21
ATOM     21  C   UNL     1      35.436 -17.383 -22.586  0.00  0.00    +0.184 C 
BRANCH  21  23
ATOM     22  N   UNL     1      34.879 -15.439 -21.150  0.00  0.00    +0.388 N 
ATOM     23  C   UNL     1      35.341 -15.869 -22.478  0.00  0.00    -0.017 C 
ATOM     24  C   UNL     1      34.303 -15.271 -23.415  0.00  0.00    -0.020 C 
ATOM     25  C   UNL     1      33.935 -13.947 -22.761  0.00  0.00    -0.025 C 
ATOM     26  C   UNL     1      34.462 -14.045 -21.336  0.00  0.00    -0.082 C 
ATOM     27  H   UNL     1      35.636 -15.500 -20.469  0.00  0.00    -0.084 HD
ATOM     28  H   UNL     1      34.123 -16.025 -20.796  0.00  0.00    -0.084 HD
ENDBRANCH  21  23
ENDBRANCH  20  21
ENDBRANCH   1  20
TORSDOF 6
ENDMDL
MODEL 9
REMARK VINA RESULT:     -10.6      3.016      5.601
REMARK  Name = 44129624
REMARK  6 active torsions:
REMARK  status: ('A' for Active; 'I' for Inactive)
REMARK    1  A    between atoms: C_1  and  O_20
REMARK    2  A    between atoms: C_4  and  C_8
REMARK    3  A    between atoms: C_8  and  C_9
REMARK    4  A    between atoms: C_10  and  C_16
REMARK    5  A    between atoms: O_20  and  C_21
REMARK    6  A    between atoms: C_21  and  C_23
REMARK                            x       y       z     vdW  Elec       q    Type
REMARK                         _______ _______ _______ _____ _____    ______ ____
ROOT
ATOM      1  C   UNL     1      34.865 -18.569 -22.791  0.00  0.00    +0.138 C 
ATOM      2  C   UNL     1      34.010 -18.698 -23.885  0.00  0.00    +0.037 C 
ATOM      3  C   UNL     1      35.387 -17.319 -22.458  0.00  0.00    +0.037 C 
ATOM      4  C   UNL     1      34.198 -16.328 -24.312  0.00  0.00    +0.039 C 
ATOM      5  C   UNL     1      33.676 -17.578 -24.645  0.00  0.00    +0.006 C 
ATOM      6  C   UNL     1      35.053 -16.199 -23.218  0.00  0.00    +0.006 C 
ENDROOT
BRANCH   4   8
ATOM      7  O   UNL     1      33.707 -15.257 -26.332  0.00  0.00    -0.287 OA
ATOM      8  C   UNL     1      33.847 -15.160 -25.104  0.00  0.00    +0.196 C 
BRANCH   8   9
ATOM      9  C   UNL     1      33.642 -13.810 -24.495  0.00  0.00    +0.039 C 
ATOM     10  C   UNL     1      33.260 -11.292 -23.358  0.00  0.00    +0.001 C 
ATOM     11  C   UNL     1      33.261 -13.700 -23.158  0.00  0.00    +0.003 C 
ATOM     12  C   UNL     1      33.831 -12.662 -25.264  0.00  0.00    +0.003 C 
ATOM     13  C   UNL     1      33.070 -12.440 -22.590  0.00  0.00    +0.000 C 
ATOM     14  C   UNL     1      33.640 -11.403 -24.695  0.00  0.00    +0.000 C 
BRANCH  10  16
ATOM     15  S   UNL     1      32.039  -8.167 -21.285  0.00  0.00    -0.086 S 
ATOM     16  C   UNL     1      33.063  -9.996 -22.771  0.00  0.00    +0.007 C 
ATOM     17  C   UNL     1      33.802  -8.808 -23.042  0.00  0.00    +0.007 C 
ATOM     18  C   UNL     1      32.074  -9.789 -21.834  0.00  0.00    +0.035 C 
ATOM     19  C   UNL     1      33.349  -7.738 -22.301  0.00  0.00    +0.035 C 
ENDBRANCH  10  16
ENDBRANCH   8   9
ENDBRANCH   4   8
BRANCH   1  20
ATOM     20  O   UNL     1      35.194 -19.671 -22.042  0.00  0.00    -0.478 OA
BRANCH  20  21
ATOM     21  C   UNL     1      35.877 -19.436 -20.822  0.00  0.00    +0.184 C 
BRANCH  21  23
ATOM     22  N   UNL     1      35.635 -21.572 -19.585  0.00  0.00    +0.388 N 
ATOM     23  C   UNL     1      35.163 -20.185 -19.708  0.00  0.00    -0.017 C 
ATOM     24  C   UNL     1      33.672 -20.348 -19.962  0.00  0.00    -0.020 C 
ATOM     25  C   UNL     1      33.288 -21.564 -19.134  0.00  0.00    -0.025 C 
ATOM     26  C   UNL     1      34.605 -22.244 -18.786  0.00  0.00    -0.082 C 
ATOM     27  H   UNL     1      36.537 -21.604 -19.110  0.00  0.00    -0.084 HD
ATOM     28  H   UNL     1      35.770 -22.016 -20.493  0.00  0.00    -0.084 HD
ENDBRANCH  21  23
ENDBRANCH  20  21
ENDBRANCH   1  20
TORSDOF 6
ENDMDL
