MODEL 1
REMARK VINA RESULT:     -12.5      0.000      0.000
REMARK  Name = 24978486
REMARK  5 active torsions:
REMARK  status: ('A' for Active; 'I' for Inactive)
REMARK    1  A    between atoms: O_1  and  C_6
REMARK    2  A    between atoms: O_1  and  C_18
REMARK    3  A    between atoms: C_18  and  C_20
REMARK    4  A    between atoms: N_19  and  C_26
REMARK    5  A    between atoms: C_26  and  C_29
REMARK                            x       y       z     vdW  Elec       q    Type
REMARK                         _______ _______ _______ _____ _____    ______ ____
ROOT
ATOM      1  O   UNL     1      34.851 -22.756 -16.838  0.00  0.00    -0.479 OA
ENDROOT
BRANCH   1   6
ATOM      2  N   UNL     1      35.901 -23.729 -12.209  0.00  0.00    -0.332 NA
ATOM      3  N   UNL     1      37.702 -23.111 -13.686  0.00  0.00    -0.317 NA
ATOM      4  N   UNL     1      37.319 -22.620 -15.932  0.00  0.00    -0.335 N 
ATOM      5  N   UNL     1      38.110 -23.600 -11.431  0.00  0.00    -0.283 N 
ATOM      6  C   UNL     1      34.507 -23.114 -15.559  0.00  0.00    +0.130 C 
ATOM      7  C   UNL     1      35.434 -23.237 -14.510  0.00  0.00    +0.177 C 
ATOM      8  C   UNL     1      33.158 -23.364 -15.327  0.00  0.00    +0.033 C 
ATOM      9  C   UNL     1      35.022 -23.609 -13.220  0.00  0.00    +0.137 C 
ATOM     10  C   UNL     1      36.796 -23.000 -14.675  0.00  0.00    +0.181 C 
ATOM     11  C   UNL     1      32.737 -23.735 -14.055  0.00  0.00    +0.005 C 
ATOM     12  C   UNL     1      33.666 -23.854 -13.016  0.00  0.00    +0.030 C 
ATOM     13  C   UNL     1      37.193 -23.473 -12.497  0.00  0.00    +0.197 C 
ATOM     14  H   UNL     1      38.283 -22.456 -16.036  0.00  0.00    +0.144 HD
ATOM     15  H   UNL     1      36.716 -22.518 -16.705  0.00  0.00    +0.144 HD
ATOM     16  H   UNL     1      37.792 -23.863 -10.537  0.00  0.00    +0.156 HD
ATOM     17  H   UNL     1      39.067 -23.424 -11.580  0.00  0.00    +0.156 HD
ENDBRANCH   1   6
BRANCH   1  18
ATOM     18  C   UNL     1      33.794 -22.581 -17.764  0.00  0.00    +0.205 C 
BRANCH  18  20
ATOM     19  N   UNL     1      35.232 -19.398 -20.304  0.00  0.00    +0.390 N 
ATOM     20  C   UNL     1      34.340 -21.865 -18.996  0.00  0.00    +0.040 C 
ATOM     21  C   UNL     1      35.701 -21.226 -18.704  0.00  0.00    -0.019 C 
ATOM     22  C   UNL     1      33.360 -20.795 -19.490  0.00  0.00    -0.019 C 
ATOM     23  C   UNL     1      36.207 -20.421 -19.904  0.00  0.00    -0.077 C 
ATOM     24  C   UNL     1      33.943 -20.005 -20.663  0.00  0.00    -0.077 C 
ATOM     25  H   UNL     1      35.079 -18.780 -19.507  0.00  0.00    -0.079 HD
BRANCH  19  26
ATOM     26  C   UNL     1      35.752 -18.605 -21.418  0.00  0.00    -0.049 C 
BRANCH  26  29
ATOM     27 CL   UNL     1      35.019 -17.232 -24.037  0.00  0.00    -0.082 Cl
ATOM     28 CL   UNL     1      34.058 -14.180 -23.748  0.00  0.00    -0.081 Cl
ATOM     29  C   UNL     1      35.294 -17.172 -21.349  0.00  0.00    -0.032 C 
ATOM     30  C   UNL     1      34.936 -16.454 -22.490  0.00  0.00    +0.062 C 
ATOM     31  C   UNL     1      35.234 -16.564 -20.095  0.00  0.00    -0.005 C 
ATOM     32  C   UNL     1      34.517 -15.128 -22.376  0.00  0.00    +0.068 C 
ATOM     33  C   UNL     1      34.815 -15.239 -19.981  0.00  0.00    +0.001 C 
ATOM     34  C   UNL     1      34.457 -14.521 -21.123  0.00  0.00    +0.012 C 
ENDBRANCH  26  29
ENDBRANCH  19  26
ENDBRANCH  18  20
ENDBRANCH   1  18
TORSDOF 5
ENDMDL
MODEL 2
REMARK VINA RESULT:     -12.2      1.522      2.318
REMARK  Name = 24978486
REMARK  5 active torsions:
REMARK  status: ('A' for Active; 'I' for Inactive)
REMARK    1  A    between atoms: O_1  and  C_6
REMARK    2  A    between atoms: O_1  and  C_18
REMARK    3  A    between atoms: C_18  and  C_20
REMARK    4  A    between atoms: N_19  and  C_26
REMARK    5  A    between atoms: C_26  and  C_29
REMARK                            x       y       z     vdW  Elec       q    Type
REMARK                         _______ _______ _______ _____ _____    ______ ____
ROOT
ATOM      1  O   UNL     1      34.435 -23.364 -16.800  0.00  0.00    -0.479 OA
ENDROOT
BRANCH   1   6
ATOM      2  N   UNL     1      33.990 -23.938 -12.009  0.00  0.00    -0.332 NA
ATOM      3  N   UNL     1      36.190 -24.090 -12.980  0.00  0.00    -0.317 NA
ATOM      4  N   UNL     1      36.528 -23.830 -15.273  0.00  0.00    -0.335 N 
ATOM      5  N   UNL     1      35.874 -24.353 -10.674  0.00  0.00    -0.283 N 
ATOM      6  C   UNL     1      33.701 -23.421 -15.641  0.00  0.00    +0.130 C 
ATOM      7  C   UNL     1      34.264 -23.661 -14.376  0.00  0.00    +0.177 C 
ATOM      8  C   UNL     1      32.329 -23.230 -15.767  0.00  0.00    +0.033 C 
ATOM      9  C   UNL     1      33.461 -23.710 -13.225  0.00  0.00    +0.137 C 
ATOM     10  C   UNL     1      35.628 -23.859 -14.182  0.00  0.00    +0.181 C 
ATOM     11  C   UNL     1      31.523 -23.277 -14.635  0.00  0.00    +0.005 C 
ATOM     12  C   UNL     1      32.091 -23.516 -13.379  0.00  0.00    +0.030 C 
ATOM     13  C   UNL     1      35.325 -24.115 -11.953  0.00  0.00    +0.197 C 
ATOM     14  H   UNL     1      37.490 -23.972 -15.122  0.00  0.00    +0.144 HD
ATOM     15  H   UNL     1      36.190 -23.667 -16.183  0.00  0.00    +0.144 HD
ATOM     16  H   UNL     1      35.286 -24.382  -9.884  0.00  0.00    +0.156 HD
ATOM     17  H   UNL     1      36.843 -24.489 -10.570  0.00  0.00    +0.156 HD
ENDBRANCH   1   6
BRANCH   1  18
ATOM     18  C   UNL     1      33.745 -22.997 -17.980  0.00  0.00    +0.205 C 
BRANCH  18  20
ATOM     19  N   UNL     1      35.395 -20.015 -20.634  0.00  0.00    +0.390 N 
ATOM     20  C   UNL     1      34.297 -21.661 -18.471  0.00  0.00    +0.040 C 
ATOM     21  C   UNL     1      33.422 -21.080 -19.587  0.00  0.00    -0.019 C 
ATOM     22  C   UNL     1      35.738 -21.811 -18.968  0.00  0.00    -0.019 C 
ATOM     23  C   UNL     1      34.025 -19.792 -20.152  0.00  0.00    -0.077 C 
ATOM     24  C   UNL     1      36.264 -20.499 -19.553  0.00  0.00    -0.077 C 
ATOM     25  H   UNL     1      35.361 -20.734 -21.357  0.00  0.00    -0.079 HD
BRANCH  19  26
ATOM     26  C   UNL     1      35.938 -18.789 -21.217  0.00  0.00    -0.049 C 
BRANCH  26  29
ATOM     27 CL   UNL     1      35.345 -15.825 -21.601  0.00  0.00    -0.082 Cl
ATOM     28 CL   UNL     1      33.758 -15.096 -24.298  0.00  0.00    -0.081 Cl
ATOM     29  C   UNL     1      35.195 -18.383 -22.463  0.00  0.00    -0.032 C 
ATOM     30  C   UNL     1      34.875 -17.052 -22.732  0.00  0.00    +0.062 C 
ATOM     31  C   UNL     1      34.826 -19.385 -23.360  0.00  0.00    -0.005 C 
ATOM     32  C   UNL     1      34.186 -16.724 -23.900  0.00  0.00    +0.068 C 
ATOM     33  C   UNL     1      34.138 -19.056 -24.528  0.00  0.00    +0.001 C 
ATOM     34  C   UNL     1      33.817 -17.726 -24.798  0.00  0.00    +0.012 C 
ENDBRANCH  26  29
ENDBRANCH  19  26
ENDBRANCH  18  20
ENDBRANCH   1  18
TORSDOF 5
ENDMDL
MODEL 3
REMARK VINA RESULT:     -12.1      3.613      5.920
REMARK  Name = 24978486
REMARK  5 active torsions:
REMARK  status: ('A' for Active; 'I' for Inactive)
REMARK    1  A    between atoms: O_1  and  C_6
REMARK    2  A    between atoms: O_1  and  C_18
REMARK    3  A    between atoms: C_18  and  C_20
REMARK    4  A    between atoms: N_19  and  C_26
REMARK    5  A    between atoms: C_26  and  C_29
REMARK                            x       y       z     vdW  Elec       q    Type
REMARK                         _______ _______ _______ _____ _____    ______ ____
ROOT
ATOM      1  O   UNL     1      34.375 -19.265 -21.243  0.00  0.00    -0.479 OA
ENDROOT
BRANCH   1   6
ATOM      2  N   UNL     1      34.677 -22.437 -17.592  0.00  0.00    -0.332 NA
ATOM      3  N   UNL     1      32.498 -21.916 -18.478  0.00  0.00    -0.317 NA
ATOM      4  N   UNL     1      32.228 -20.406 -20.234  0.00  0.00    -0.335 N 
ATOM      5  N   UNL     1      32.746 -23.437 -16.713  0.00  0.00    -0.283 N 
ATOM      6  C   UNL     1      35.077 -19.997 -20.318  0.00  0.00    +0.130 C 
ATOM      7  C   UNL     1      34.473 -20.873 -19.400  0.00  0.00    +0.177 C 
ATOM      8  C   UNL     1      36.458 -19.834 -20.319  0.00  0.00    +0.033 C 
ATOM      9  C   UNL     1      35.245 -21.595 -18.475  0.00  0.00    +0.137 C 
ATOM     10  C   UNL     1      33.098 -21.082 -19.347  0.00  0.00    +0.181 C 
ATOM     11  C   UNL     1      37.233 -20.542 -19.407  0.00  0.00    +0.005 C 
ATOM     12  C   UNL     1      36.625 -21.413 -18.497  0.00  0.00    +0.030 C 
ATOM     13  C   UNL     1      33.335 -22.552 -17.642  0.00  0.00    +0.197 C 
ATOM     14  H   UNL     1      31.258 -20.562 -20.186  0.00  0.00    +0.144 HD
ATOM     15  H   UNL     1      32.594 -19.779 -20.899  0.00  0.00    +0.144 HD
ATOM     16  H   UNL     1      33.313 -23.930 -16.076  0.00  0.00    +0.156 HD
ATOM     17  H   UNL     1      31.770 -23.563 -16.703  0.00  0.00    +0.156 HD
ENDBRANCH   1   6
BRANCH   1  18
ATOM     18  C   UNL     1      34.929 -19.168 -22.542  0.00  0.00    +0.205 C 
BRANCH  18  20
ATOM     19  N   UNL     1      34.131 -14.951 -23.025  0.00  0.00    +0.390 N 
ATOM     20  C   UNL     1      35.153 -17.694 -22.867  0.00  0.00    +0.040 C 
ATOM     21  C   UNL     1      34.951 -16.820 -21.625  0.00  0.00    -0.019 C 
ATOM     22  C   UNL     1      34.217 -17.229 -23.986  0.00  0.00    -0.019 C 
ATOM     23  C   UNL     1      35.075 -15.333 -21.966  0.00  0.00    -0.077 C 
ATOM     24  C   UNL     1      34.365 -15.729 -24.249  0.00  0.00    -0.077 C 
ATOM     25  H   UNL     1      33.188 -15.158 -22.695  0.00  0.00    -0.079 HD
BRANCH  19  26
ATOM     26  C   UNL     1      34.226 -13.518 -23.302  0.00  0.00    -0.049 C 
BRANCH  26  29
ATOM     27 CL   UNL     1      33.806 -10.583 -24.002  0.00  0.00    -0.082 Cl
ATOM     28 CL   UNL     1      31.855  -8.979 -22.016  0.00  0.00    -0.081 Cl
ATOM     29  C   UNL     1      33.322 -12.712 -22.408  0.00  0.00    -0.032 C 
ATOM     30  C   UNL     1      33.064 -11.361 -22.642  0.00  0.00    +0.062 C 
ATOM     31  C   UNL     1      32.734 -13.356 -21.319  0.00  0.00    -0.005 C 
ATOM     32  C   UNL     1      32.219 -10.655 -21.785  0.00  0.00    +0.068 C 
ATOM     33  C   UNL     1      31.889 -12.650 -20.464  0.00  0.00    +0.001 C 
ATOM     34  C   UNL     1      31.631 -11.299 -20.697  0.00  0.00    +0.012 C 
ENDBRANCH  26  29
ENDBRANCH  19  26
ENDBRANCH  18  20
ENDBRANCH   1  18
TORSDOF 5
ENDMDL
MODEL 4
REMARK VINA RESULT:     -12.0      2.200      3.257
REMARK  Name = 24978486
REMARK  5 active torsions:
REMARK  status: ('A' for Active; 'I' for Inactive)
REMARK    1  A    between atoms: O_1  and  C_6
REMARK    2  A    between atoms: O_1  and  C_18
REMARK    3  A    between atoms: C_18  and  C_20
REMARK    4  A    between atoms: N_19  and  C_26
REMARK    5  A    between atoms: C_26  and  C_29
REMARK                            x       y       z     vdW  Elec       q    Type
REMARK                         _______ _______ _______ _____ _____    ______ ____
ROOT
ATOM      1  O   UNL     1      35.271 -21.934 -18.126  0.00  0.00    -0.479 OA
ENDROOT
BRANCH   1   6
ATOM      2  N   UNL     1      32.905 -23.727 -14.296  0.00  0.00    -0.332 NA
ATOM      3  N   UNL     1      31.645 -23.227 -16.288  0.00  0.00    -0.317 NA
ATOM      4  N   UNL     1      32.674 -22.362 -18.193  0.00  0.00    -0.335 N 
ATOM      5  N   UNL     1      30.591 -24.097 -14.385  0.00  0.00    -0.283 N 
ATOM      6  C   UNL     1      35.216 -22.410 -16.840  0.00  0.00    +0.130 C 
ATOM      7  C   UNL     1      34.029 -22.838 -16.219  0.00  0.00    +0.177 C 
ATOM      8  C   UNL     1      36.419 -22.452 -16.143  0.00  0.00    +0.033 C 
ATOM      9  C   UNL     1      34.035 -23.314 -14.898  0.00  0.00    +0.137 C 
ATOM     10  C   UNL     1      32.794 -22.822 -16.861  0.00  0.00    +0.181 C 
ATOM     11  C   UNL     1      36.438 -22.920 -14.834  0.00  0.00    +0.005 C 
ATOM     12  C   UNL     1      35.253 -23.345 -14.224  0.00  0.00    +0.030 C 
ATOM     13  C   UNL     1      31.772 -23.661 -15.023  0.00  0.00    +0.197 C 
ATOM     14  H   UNL     1      31.795 -22.356 -18.635  0.00  0.00    +0.144 HD
ATOM     15  H   UNL     1      33.472 -22.049 -18.678  0.00  0.00    +0.144 HD
ATOM     16  H   UNL     1      30.625 -24.425 -13.457  0.00  0.00    +0.156 HD
ATOM     17  H   UNL     1      29.732 -24.073 -14.867  0.00  0.00    +0.156 HD
ENDBRANCH   1   6
BRANCH   1  18
ATOM     18  C   UNL     1      36.458 -21.269 -18.515  0.00  0.00    +0.205 C 
BRANCH  18  20
ATOM     19  N   UNL     1      35.416 -18.271 -21.444  0.00  0.00    +0.390 N 
ATOM     20  C   UNL     1      36.224 -20.608 -19.871  0.00  0.00    +0.040 C 
ATOM     21  C   UNL     1      37.131 -19.388 -20.054  0.00  0.00    -0.019 C 
ATOM     22  C   UNL     1      34.758 -20.193 -20.035  0.00  0.00    -0.019 C 
ATOM     23  C   UNL     1      36.830 -18.663 -21.368  0.00  0.00    -0.077 C 
ATOM     24  C   UNL     1      34.535 -19.442 -21.348  0.00  0.00    -0.077 C 
ATOM     25  H   UNL     1      35.215 -17.660 -20.653  0.00  0.00    -0.079 HD
BRANCH  19  26
ATOM     26  C   UNL     1      35.156 -17.535 -22.681  0.00  0.00    -0.049 C 
BRANCH  26  29
ATOM     27 CL   UNL     1      34.332 -15.819 -25.060  0.00  0.00    -0.082 Cl
ATOM     28 CL   UNL     1      33.646 -12.760 -24.356  0.00  0.00    -0.081 Cl
ATOM     29  C   UNL     1      34.822 -16.091 -22.416  0.00  0.00    -0.032 C 
ATOM     30  C   UNL     1      34.434 -15.222 -23.435  0.00  0.00    +0.062 C 
ATOM     31  C   UNL     1      34.910 -15.629 -21.102  0.00  0.00    -0.005 C 
ATOM     32  C   UNL     1      34.134 -13.891 -23.141  0.00  0.00    +0.068 C 
ATOM     33  C   UNL     1      34.610 -14.300 -20.808  0.00  0.00    +0.001 C 
ATOM     34  C   UNL     1      34.222 -13.431 -21.828  0.00  0.00    +0.012 C 
ENDBRANCH  26  29
ENDBRANCH  19  26
ENDBRANCH  18  20
ENDBRANCH   1  18
TORSDOF 5
ENDMDL
MODEL 5
REMARK VINA RESULT:     -11.7      4.294     10.317
REMARK  Name = 24978486
REMARK  5 active torsions:
REMARK  status: ('A' for Active; 'I' for Inactive)
REMARK    1  A    between atoms: O_1  and  C_6
REMARK    2  A    between atoms: O_1  and  C_18
REMARK    3  A    between atoms: C_18  and  C_20
REMARK    4  A    between atoms: N_19  and  C_26
REMARK    5  A    between atoms: C_26  and  C_29
REMARK                            x       y       z     vdW  Elec       q    Type
REMARK                         _______ _______ _______ _____ _____    ______ ____
ROOT
ATOM      1  O   UNL     1      35.194 -18.126 -22.030  0.00  0.00    -0.479 OA
ENDROOT
BRANCH   1   6
ATOM      2  N   UNL     1      33.956 -13.817 -23.867  0.00  0.00    -0.332 NA
ATOM      3  N   UNL     1      34.043 -15.712 -25.353  0.00  0.00    -0.317 NA
ATOM      4  N   UNL     1      34.625 -17.834 -24.583  0.00  0.00    -0.335 N 
ATOM      5  N   UNL     1      33.454 -13.587 -26.147  0.00  0.00    -0.283 N 
ATOM      6  C   UNL     1      34.942 -16.781 -21.922  0.00  0.00    +0.130 C 
ATOM      7  C   UNL     1      34.563 -15.972 -23.007  0.00  0.00    +0.177 C 
ATOM      8  C   UNL     1      35.082 -16.224 -20.655  0.00  0.00    +0.033 C 
ATOM      9  C   UNL     1      34.320 -14.600 -22.835  0.00  0.00    +0.137 C 
ATOM     10  C   UNL     1      34.405 -16.466 -24.299  0.00  0.00    +0.181 C 
ATOM     11  C   UNL     1      34.844 -14.866 -20.472  0.00  0.00    +0.005 C 
ATOM     12  C   UNL     1      34.467 -14.068 -21.557  0.00  0.00    +0.030 C 
ATOM     13  C   UNL     1      33.837 -14.415 -25.069  0.00  0.00    +0.197 C 
ATOM     14  H   UNL     1      34.510 -18.171 -25.500  0.00  0.00    +0.144 HD
ATOM     15  H   UNL     1      34.893 -18.449 -23.862  0.00  0.00    +0.144 HD
ATOM     16  H   UNL     1      33.290 -12.628 -25.996  0.00  0.00    +0.156 HD
ATOM     17  H   UNL     1      33.350 -13.969 -27.049  0.00  0.00    +0.156 HD
ENDBRANCH   1   6
BRANCH   1  18
ATOM     18  C   UNL     1      35.963 -18.721 -21.000  0.00  0.00    +0.205 C 
BRANCH  18  20
ATOM     19  N   UNL     1      34.052 -21.712 -18.539  0.00  0.00    +0.390 N 
ATOM     20  C   UNL     1      35.298 -20.033 -20.594  0.00  0.00    +0.040 C 
ATOM     21  C   UNL     1      33.870 -19.796 -20.094  0.00  0.00    -0.019 C 
ATOM     22  C   UNL     1      36.113 -20.751 -19.512  0.00  0.00    -0.019 C 
ATOM     23  C   UNL     1      33.234 -21.094 -19.591  0.00  0.00    -0.077 C 
ATOM     24  C   UNL     1      35.403 -22.017 -19.029  0.00  0.00    -0.077 C 
ATOM     25  H   UNL     1      34.138 -21.044 -17.773  0.00  0.00    -0.079 HD
BRANCH  19  26
ATOM     26  C   UNL     1      33.406 -22.923 -18.033  0.00  0.00    -0.049 C 
BRANCH  26  29
ATOM     27 CL   UNL     1      30.895 -22.878 -16.309  0.00  0.00    -0.082 Cl
ATOM     28 CL   UNL     1      31.408 -23.209 -13.154  0.00  0.00    -0.081 Cl
ATOM     29  C   UNL     1      33.581 -23.073 -16.545  0.00  0.00    -0.032 C 
ATOM     30  C   UNL     1      32.496 -23.065 -15.669  0.00  0.00    +0.062 C 
ATOM     31  C   UNL     1      34.876 -23.223 -16.050  0.00  0.00    -0.005 C 
ATOM     32  C   UNL     1      32.707 -23.208 -14.297  0.00  0.00    +0.068 C 
ATOM     33  C   UNL     1      35.087 -23.366 -14.679  0.00  0.00    +0.001 C 
ATOM     34  C   UNL     1      34.002 -23.359 -13.802  0.00  0.00    +0.012 C 
ENDBRANCH  26  29
ENDBRANCH  19  26
ENDBRANCH  18  20
ENDBRANCH   1  18
TORSDOF 5
ENDMDL
MODEL 6
REMARK VINA RESULT:     -11.6      2.547      3.732
REMARK  Name = 24978486
REMARK  5 active torsions:
REMARK  status: ('A' for Active; 'I' for Inactive)
REMARK    1  A    between atoms: O_1  and  C_6
REMARK    2  A    between atoms: O_1  and  C_18
REMARK    3  A    between atoms: C_18  and  C_20
REMARK    4  A    between atoms: N_19  and  C_26
REMARK    5  A    between atoms: C_26  and  C_29
REMARK                            x       y       z     vdW  Elec       q    Type
REMARK                         _______ _______ _______ _____ _____    ______ ____
ROOT
ATOM      1  O   UNL     1      32.928 -22.667 -17.318  0.00  0.00    -0.479 OA
ENDROOT
BRANCH   1   6
ATOM      2  N   UNL     1      32.192 -24.397 -12.853  0.00  0.00    -0.332 NA
ATOM      3  N   UNL     1      30.271 -23.795 -14.177  0.00  0.00    -0.317 NA
ATOM      4  N   UNL     1      30.501 -22.953 -16.339  0.00  0.00    -0.335 N 
ATOM      5  N   UNL     1      30.017 -24.641 -12.007  0.00  0.00    -0.283 N 
ATOM      6  C   UNL     1      33.364 -23.162 -16.115  0.00  0.00    +0.130 C 
ATOM      7  C   UNL     1      32.502 -23.537 -15.070  0.00  0.00    +0.177 C 
ATOM      8  C   UNL     1      34.741 -23.282 -15.957  0.00  0.00    +0.033 C 
ATOM      9  C   UNL     1      33.008 -24.035 -13.858  0.00  0.00    +0.137 C 
ATOM     10  C   UNL     1      31.116 -23.442 -15.164  0.00  0.00    +0.181 C 
ATOM     11  C   UNL     1      35.255 -23.773 -14.762  0.00  0.00    +0.005 C 
ATOM     12  C   UNL     1      34.390 -24.145 -13.727  0.00  0.00    +0.030 C 
ATOM     13  C   UNL     1      30.868 -24.258 -13.067  0.00  0.00    +0.197 C 
ATOM     14  H   UNL     1      29.520 -22.891 -16.393  0.00  0.00    +0.144 HD
ATOM     15  H   UNL     1      31.055 -22.675 -17.105  0.00  0.00    +0.144 HD
ATOM     16  H   UNL     1      30.400 -24.987 -11.169  0.00  0.00    +0.156 HD
ATOM     17  H   UNL     1      29.040 -24.562 -12.106  0.00  0.00    +0.156 HD
ENDBRANCH   1   6
BRANCH   1  18
ATOM     18  C   UNL     1      33.794 -22.820 -18.428  0.00  0.00    +0.205 C 
BRANCH  18  20
ATOM     19  N   UNL     1      35.270 -19.617 -20.921  0.00  0.00    +0.390 N 
ATOM     20  C   UNL     1      34.302 -21.441 -18.841  0.00  0.00    +0.040 C 
ATOM     21  C   UNL     1      33.366 -20.793 -19.866  0.00  0.00    -0.019 C 
ATOM     22  C   UNL     1      35.720 -21.527 -19.416  0.00  0.00    -0.019 C 
ATOM     23  C   UNL     1      33.923 -19.455 -20.359  0.00  0.00    -0.077 C 
ATOM     24  C   UNL     1      36.198 -20.166 -19.924  0.00  0.00    -0.077 C 
ATOM     25  H   UNL     1      35.211 -20.279 -21.695  0.00  0.00    -0.079 HD
BRANCH  19  26
ATOM     26  C   UNL     1      35.767 -18.340 -21.435  0.00  0.00    -0.049 C 
BRANCH  26  29
ATOM     27 CL   UNL     1      35.264 -15.352 -21.751  0.00  0.00    -0.082 Cl
ATOM     28 CL   UNL     1      33.623 -14.522 -24.385  0.00  0.00    -0.081 Cl
ATOM     29  C   UNL     1      35.001 -17.888 -22.650  0.00  0.00    -0.032 C 
ATOM     30  C   UNL     1      34.719 -16.543 -22.887  0.00  0.00    +0.062 C 
ATOM     31  C   UNL     1      34.571 -18.861 -23.552  0.00  0.00    -0.005 C 
ATOM     32  C   UNL     1      34.007 -16.171 -24.028  0.00  0.00    +0.068 C 
ATOM     33  C   UNL     1      33.860 -18.489 -24.693  0.00  0.00    +0.001 C 
ATOM     34  C   UNL     1      33.578 -17.144 -24.930  0.00  0.00    +0.012 C 
ENDBRANCH  26  29
ENDBRANCH  19  26
ENDBRANCH  18  20
ENDBRANCH   1  18
TORSDOF 5
ENDMDL
MODEL 7
REMARK VINA RESULT:     -11.6      5.769     11.436
REMARK  Name = 24978486
REMARK  5 active torsions:
REMARK  status: ('A' for Active; 'I' for Inactive)
REMARK    1  A    between atoms: O_1  and  C_6
REMARK    2  A    between atoms: O_1  and  C_18
REMARK    3  A    between atoms: C_18  and  C_20
REMARK    4  A    between atoms: N_19  and  C_26
REMARK    5  A    between atoms: C_26  and  C_29
REMARK                            x       y       z     vdW  Elec       q    Type
REMARK                         _______ _______ _______ _____ _____    ______ ____
ROOT
ATOM      1  O   UNL     1      33.136 -13.589 -23.327  0.00  0.00    -0.479 OA
ENDROOT
BRANCH   1   6
ATOM      2  N   UNL     1      32.742  -9.031 -21.729  0.00  0.00    -0.332 NA
ATOM      3  N   UNL     1      31.622 -10.776 -20.500  0.00  0.00    -0.317 NA
ATOM      4  N   UNL     1      31.740 -13.005 -21.172  0.00  0.00    -0.335 N 
ATOM      5  N   UNL     1      31.490  -8.541 -19.806  0.00  0.00    -0.283 N 
ATOM      6  C   UNL     1      33.398 -12.244 -23.400  0.00  0.00    +0.130 C 
ATOM      7  C   UNL     1      32.906 -11.304 -22.478  0.00  0.00    +0.177 C 
ATOM      8  C   UNL     1      34.196 -11.825 -24.460  0.00  0.00    +0.033 C 
ATOM      9  C   UNL     1      33.207  -9.938 -22.606  0.00  0.00    +0.137 C 
ATOM     10  C   UNL     1      32.104 -11.657 -21.396  0.00  0.00    +0.181 C 
ATOM     11  C   UNL     1      34.500 -10.476 -24.599  0.00  0.00    +0.005 C 
ATOM     12  C   UNL     1      34.007  -9.547 -23.676  0.00  0.00    +0.030 C 
ATOM     13  C   UNL     1      31.974  -9.499 -20.724  0.00  0.00    +0.197 C 
ATOM     14  H   UNL     1      31.173 -13.241 -20.404  0.00  0.00    +0.144 HD
ATOM     15  H   UNL     1      32.055 -13.707 -21.786  0.00  0.00    +0.144 HD
ATOM     16  H   UNL     1      31.718  -7.591 -19.922  0.00  0.00    +0.156 HD
ATOM     17  H   UNL     1      30.926  -8.824 -19.050  0.00  0.00    +0.156 HD
ENDBRANCH   1   6
BRANCH   1  18
ATOM     18  C   UNL     1      33.600 -14.394 -24.395  0.00  0.00    +0.205 C 
BRANCH  18  20
ATOM     19  N   UNL     1      34.882 -17.862 -22.162  0.00  0.00    +0.390 N 
ATOM     20  C   UNL     1      34.513 -15.477 -23.826  0.00  0.00    +0.040 C 
ATOM     21  C   UNL     1      34.060 -16.870 -24.275  0.00  0.00    -0.019 C 
ATOM     22  C   UNL     1      34.555 -15.414 -22.296  0.00  0.00    -0.019 C 
ATOM     23  C   UNL     1      34.909 -17.966 -23.627  0.00  0.00    -0.077 C 
ATOM     24  C   UNL     1      35.388 -16.558 -21.715  0.00  0.00    -0.077 C 
ATOM     25  H   UNL     1      33.911 -17.945 -21.859  0.00  0.00    -0.079 HD
BRANCH  19  26
ATOM     26  C   UNL     1      35.655 -18.946 -21.558  0.00  0.00    -0.049 C 
BRANCH  26  29
ATOM     27 CL   UNL     1      37.107 -20.670 -19.508  0.00  0.00    -0.082 Cl
ATOM     28 CL   UNL     1      35.197 -22.421 -17.609  0.00  0.00    -0.081 Cl
ATOM     29  C   UNL     1      34.814 -19.791 -20.638  0.00  0.00    -0.032 C 
ATOM     30  C   UNL     1      35.381 -20.615 -19.666  0.00  0.00    +0.062 C 
ATOM     31  C   UNL     1      33.428 -19.733 -20.781  0.00  0.00    -0.005 C 
ATOM     32  C   UNL     1      34.561 -21.380 -18.836  0.00  0.00    +0.068 C 
ATOM     33  C   UNL     1      32.608 -20.498 -19.951  0.00  0.00    +0.001 C 
ATOM     34  C   UNL     1      33.176 -21.321 -18.979  0.00  0.00    +0.012 C 
ENDBRANCH  26  29
ENDBRANCH  19  26
ENDBRANCH  18  20
ENDBRANCH   1  18
TORSDOF 5
ENDMDL
MODEL 8
REMARK VINA RESULT:     -11.5      5.855     11.787
REMARK  Name = 24978486
REMARK  5 active torsions:
REMARK  status: ('A' for Active; 'I' for Inactive)
REMARK    1  A    between atoms: O_1  and  C_6
REMARK    2  A    between atoms: O_1  and  C_18
REMARK    3  A    between atoms: C_18  and  C_20
REMARK    4  A    between atoms: N_19  and  C_26
REMARK    5  A    between atoms: C_26  and  C_29
REMARK                            x       y       z     vdW  Elec       q    Type
REMARK                         _______ _______ _______ _____ _____    ______ ____
ROOT
ATOM      1  O   UNL     1      34.171 -12.660 -22.984  0.00  0.00    -0.479 OA
ENDROOT
BRANCH   1   6
ATOM      2  N   UNL     1      31.904  -8.476 -22.071  0.00  0.00    -0.332 NA
ATOM      3  N   UNL     1      33.818  -8.444 -23.536  0.00  0.00    -0.317 NA
ATOM      4  N   UNL     1      34.988 -10.395 -24.048  0.00  0.00    -0.335 N 
ATOM      5  N   UNL     1      32.656  -6.473 -23.034  0.00  0.00    -0.283 N 
ATOM      6  C   UNL     1      33.191 -11.909 -22.385  0.00  0.00    +0.130 C 
ATOM      7  C   UNL     1      33.061 -10.520 -22.555  0.00  0.00    +0.177 C 
ATOM      8  C   UNL     1      32.296 -12.596 -21.570  0.00  0.00    +0.033 C 
ATOM      9  C   UNL     1      32.037  -9.805 -21.914  0.00  0.00    +0.137 C 
ATOM     10  C   UNL     1      33.922  -9.774 -23.357  0.00  0.00    +0.181 C 
ATOM     11  C   UNL     1      31.278 -11.899 -20.929  0.00  0.00    +0.005 C 
ATOM     12  C   UNL     1      31.156 -10.517 -21.105  0.00  0.00    +0.030 C 
ATOM     13  C   UNL     1      32.802  -7.868 -22.873  0.00  0.00    +0.197 C 
ATOM     14  H   UNL     1      35.590  -9.856 -24.611  0.00  0.00    +0.144 HD
ATOM     15  H   UNL     1      35.128 -11.366 -23.966  0.00  0.00    +0.144 HD
ATOM     16  H   UNL     1      31.928  -5.998 -22.572  0.00  0.00    +0.156 HD
ATOM     17  H   UNL     1      33.281  -5.974 -23.609  0.00  0.00    +0.156 HD
ENDBRANCH   1   6
BRANCH   1  18
ATOM     18  C   UNL     1      33.757 -13.820 -23.681  0.00  0.00    +0.205 C 
BRANCH  18  20
ATOM     19  N   UNL     1      34.932 -17.642 -22.048  0.00  0.00    +0.390 N 
ATOM     20  C   UNL     1      34.645 -14.986 -23.255  0.00  0.00    +0.040 C 
ATOM     21  C   UNL     1      34.260 -16.271 -23.995  0.00  0.00    -0.019 C 
ATOM     22  C   UNL     1      34.563 -15.216 -21.742  0.00  0.00    -0.019 C 
ATOM     23  C   UNL     1      35.079 -17.465 -23.499  0.00  0.00    -0.077 C 
ATOM     24  C   UNL     1      35.372 -16.444 -21.321  0.00  0.00    -0.077 C 
ATOM     25  H   UNL     1      33.943 -17.788 -21.847  0.00  0.00    -0.079 HD
BRANCH  19  26
ATOM     26  C   UNL     1      35.678 -18.817 -21.599  0.00  0.00    -0.049 C 
BRANCH  26  29
ATOM     27 CL   UNL     1      37.160 -20.513 -19.547  0.00  0.00    -0.082 Cl
ATOM     28 CL   UNL     1      35.283 -22.336 -17.682  0.00  0.00    -0.081 Cl
ATOM     29  C   UNL     1      34.854 -19.694 -20.694  0.00  0.00    -0.032 C 
ATOM     30  C   UNL     1      35.435 -20.508 -19.722  0.00  0.00    +0.062 C 
ATOM     31  C   UNL     1      33.468 -19.676 -20.851  0.00  0.00    -0.005 C 
ATOM     32  C   UNL     1      34.630 -21.304 -18.907  0.00  0.00    +0.068 C 
ATOM     33  C   UNL     1      32.663 -20.470 -20.035  0.00  0.00    +0.001 C 
ATOM     34  C   UNL     1      33.244 -21.285 -19.063  0.00  0.00    +0.012 C 
ENDBRANCH  26  29
ENDBRANCH  19  26
ENDBRANCH  18  20
ENDBRANCH   1  18
TORSDOF 5
ENDMDL
MODEL 9
REMARK VINA RESULT:     -11.5      4.262     10.152
REMARK  Name = 24978486
REMARK  5 active torsions:
REMARK  status: ('A' for Active; 'I' for Inactive)
REMARK    1  A    between atoms: O_1  and  C_6
REMARK    2  A    between atoms: O_1  and  C_18
REMARK    3  A    between atoms: C_18  and  C_20
REMARK    4  A    between atoms: N_19  and  C_26
REMARK    5  A    between atoms: C_26  and  C_29
REMARK                            x       y       z     vdW  Elec       q    Type
REMARK                         _______ _______ _______ _____ _____    ______ ____
ROOT
ATOM      1  O   UNL     1      35.024 -17.723 -21.035  0.00  0.00    -0.479 OA
ENDROOT
BRANCH   1   6
ATOM      2  N   UNL     1      34.188 -14.021 -24.047  0.00  0.00    -0.332 NA
ATOM      3  N   UNL     1      34.572 -13.537 -21.718  0.00  0.00    -0.317 NA
ATOM      4  N   UNL     1      34.985 -15.236 -20.175  0.00  0.00    -0.335 N 
ATOM      5  N   UNL     1      34.159 -11.814 -23.252  0.00  0.00    -0.283 N 
ATOM      6  C   UNL     1      34.760 -17.195 -22.274  0.00  0.00    +0.130 C 
ATOM      7  C   UNL     1      34.607 -15.818 -22.515  0.00  0.00    +0.177 C 
ATOM      8  C   UNL     1      34.642 -18.101 -23.323  0.00  0.00    +0.033 C 
ATOM      9  C   UNL     1      34.336 -15.336 -23.806  0.00  0.00    +0.137 C 
ATOM     10  C   UNL     1      34.714 -14.859 -21.512  0.00  0.00    +0.181 C 
ATOM     11  C   UNL     1      34.373 -17.636 -24.605  0.00  0.00    +0.005 C 
ATOM     12  C   UNL     1      34.223 -16.265 -24.836  0.00  0.00    +0.030 C 
ATOM     13  C   UNL     1      34.314 -13.193 -22.991  0.00  0.00    +0.197 C 
ATOM     14  H   UNL     1      35.058 -14.548 -19.475  0.00  0.00    +0.144 HD
ATOM     15  H   UNL     1      35.102 -16.186 -19.947  0.00  0.00    +0.144 HD
ATOM     16  H   UNL     1      33.969 -11.505 -24.167  0.00  0.00    +0.156 HD
ATOM     17  H   UNL     1      34.241 -11.161 -22.519  0.00  0.00    +0.156 HD
ENDBRANCH   1   6
BRANCH   1  18
ATOM     18  C   UNL     1      35.999 -18.748 -20.968  0.00  0.00    +0.205 C 
BRANCH  18  20
ATOM     19  N   UNL     1      34.039 -21.709 -18.510  0.00  0.00    +0.390 N 
ATOM     20  C   UNL     1      35.311 -20.049 -20.563  0.00  0.00    +0.040 C 
ATOM     21  C   UNL     1      33.889 -19.785 -20.059  0.00  0.00    -0.019 C 
ATOM     22  C   UNL     1      36.115 -20.785 -19.486  0.00  0.00    -0.019 C 
ATOM     23  C   UNL     1      33.229 -21.073 -19.558  0.00  0.00    -0.077 C 
ATOM     24  C   UNL     1      35.382 -22.038 -19.005  0.00  0.00    -0.077 C 
ATOM     25  H   UNL     1      34.139 -21.044 -17.742  0.00  0.00    -0.079 HD
BRANCH  19  26
ATOM     26  C   UNL     1      33.370 -22.908 -18.006  0.00  0.00    -0.049 C 
BRANCH  26  29
ATOM     27 CL   UNL     1      30.849 -22.873 -16.295  0.00  0.00    -0.082 Cl
ATOM     28 CL   UNL     1      31.345 -23.207 -13.139  0.00  0.00    -0.081 Cl
ATOM     29  C   UNL     1      33.537 -23.060 -16.517  0.00  0.00    -0.032 C 
ATOM     30  C   UNL     1      32.447 -23.057 -15.647  0.00  0.00    +0.062 C 
ATOM     31  C   UNL     1      34.830 -23.206 -16.015  0.00  0.00    -0.005 C 
ATOM     32  C   UNL     1      32.651 -23.201 -14.274  0.00  0.00    +0.068 C 
ATOM     33  C   UNL     1      35.033 -23.351 -14.642  0.00  0.00    +0.001 C 
ATOM     34  C   UNL     1      33.943 -23.348 -13.772  0.00  0.00    +0.012 C 
ENDBRANCH  26  29
ENDBRANCH  19  26
ENDBRANCH  18  20
ENDBRANCH   1  18
TORSDOF 5
ENDMDL
