MODEL 1
REMARK VINA RESULT:     -13.4      0.000      0.000
REMARK  Name = 24794406
REMARK  5 active torsions:
REMARK  status: ('A' for Active; 'I' for Inactive)
REMARK    1  A    between atoms: C_1  and  S_24
REMARK    2  A    between atoms: C_2  and  N_8
REMARK    3  A    between atoms: C_9  and  C_11
REMARK    4  A    between atoms: C_12  and  N_18
REMARK    5  A    between atoms: S_24  and  N_28
REMARK                            x       y       z     vdW  Elec       q    Type
REMARK                         _______ _______ _______ _____ _____    ______ ____
ROOT
ATOM      1  C   UNL     1      32.580 -23.969 -14.113  0.00  0.00    +0.139 C 
ATOM      2  C   UNL     1      31.789 -23.559 -15.187  0.00  0.00    +0.070 C 
ATOM      3  C   UNL     1      32.009 -24.685 -13.061  0.00  0.00    +0.021 C 
ATOM      4  C   UNL     1      30.428 -23.865 -15.207  0.00  0.00    +0.016 C 
ATOM      5  C   UNL     1      30.649 -24.991 -13.082  0.00  0.00    +0.001 C 
ATOM      6  C   UNL     1      29.858 -24.581 -14.156  0.00  0.00    +0.001 C 
ENDROOT
BRANCH   2   8
ATOM      7  O   UNL     1      33.491 -24.482 -17.476  0.00  0.00    -0.270 OA
ATOM      8  N   UNL     1      32.343 -22.830 -16.268  0.00  0.00    -0.279 N 
ATOM      9  C   UNL     1      33.138 -23.302 -17.323  0.00  0.00    +0.250 C 
ATOM     10  H   UNL     1      32.144 -21.866 -16.280  0.00  0.00    +0.155 HD
BRANCH   9  11
ATOM     11  C   UNL     1      33.584 -22.300 -18.277  0.00  0.00    +0.054 C 
ATOM     12  C   UNL     1      34.438 -20.378 -20.110  0.00  0.00    +0.058 C 
ATOM     13  C   UNL     1      32.663 -21.419 -18.845  0.00  0.00    +0.006 C 
ATOM     14  C   UNL     1      34.931 -22.219 -18.627  0.00  0.00    +0.006 C 
ATOM     15  C   UNL     1      33.090 -20.458 -19.761  0.00  0.00    +0.015 C 
ATOM     16  C   UNL     1      35.359 -21.259 -19.543  0.00  0.00    +0.015 C 
BRANCH  12  18
ATOM     17  O   UNL     1      36.720 -18.635 -19.763  0.00  0.00    -0.269 OA
ATOM     18  N   UNL     1      34.882 -19.379 -21.062  0.00  0.00    -0.233 N 
ATOM     19  C   UNL     1      36.044 -18.611 -20.792  0.00  0.00    +0.257 C 
ATOM     20  C   UNL     1      34.160 -19.148 -22.236  0.00  0.00    +0.072 C 
ATOM     21  C   UNL     1      36.459 -17.635 -21.847  0.00  0.00    +0.059 C 
ATOM     22  C   UNL     1      34.533 -18.245 -23.150  0.00  0.00    +0.017 C 
ATOM     23  C   UNL     1      35.722 -17.473 -22.949  0.00  0.00    +0.006 C 
ENDBRANCH  12  18
ENDBRANCH   9  11
ENDBRANCH   2   8
BRANCH   1  24
ATOM     24  S   UNL     1      34.292 -23.605 -14.049  0.00  0.00    +0.076 S 
ATOM     25  O   UNL     1      34.699 -23.656 -12.652  0.00  0.00    -0.150 OA
ATOM     26  O   UNL     1      34.534 -22.389 -14.812  0.00  0.00    -0.150 OA
BRANCH  24  28
ATOM     27 CL   UNL     1      40.657 -26.071 -13.748  0.00  0.00    -0.081 Cl
ATOM     28  N   UNL     1      34.993 -24.950 -14.863  0.00  0.00    -0.199 N 
ATOM     29  N   UNL     1      37.198 -24.211 -14.415  0.00  0.00    -0.227 NA
ATOM     30  C   UNL     1      36.371 -25.266 -14.593  0.00  0.00    +0.147 C 
ATOM     31  C   UNL     1      36.775 -26.589 -14.529  0.00  0.00    +0.036 C 
ATOM     32  C   UNL     1      38.116 -26.848 -14.264  0.00  0.00    +0.016 C 
ATOM     33  C   UNL     1      38.494 -24.502 -14.159  0.00  0.00    +0.112 C 
ATOM     34  C   UNL     1      38.998 -25.789 -14.074  0.00  0.00    +0.077 C 
ATOM     35  H   UNL     1      34.467 -25.489 -15.497  0.00  0.00    +0.175 HD
ENDBRANCH  24  28
ENDBRANCH   1  24
TORSDOF 5
ENDMDL
MODEL 2
REMARK VINA RESULT:     -11.0      3.375      5.704
REMARK  Name = 24794406
REMARK  5 active torsions:
REMARK  status: ('A' for Active; 'I' for Inactive)
REMARK    1  A    between atoms: C_1  and  S_24
REMARK    2  A    between atoms: C_2  and  N_8
REMARK    3  A    between atoms: C_9  and  C_11
REMARK    4  A    between atoms: C_12  and  N_18
REMARK    5  A    between atoms: S_24  and  N_28
REMARK                            x       y       z     vdW  Elec       q    Type
REMARK                         _______ _______ _______ _____ _____    ______ ____
ROOT
ATOM      1  C   UNL     1      35.165 -23.183 -16.077  0.00  0.00    +0.139 C 
ATOM      2  C   UNL     1      36.159 -22.302 -16.502  0.00  0.00    +0.070 C 
ATOM      3  C   UNL     1      35.423 -24.075 -15.036  0.00  0.00    +0.021 C 
ATOM      4  C   UNL     1      37.411 -22.314 -15.888  0.00  0.00    +0.016 C 
ATOM      5  C   UNL     1      36.675 -24.087 -14.421  0.00  0.00    +0.001 C 
ATOM      6  C   UNL     1      37.669 -23.205 -14.847  0.00  0.00    +0.001 C 
ENDROOT
BRANCH   2   8
ATOM      7  O   UNL     1      36.049 -22.746 -19.465  0.00  0.00    -0.270 OA
ATOM      8  N   UNL     1      35.924 -21.386 -17.557  0.00  0.00    -0.279 N 
ATOM      9  C   UNL     1      35.881 -21.635 -18.937  0.00  0.00    +0.250 C 
ATOM     10  H   UNL     1      35.772 -20.452 -17.287  0.00  0.00    +0.155 HD
BRANCH   9  11
ATOM     11  C   UNL     1      35.645 -20.478 -19.783  0.00  0.00    +0.054 C 
ATOM     12  C   UNL     1      35.193 -18.254 -21.407  0.00  0.00    +0.058 C 
ATOM     13  C   UNL     1      36.704 -19.635 -20.123  0.00  0.00    +0.006 C 
ATOM     14  C   UNL     1      34.361 -20.207 -20.255  0.00  0.00    +0.006 C 
ATOM     15  C   UNL     1      36.477 -18.523 -20.935  0.00  0.00    +0.015 C 
ATOM     16  C   UNL     1      34.134 -19.096 -21.066  0.00  0.00    +0.015 C 
BRANCH  12  18
ATOM     17  O   UNL     1      35.011 -15.519 -20.484  0.00  0.00    -0.269 OA
ATOM     18  N   UNL     1      34.958 -17.099 -22.251  0.00  0.00    -0.233 N 
ATOM     19  C   UNL     1      34.929 -15.800 -21.681  0.00  0.00    +0.257 C 
ATOM     20  C   UNL     1      34.735 -17.256 -23.621  0.00  0.00    +0.072 C 
ATOM     21  C   UNL     1      34.727 -14.660 -22.628  0.00  0.00    +0.059 C 
ATOM     22  C   UNL     1      34.523 -16.222 -24.443  0.00  0.00    +0.017 C 
ATOM     23  C   UNL     1      34.527 -14.886 -23.928  0.00  0.00    +0.006 C 
ENDBRANCH  12  18
ENDBRANCH   9  11
ENDBRANCH   2   8
BRANCH   1  24
ATOM     24  S   UNL     1      33.579 -23.199 -16.822  0.00  0.00    +0.076 S 
ATOM     25  O   UNL     1      33.591 -24.226 -17.855  0.00  0.00    -0.150 OA
ATOM     26  O   UNL     1      33.227 -21.834 -17.186  0.00  0.00    -0.150 OA
BRANCH  24  28
ATOM     27 CL   UNL     1      26.794 -22.785 -16.138  0.00  0.00    -0.081 Cl
ATOM     28  N   UNL     1      32.566 -23.737 -15.539  0.00  0.00    -0.199 N 
ATOM     29  N   UNL     1      30.756 -22.390 -16.258  0.00  0.00    -0.227 NA
ATOM     30  C   UNL     1      31.146 -23.541 -15.666  0.00  0.00    +0.147 C 
ATOM     31  C   UNL     1      30.272 -24.506 -15.195  0.00  0.00    +0.036 C 
ATOM     32  C   UNL     1      28.908 -24.276 -15.340  0.00  0.00    +0.016 C 
ATOM     33  C   UNL     1      29.423 -22.201 -16.382  0.00  0.00    +0.112 C 
ATOM     34  C   UNL     1      28.467 -23.104 -15.945  0.00  0.00    +0.077 C 
ATOM     35  H   UNL     1      32.947 -24.167 -14.740  0.00  0.00    +0.175 HD
ENDBRANCH  24  28
ENDBRANCH   1  24
TORSDOF 5
ENDMDL
MODEL 3
REMARK VINA RESULT:     -10.9      3.472      5.719
REMARK  Name = 24794406
REMARK  5 active torsions:
REMARK  status: ('A' for Active; 'I' for Inactive)
REMARK    1  A    between atoms: C_1  and  S_24
REMARK    2  A    between atoms: C_2  and  N_8
REMARK    3  A    between atoms: C_9  and  C_11
REMARK    4  A    between atoms: C_12  and  N_18
REMARK    5  A    between atoms: S_24  and  N_28
REMARK                            x       y       z     vdW  Elec       q    Type
REMARK                         _______ _______ _______ _____ _____    ______ ____
ROOT
ATOM      1  C   UNL     1      34.894 -23.095 -16.072  0.00  0.00    +0.139 C 
ATOM      2  C   UNL     1      35.862 -22.165 -16.451  0.00  0.00    +0.070 C 
ATOM      3  C   UNL     1      35.099 -23.898 -14.950  0.00  0.00    +0.021 C 
ATOM      4  C   UNL     1      37.036 -22.039 -15.708  0.00  0.00    +0.016 C 
ATOM      5  C   UNL     1      36.273 -23.771 -14.207  0.00  0.00    +0.001 C 
ATOM      6  C   UNL     1      37.241 -22.841 -14.586  0.00  0.00    +0.001 C 
ENDROOT
BRANCH   2   8
ATOM      7  O   UNL     1      37.255 -22.183 -19.105  0.00  0.00    -0.270 OA
ATOM      8  N   UNL     1      35.679 -21.338 -17.586  0.00  0.00    -0.279 N 
ATOM      9  C   UNL     1      36.355 -21.379 -18.814  0.00  0.00    +0.250 C 
ATOM     10  H   UNL     1      34.987 -20.643 -17.502  0.00  0.00    +0.155 HD
BRANCH   9  11
ATOM     11  C   UNL     1      35.963 -20.373 -19.788  0.00  0.00    +0.054 C 
ATOM     12  C   UNL     1      35.208 -18.444 -21.657  0.00  0.00    +0.058 C 
ATOM     13  C   UNL     1      34.644 -20.319 -20.241  0.00  0.00    +0.006 C 
ATOM     14  C   UNL     1      36.903 -19.463 -20.270  0.00  0.00    +0.006 C 
ATOM     15  C   UNL     1      34.267 -19.354 -21.176  0.00  0.00    +0.015 C 
ATOM     16  C   UNL     1      36.526 -18.499 -21.204  0.00  0.00    +0.015 C 
BRANCH  12  18
ATOM     17  O   UNL     1      34.162 -18.993 -24.297  0.00  0.00    -0.269 OA
ATOM     18  N   UNL     1      34.816 -17.442 -22.628  0.00  0.00    -0.233 N 
ATOM     19  C   UNL     1      34.278 -17.840 -23.879  0.00  0.00    +0.257 C 
ATOM     20  C   UNL     1      34.987 -16.083 -22.352  0.00  0.00    +0.072 C 
ATOM     21  C   UNL     1      33.857 -16.743 -24.804  0.00  0.00    +0.059 C 
ATOM     22  C   UNL     1      34.632 -15.119 -23.210  0.00  0.00    +0.017 C 
ATOM     23  C   UNL     1      34.044 -15.464 -24.469  0.00  0.00    +0.006 C 
ENDBRANCH  12  18
ENDBRANCH   9  11
ENDBRANCH   2   8
BRANCH   1  24
ATOM     24  S   UNL     1      33.406 -23.284 -16.977  0.00  0.00    +0.076 S 
ATOM     25  O   UNL     1      33.701 -24.114 -18.137  0.00  0.00    -0.150 OA
ATOM     26  O   UNL     1      32.820 -21.967 -17.181  0.00  0.00    -0.150 OA
BRANCH  24  28
ATOM     27 CL   UNL     1      26.859 -22.414 -15.226  0.00  0.00    -0.081 Cl
ATOM     28  N   UNL     1      32.423 -24.197 -15.898  0.00  0.00    -0.199 N 
ATOM     29  N   UNL     1      30.809 -22.470 -15.735  0.00  0.00    -0.227 NA
ATOM     30  C   UNL     1      31.049 -23.801 -15.730  0.00  0.00    +0.147 C 
ATOM     31  C   UNL     1      30.068 -24.766 -15.577  0.00  0.00    +0.036 C 
ATOM     32  C   UNL     1      28.753 -24.338 -15.420  0.00  0.00    +0.016 C 
ATOM     33  C   UNL     1      29.521 -22.093 -15.580  0.00  0.00    +0.112 C 
ATOM     34  C   UNL     1      28.467 -22.977 -15.421  0.00  0.00    +0.077 C 
ATOM     35  H   UNL     1      32.789 -24.968 -15.409  0.00  0.00    +0.175 HD
ENDBRANCH  24  28
ENDBRANCH   1  24
TORSDOF 5
ENDMDL
MODEL 4
REMARK VINA RESULT:     -10.4      3.253      5.352
REMARK  Name = 24794406
REMARK  5 active torsions:
REMARK  status: ('A' for Active; 'I' for Inactive)
REMARK    1  A    between atoms: C_1  and  S_24
REMARK    2  A    between atoms: C_2  and  N_8
REMARK    3  A    between atoms: C_9  and  C_11
REMARK    4  A    between atoms: C_12  and  N_18
REMARK    5  A    between atoms: S_24  and  N_28
REMARK                            x       y       z     vdW  Elec       q    Type
REMARK                         _______ _______ _______ _____ _____    ______ ____
ROOT
ATOM      1  C   UNL     1      34.781 -23.956 -12.421  0.00  0.00    +0.139 C 
ATOM      2  C   UNL     1      35.791 -23.123 -12.902  0.00  0.00    +0.070 C 
ATOM      3  C   UNL     1      34.852 -24.458 -11.121  0.00  0.00    +0.021 C 
ATOM      4  C   UNL     1      36.872 -22.793 -12.084  0.00  0.00    +0.016 C 
ATOM      5  C   UNL     1      35.932 -24.127 -10.303  0.00  0.00    +0.001 C 
ATOM      6  C   UNL     1      36.942 -23.294 -10.785  0.00  0.00    +0.001 C 
ENDROOT
BRANCH   2   8
ATOM      7  O   UNL     1      37.303 -23.931 -15.362  0.00  0.00    -0.270 OA
ATOM      8  N   UNL     1      35.745 -22.601 -14.218  0.00  0.00    -0.279 N 
ATOM      9  C   UNL     1      36.472 -23.009 -15.346  0.00  0.00    +0.250 C 
ATOM     10  H   UNL     1      35.121 -21.852 -14.360  0.00  0.00    +0.155 HD
BRANCH   9  11
ATOM     11  C   UNL     1      36.227 -22.255 -16.565  0.00  0.00    +0.054 C 
ATOM     12  C   UNL     1      35.759 -20.807 -18.903  0.00  0.00    +0.058 C 
ATOM     13  C   UNL     1      37.160 -21.314 -17.001  0.00  0.00    +0.006 C 
ATOM     14  C   UNL     1      35.061 -22.471 -17.297  0.00  0.00    +0.006 C 
ATOM     15  C   UNL     1      36.926 -20.590 -18.170  0.00  0.00    +0.015 C 
ATOM     16  C   UNL     1      34.826 -21.748 -18.466  0.00  0.00    +0.015 C 
BRANCH  12  18
ATOM     17  O   UNL     1      37.642 -19.007 -20.160  0.00  0.00    -0.269 OA
ATOM     18  N   UNL     1      35.516 -20.055 -20.118  0.00  0.00    -0.233 N 
ATOM     19  C   UNL     1      36.538 -19.233 -20.658  0.00  0.00    +0.257 C 
ATOM     20  C   UNL     1      34.272 -20.115 -20.752  0.00  0.00    +0.072 C 
ATOM     21  C   UNL     1      36.220 -18.528 -21.939  0.00  0.00    +0.059 C 
ATOM     22  C   UNL     1      34.001 -19.448 -21.879  0.00  0.00    +0.017 C 
ATOM     23  C   UNL     1      35.010 -18.637 -22.491  0.00  0.00    +0.006 C 
ENDBRANCH  12  18
ENDBRANCH   9  11
ENDBRANCH   2   8
BRANCH   1  24
ATOM     24  S   UNL     1      33.408 -24.394 -13.415  0.00  0.00    +0.076 S 
ATOM     25  O   UNL     1      32.620 -25.368 -12.671  0.00  0.00    -0.150 OA
ATOM     26  O   UNL     1      33.893 -24.744 -14.742  0.00  0.00    -0.150 OA
BRANCH  24  28
ATOM     27 CL   UNL     1      27.696 -22.922 -16.864  0.00  0.00    -0.081 Cl
ATOM     28  N   UNL     1      32.514 -22.925 -13.492  0.00  0.00    -0.199 N 
ATOM     29  N   UNL     1      31.353 -23.606 -15.441  0.00  0.00    -0.227 NA
ATOM     30  C   UNL     1      31.316 -22.899 -14.289  0.00  0.00    +0.147 C 
ATOM     31  C   UNL     1      30.217 -22.176 -13.857  0.00  0.00    +0.036 C 
ATOM     32  C   UNL     1      29.079 -22.180 -14.658  0.00  0.00    +0.016 C 
ATOM     33  C   UNL     1      30.230 -23.587 -16.193  0.00  0.00    +0.112 C 
ATOM     34  C   UNL     1      29.078 -22.897 -15.850  0.00  0.00    +0.077 C 
ATOM     35  H   UNL     1      32.814 -22.124 -13.006  0.00  0.00    +0.175 HD
ENDBRANCH  24  28
ENDBRANCH   1  24
TORSDOF 5
ENDMDL
