MODEL 1
REMARK VINA RESULT:     -11.1      0.000      0.000
REMARK  Name = 24778473
REMARK  2 active torsions:
REMARK  status: ('A' for Active; 'I' for Inactive)
REMARK    1  A    between atoms: C_11  and  C_22
REMARK    2  A    between atoms: C_17  and  N_29
REMARK                            x       y       z     vdW  Elec       q    Type
REMARK                         _______ _______ _______ _____ _____    ______ ____
ROOT
ATOM      1  O   UNL     1      33.993 -16.527 -25.507  0.00  0.00    -0.270 OA
ATOM      2  O   UNL     1      35.018 -20.341 -23.148  0.00  0.00    -0.270 OA
ATOM      3  N   UNL     1      34.691 -14.354 -20.758  0.00  0.00    -0.353 N 
ATOM      4  N   UNL     1      34.466 -18.639 -24.644  0.00  0.00    -0.248 N 
ATOM      5  C   UNL     1      34.486 -15.642 -22.575  0.00  0.00    +0.022 A 
ATOM      6  C   UNL     1      34.527 -16.891 -23.207  0.00  0.00    +0.060 C 
ATOM      7  C   UNL     1      34.778 -15.651 -21.201  0.00  0.00    +0.057 A 
ATOM      8  C   UNL     1      34.218 -14.280 -22.941  0.00  0.00    +0.018 A 
ATOM      9  C   UNL     1      34.838 -18.050 -22.498  0.00  0.00    +0.058 C 
ATOM     10  C   UNL     1      34.355 -13.507 -21.785  0.00  0.00    +0.057 A 
ATOM     11  C   UNL     1      35.121 -18.047 -21.151  0.00  0.00    +0.007 C 
ATOM     12  C   UNL     1      35.093 -16.823 -20.478  0.00  0.00    +0.017 C 
ATOM     13  C   UNL     1      34.287 -17.275 -24.597  0.00  0.00    +0.252 C 
ATOM     14  C   UNL     1      34.798 -19.178 -23.426  0.00  0.00    +0.252 C 
ATOM     15  C   UNL     1      33.871 -13.616 -24.137  0.00  0.00    +0.016 C 
ATOM     16  C   UNL     1      34.164 -12.119 -21.767  0.00  0.00    +0.018 C 
ATOM     17  C   UNL     1      33.678 -12.229 -24.136  0.00  0.00    +0.051 C 
ATOM     18  C   UNL     1      33.823 -11.492 -22.965  0.00  0.00    +0.016 C 
ATOM     19  H   UNL     1      34.848 -14.070 -19.829  0.00  0.00    +0.166 HD
ATOM     20  H   UNL     1      34.367 -19.172 -25.464  0.00  0.00    +0.158 HD
ENDROOT
BRANCH  11  22
ATOM     21 CL   UNL     1      32.786 -19.895 -20.352  0.00  0.00    -0.082 Cl
ATOM     22  C   UNL     1      35.445 -19.252 -20.417  0.00  0.00    +0.011 C 
ATOM     23  C   UNL     1      34.461 -20.153 -20.011  0.00  0.00    +0.058 C 
ATOM     24  C   UNL     1      36.785 -19.501 -20.121  0.00  0.00    +0.001 C 
ATOM     25  C   UNL     1      34.816 -21.304 -19.307  0.00  0.00    +0.011 C 
ATOM     26  C   UNL     1      37.140 -20.652 -19.416  0.00  0.00    +0.000 C 
ATOM     27  C   UNL     1      36.156 -21.553 -19.009  0.00  0.00    +0.001 C 
ENDBRANCH  11  22
BRANCH  17  29
ATOM     28  O   UNL     1      34.072 -13.041 -27.032  0.00  0.00    -0.265 OA
ATOM     29  N   UNL     1      33.334 -11.579 -25.323  0.00  0.00    -0.277 N 
ATOM     30  C   UNL     1      33.547 -12.013 -26.627  0.00  0.00    +0.303 C 
ATOM     31  H   UNL     1      32.887 -10.708 -25.225  0.00  0.00    +0.155 HD
ENDBRANCH  17  29
TORSDOF 2
ENDMDL
MODEL 2
REMARK VINA RESULT:     -10.6      4.889      7.521
REMARK  Name = 24778473
REMARK  2 active torsions:
REMARK  status: ('A' for Active; 'I' for Inactive)
REMARK    1  A    between atoms: C_11  and  C_22
REMARK    2  A    between atoms: C_17  and  N_29
REMARK                            x       y       z     vdW  Elec       q    Type
REMARK                         _______ _______ _______ _____ _____    ______ ____
ROOT
ATOM      1  O   UNL     1      30.919  -9.444 -20.113  0.00  0.00    -0.270 OA
ATOM      2  O   UNL     1      32.018 -13.811 -21.057  0.00  0.00    -0.270 OA
ATOM      3  N   UNL     1      34.295  -8.572 -24.063  0.00  0.00    -0.353 N 
ATOM      4  N   UNL     1      31.238 -11.744 -20.308  0.00  0.00    -0.248 N 
ATOM      5  C   UNL     1      32.950  -9.353 -22.457  0.00  0.00    +0.022 A 
ATOM      6  C   UNL     1      32.387 -10.411 -21.731  0.00  0.00    +0.060 C 
ATOM      7  C   UNL     1      33.851  -9.727 -23.468  0.00  0.00    +0.057 A 
ATOM      8  C   UNL     1      32.872  -7.920 -22.468  0.00  0.00    +0.018 A 
ATOM      9  C   UNL     1      32.715 -11.736 -22.013  0.00  0.00    +0.058 C 
ATOM     10  C   UNL     1      33.722  -7.468 -23.482  0.00  0.00    +0.057 A 
ATOM     11  C   UNL     1      33.600 -12.091 -23.006  0.00  0.00    +0.007 C 
ATOM     12  C   UNL     1      34.186 -11.068 -23.757  0.00  0.00    +0.017 C 
ATOM     13  C   UNL     1      31.430 -10.419 -20.626  0.00  0.00    +0.252 C 
ATOM     14  C   UNL     1      31.973 -12.595 -21.094  0.00  0.00    +0.252 C 
ATOM     15  C   UNL     1      32.167  -6.950 -21.723  0.00  0.00    +0.016 C 
ATOM     16  C   UNL     1      33.899  -6.111 -23.782  0.00  0.00    +0.018 C 
ATOM     17  C   UNL     1      32.333  -5.590 -22.012  0.00  0.00    +0.051 C 
ATOM     18  C   UNL     1      33.188  -5.178 -23.028  0.00  0.00    +0.016 C 
ATOM     19  H   UNL     1      34.938  -8.540 -24.808  0.00  0.00    +0.166 HD
ATOM     20  H   UNL     1      30.636 -12.049 -19.593  0.00  0.00    +0.158 HD
ENDROOT
BRANCH  11  22
ATOM     21 CL   UNL     1      32.553 -13.280 -25.651  0.00  0.00    -0.082 Cl
ATOM     22  C   UNL     1      33.938 -13.467 -23.298  0.00  0.00    +0.011 C 
ATOM     23  C   UNL     1      33.514 -14.097 -24.468  0.00  0.00    +0.058 C 
ATOM     24  C   UNL     1      34.712 -14.165 -22.371  0.00  0.00    +0.001 C 
ATOM     25  C   UNL     1      33.863 -15.425 -24.712  0.00  0.00    +0.011 C 
ATOM     26  C   UNL     1      35.061 -15.494 -22.614  0.00  0.00    +0.000 C 
ATOM     27  C   UNL     1      34.637 -16.123 -23.784  0.00  0.00    +0.001 C 
ENDBRANCH  11  22
BRANCH  17  29
ATOM     28  O   UNL     1      30.211  -3.589 -22.845  0.00  0.00    -0.265 OA
ATOM     29  N   UNL     1      31.633  -4.637 -21.270  0.00  0.00    -0.277 N 
ATOM     30  C   UNL     1      30.665  -3.746 -21.721  0.00  0.00    +0.303 C 
ATOM     31  H   UNL     1      31.849  -4.591 -20.311  0.00  0.00    +0.155 HD
ENDBRANCH  17  29
TORSDOF 2
ENDMDL
MODEL 3
REMARK VINA RESULT:     -10.4      4.605      9.445
REMARK  Name = 24778473
REMARK  2 active torsions:
REMARK  status: ('A' for Active; 'I' for Inactive)
REMARK    1  A    between atoms: C_11  and  C_22
REMARK    2  A    between atoms: C_17  and  N_29
REMARK                            x       y       z     vdW  Elec       q    Type
REMARK                         _______ _______ _______ _____ _____    ______ ____
ROOT
ATOM      1  O   UNL     1      32.470 -13.294 -20.406  0.00  0.00    -0.270 OA
ATOM      2  O   UNL     1      31.502  -8.904 -19.429  0.00  0.00    -0.270 OA
ATOM      3  N   UNL     1      33.451 -11.197 -25.139  0.00  0.00    -0.353 N 
ATOM      4  N   UNL     1      31.902 -11.198 -19.562  0.00  0.00    -0.248 N 
ATOM      5  C   UNL     1      32.939 -11.687 -23.019  0.00  0.00    +0.022 A 
ATOM      6  C   UNL     1      32.523 -11.310 -21.735  0.00  0.00    +0.060 C 
ATOM      7  C   UNL     1      33.035 -10.643 -23.954  0.00  0.00    +0.057 A 
ATOM      8  C   UNL     1      33.316 -12.896 -23.695  0.00  0.00    +0.018 A 
ATOM      9  C   UNL     1      32.230  -9.980 -21.433  0.00  0.00    +0.058 C 
ATOM     10  C   UNL     1      33.629 -12.552 -25.013  0.00  0.00    +0.057 A 
ATOM     11  C   UNL     1      32.326  -8.966 -22.358  0.00  0.00    +0.007 C 
ATOM     12  C   UNL     1      32.738  -9.295 -23.651  0.00  0.00    +0.017 C 
ATOM     13  C   UNL     1      32.310 -12.096 -20.521  0.00  0.00    +0.252 C 
ATOM     14  C   UNL     1      31.828  -9.910 -20.030  0.00  0.00    +0.252 C 
ATOM     15  C   UNL     1      33.426 -14.254 -23.327  0.00  0.00    +0.016 C 
ATOM     16  C   UNL     1      34.040 -13.489 -25.970  0.00  0.00    +0.018 C 
ATOM     17  C   UNL     1      33.837 -15.203 -24.272  0.00  0.00    +0.051 C 
ATOM     18  C   UNL     1      34.140 -14.823 -25.575  0.00  0.00    +0.016 C 
ATOM     19  H   UNL     1      33.602 -10.689 -25.969  0.00  0.00    +0.166 HD
ATOM     20  H   UNL     1      31.685 -11.453 -18.637  0.00  0.00    +0.158 HD
ENDROOT
BRANCH  11  22
ATOM     21 CL   UNL     1      34.624  -7.218 -21.275  0.00  0.00    -0.082 Cl
ATOM     22  C   UNL     1      32.022  -7.587 -22.040  0.00  0.00    +0.011 C 
ATOM     23  C   UNL     1      32.992  -6.715 -21.546  0.00  0.00    +0.058 C 
ATOM     24  C   UNL     1      30.718  -7.137 -22.245  0.00  0.00    +0.001 C 
ATOM     25  C   UNL     1      32.658  -5.392 -21.255  0.00  0.00    +0.011 C 
ATOM     26  C   UNL     1      30.383  -5.815 -21.952  0.00  0.00    +0.000 C 
ATOM     27  C   UNL     1      31.353  -4.942 -21.458  0.00  0.00    +0.001 C 
ENDBRANCH  11  22
BRANCH  17  29
ATOM     28  O   UNL     1      35.707 -16.585 -22.324  0.00  0.00    -0.265 OA
ATOM     29  N   UNL     1      33.943 -16.545 -23.902  0.00  0.00    -0.277 N 
ATOM     30  C   UNL     1      34.831 -17.113 -22.994  0.00  0.00    +0.303 C 
ATOM     31  H   UNL     1      33.313 -17.163 -24.334  0.00  0.00    +0.155 HD
ENDBRANCH  17  29
TORSDOF 2
ENDMDL
MODEL 4
REMARK VINA RESULT:      -9.9      2.369      7.537
REMARK  Name = 24778473
REMARK  2 active torsions:
REMARK  status: ('A' for Active; 'I' for Inactive)
REMARK    1  A    between atoms: C_11  and  C_22
REMARK    2  A    between atoms: C_17  and  N_29
REMARK                            x       y       z     vdW  Elec       q    Type
REMARK                         _______ _______ _______ _____ _____    ______ ____
ROOT
ATOM      1  O   UNL     1      33.819 -15.774 -25.745  0.00  0.00    -0.270 OA
ATOM      2  O   UNL     1      32.835 -11.281 -25.638  0.00  0.00    -0.270 OA
ATOM      3  N   UNL     1      34.870 -14.858 -20.664  0.00  0.00    -0.353 N 
ATOM      4  N   UNL     1      33.240 -13.540 -26.059  0.00  0.00    -0.248 N 
ATOM      5  C   UNL     1      34.328 -14.831 -22.833  0.00  0.00    +0.022 A 
ATOM      6  C   UNL     1      33.893 -14.162 -23.984  0.00  0.00    +0.060 C 
ATOM      7  C   UNL     1      34.434 -14.040 -21.678  0.00  0.00    +0.057 A 
ATOM      8  C   UNL     1      34.720 -16.164 -22.470  0.00  0.00    +0.018 A 
ATOM      9  C   UNL     1      33.592 -12.801 -23.957  0.00  0.00    +0.058 C 
ATOM     10  C   UNL     1      35.050 -16.142 -21.112  0.00  0.00    +0.057 A 
ATOM     11  C   UNL     1      33.701 -12.034 -22.819  0.00  0.00    +0.007 C 
ATOM     12  C   UNL     1      34.131 -12.661 -21.647  0.00  0.00    +0.017 C 
ATOM     13  C   UNL     1      33.663 -14.638 -25.347  0.00  0.00    +0.252 C 
ATOM     14  C   UNL     1      33.171 -12.400 -25.298  0.00  0.00    +0.252 C 
ATOM     15  C   UNL     1      34.831 -17.395 -23.153  0.00  0.00    +0.016 C 
ATOM     16  C   UNL     1      35.480 -17.277 -20.412  0.00  0.00    +0.018 C 
ATOM     17  C   UNL     1      35.260 -18.538 -22.467  0.00  0.00    +0.051 C 
ATOM     18  C   UNL     1      35.579 -18.478 -21.115  0.00  0.00    +0.016 C 
ATOM     19  H   UNL     1      35.030 -14.562 -19.739  0.00  0.00    +0.166 HD
ATOM     20  H   UNL     1      33.010 -13.568 -27.016  0.00  0.00    +0.158 HD
ENDROOT
BRANCH  11  22
ATOM     21 CL   UNL     1      31.156 -11.172 -21.306  0.00  0.00    -0.082 Cl
ATOM     22  C   UNL     1      33.386 -10.622 -22.794  0.00  0.00    +0.011 C 
ATOM     23  C   UNL     1      32.259 -10.130 -22.136  0.00  0.00    +0.058 C 
ATOM     24  C   UNL     1      34.250  -9.744 -23.450  0.00  0.00    +0.001 C 
ATOM     25  C   UNL     1      31.994  -8.761 -22.134  0.00  0.00    +0.011 C 
ATOM     26  C   UNL     1      33.983  -8.375 -23.449  0.00  0.00    +0.000 C 
ATOM     27  C   UNL     1      32.856  -7.884 -22.791  0.00  0.00    +0.001 C 
ENDBRANCH  11  22
BRANCH  17  29
ATOM     28  O   UNL     1      33.845 -19.554 -24.951  0.00  0.00    -0.265 OA
ATOM     29  N   UNL     1      35.367 -19.751 -23.149  0.00  0.00    -0.277 N 
ATOM     30  C   UNL     1      34.683 -20.153 -24.291  0.00  0.00    +0.303 C 
ATOM     31  H   UNL     1      36.006 -20.401 -22.777  0.00  0.00    +0.155 HD
ENDBRANCH  17  29
TORSDOF 2
ENDMDL
MODEL 5
REMARK VINA RESULT:      -8.4      5.326     10.451
REMARK  Name = 24778473
REMARK  2 active torsions:
REMARK  status: ('A' for Active; 'I' for Inactive)
REMARK    1  A    between atoms: C_11  and  C_22
REMARK    2  A    between atoms: C_17  and  N_29
REMARK                            x       y       z     vdW  Elec       q    Type
REMARK                         _______ _______ _______ _____ _____    ______ ____
ROOT
ATOM      1  O   UNL     1      34.973 -10.354 -24.330  0.00  0.00    -0.270 OA
ATOM      2  O   UNL     1      33.822  -5.901 -24.209  0.00  0.00    -0.270 OA
ATOM      3  N   UNL     1      31.521 -10.539 -20.354  0.00  0.00    -0.353 N 
ATOM      4  N   UNL     1      34.636  -8.060 -24.556  0.00  0.00    -0.248 N 
ATOM      5  C   UNL     1      32.895 -10.044 -22.047  0.00  0.00    +0.022 A 
ATOM      6  C   UNL     1      33.465  -9.129 -22.940  0.00  0.00    +0.060 C 
ATOM      7  C   UNL     1      31.968  -9.505 -21.139  0.00  0.00    +0.057 A 
ATOM      8  C   UNL     1      32.987 -11.450 -21.773  0.00  0.00    +0.018 A 
ATOM      9  C   UNL     1      33.119  -7.778 -22.909  0.00  0.00    +0.058 C 
ATOM     10  C   UNL     1      32.117 -11.722 -20.713  0.00  0.00    +0.057 A 
ATOM     11  C   UNL     1      32.211  -7.261 -22.015  0.00  0.00    +0.007 C 
ATOM     12  C   UNL     1      31.616  -8.138 -21.104  0.00  0.00    +0.017 C 
ATOM     13  C   UNL     1      34.447  -9.308 -24.008  0.00  0.00    +0.252 C 
ATOM     14  C   UNL     1      33.876  -7.089 -23.952  0.00  0.00    +0.252 C 
ATOM     15  C   UNL     1      33.719 -12.529 -22.314  0.00  0.00    +0.016 C 
ATOM     16  C   UNL     1      31.947 -13.004 -20.174  0.00  0.00    +0.018 C 
ATOM     17  C   UNL     1      33.560 -13.817 -21.786  0.00  0.00    +0.051 C 
ATOM     18  C   UNL     1      32.685 -14.049 -20.730  0.00  0.00    +0.016 C 
ATOM     19  H   UNL     1      30.861 -10.444 -19.630  0.00  0.00    +0.166 HD
ATOM     20  H   UNL     1      35.251  -7.881 -25.303  0.00  0.00    +0.158 HD
ENDROOT
BRANCH  11  22
ATOM     21 CL   UNL     1      30.250  -6.251 -24.169  0.00  0.00    -0.082 Cl
ATOM     22  C   UNL     1      31.853  -5.859 -21.985  0.00  0.00    +0.011 C 
ATOM     23  C   UNL     1      30.973  -5.305 -22.915  0.00  0.00    +0.058 C 
ATOM     24  C   UNL     1      32.412  -5.058 -20.990  0.00  0.00    +0.001 C 
ATOM     25  C   UNL     1      30.653  -3.948 -22.850  0.00  0.00    +0.011 C 
ATOM     26  C   UNL     1      32.093  -3.701 -20.926  0.00  0.00    +0.000 C 
ATOM     27  C   UNL     1      31.213  -3.147 -21.856  0.00  0.00    +0.001 C 
ENDBRANCH  11  22
BRANCH  17  29
ATOM     28  O   UNL     1      33.474 -15.090 -24.538  0.00  0.00    -0.265 OA
ATOM     29  N   UNL     1      34.288 -14.878 -22.326  0.00  0.00    -0.277 N 
ATOM     30  C   UNL     1      34.196 -15.414 -23.606  0.00  0.00    +0.303 C 
ATOM     31  H   UNL     1      34.947 -15.298 -21.728  0.00  0.00    +0.155 HD
ENDBRANCH  17  29
TORSDOF 2
ENDMDL
