MODEL 1
REMARK VINA RESULT:     -11.8      0.000      0.000
REMARK  Name = 66645351
REMARK  11 active torsions:
REMARK  status: ('A' for Active; 'I' for Inactive)
REMARK    1  A    between atoms: C_2  and  C_4
REMARK    2  A    between atoms: C_2  and  C_18
REMARK    3  A    between atoms: C_3  and  C_5
REMARK    4  A    between atoms: C_6  and  O_11
REMARK    5  A    between atoms: C_8  and  O_13
REMARK    6  A    between atoms: O_13  and  S_14
REMARK    7  A    between atoms: C_18  and  C_20
REMARK    8  A    between atoms: C_20  and  C_22
REMARK    9  A    between atoms: C_21  and  C_23
REMARK   10  A    between atoms: C_25  and  O_29
REMARK   11  A    between atoms: C_27  and  O_31
REMARK                            x       y       z     vdW  Elec       q    Type
REMARK                         _______ _______ _______ _____ _____    ______ ____
ROOT
ATOM      1  O   UNL     1      32.578 -21.632 -19.546  0.00  0.00    -0.291 OA
ATOM      2  C   UNL     1      33.558 -22.046 -18.931  0.00  0.00    +0.181 C 
ENDROOT
BRANCH   2   4
ATOM      3  C   UNL     1      34.543 -22.783 -16.800  0.00  0.00    +0.003 C 
ATOM      4  C   UNL     1      33.444 -22.571 -17.538  0.00  0.00    +0.038 C 
BRANCH   3   5
ATOM      5  C   UNL     1      34.538 -23.290 -15.416  0.00  0.00    +0.003 C 
ATOM      6  C   UNL     1      33.400 -23.608 -13.309  0.00  0.00    +0.175 C 
ATOM      7  C   UNL     1      33.405 -23.129 -14.620  0.00  0.00    +0.040 C 
ATOM      8  C   UNL     1      34.529 -24.247 -12.796  0.00  0.00    +0.209 C 
ATOM      9  C   UNL     1      35.667 -23.929 -14.903  0.00  0.00    +0.003 C 
ATOM     10  C   UNL     1      35.662 -24.408 -13.593  0.00  0.00    +0.043 C 
BRANCH   6  11
ATOM     11  O   UNL     1      32.286 -23.446 -12.540  0.00  0.00    -0.468 OA
ATOM     12  C   UNL     1      31.025 -23.552 -13.197  0.00  0.00    +0.253 C 
ENDBRANCH   6  11
BRANCH   8  13
ATOM     13  O   UNL     1      34.536 -24.719 -11.518  0.00  0.00    -0.319 OA
BRANCH  13  14
ATOM     14  S   UNL     1      35.905 -24.563 -10.622  0.00  0.00    +0.282 S 
ATOM     15  O   UNL     1      35.373 -24.636  -9.080  0.00  0.00    -0.012 OA
ATOM     16  O   UNL     1      36.756 -25.716 -10.854  0.00  0.00    -0.105 OA
ATOM     17  O   UNL     1      36.424 -23.225 -10.838  0.00  0.00    -0.105 OA
ENDBRANCH  13  14
ENDBRANCH   8  13
ENDBRANCH   3   5
ENDBRANCH   2   4
BRANCH   2  18
ATOM     18  C   UNL     1      34.957 -22.017 -19.510  0.00  0.00    +0.138 C 
BRANCH  18  20
ATOM     19  O   UNL     1      36.472 -20.193 -19.078  0.00  0.00    -0.291 OA
ATOM     20  C   UNL     1      35.538 -20.635 -19.741  0.00  0.00    +0.181 C 
BRANCH  20  22
ATOM     21  C   UNL     1      35.587 -18.980 -21.560  0.00  0.00    +0.003 C 
ATOM     22  C   UNL     1      34.871 -19.821 -20.800  0.00  0.00    +0.038 C 
BRANCH  21  23
ATOM     23  C   UNL     1      35.026 -18.129 -22.623  0.00  0.00    +0.003 C 
ATOM     24  C   UNL     1      35.165 -16.742 -22.553  0.00  0.00    +0.040 C 
ATOM     25  C   UNL     1      34.633 -15.936 -23.560  0.00  0.00    +0.172 C 
ATOM     26  C   UNL     1      34.353 -18.708 -23.700  0.00  0.00    +0.003 C 
ATOM     27  C   UNL     1      33.961 -16.516 -24.636  0.00  0.00    +0.168 C 
ATOM     28  C   UNL     1      33.821 -17.902 -24.706  0.00  0.00    +0.040 C 
BRANCH  25  29
ATOM     29  O   UNL     1      34.776 -14.583 -23.481  0.00  0.00    -0.468 OA
ATOM     30  C   UNL     1      34.576 -13.985 -22.202  0.00  0.00    +0.253 C 
ENDBRANCH  25  29
BRANCH  27  31
ATOM     31  O   UNL     1      33.437 -15.739 -25.625  0.00  0.00    -0.503 OA
ATOM     32  H   UNL     1      33.438 -14.806 -25.538  0.00  0.00    +0.292 HD
ENDBRANCH  27  31
ENDBRANCH  21  23
ENDBRANCH  20  22
ENDBRANCH  18  20
ENDBRANCH   2  18
TORSDOF 11
ENDMDL
MODEL 2
REMARK VINA RESULT:     -11.6      1.330      2.725
REMARK  Name = 66645351
REMARK  11 active torsions:
REMARK  status: ('A' for Active; 'I' for Inactive)
REMARK    1  A    between atoms: C_2  and  C_4
REMARK    2  A    between atoms: C_2  and  C_18
REMARK    3  A    between atoms: C_3  and  C_5
REMARK    4  A    between atoms: C_6  and  O_11
REMARK    5  A    between atoms: C_8  and  O_13
REMARK    6  A    between atoms: O_13  and  S_14
REMARK    7  A    between atoms: C_18  and  C_20
REMARK    8  A    between atoms: C_20  and  C_22
REMARK    9  A    between atoms: C_21  and  C_23
REMARK   10  A    between atoms: C_25  and  O_29
REMARK   11  A    between atoms: C_27  and  O_31
REMARK                            x       y       z     vdW  Elec       q    Type
REMARK                         _______ _______ _______ _____ _____    ______ ____
ROOT
ATOM      1  O   UNL     1      37.064 -19.895 -18.951  0.00  0.00    -0.291 OA
ATOM      2  C   UNL     1      36.416 -20.889 -18.634  0.00  0.00    +0.181 C 
ENDROOT
BRANCH   2   4
ATOM      3  C   UNL     1      35.682 -22.384 -16.824  0.00  0.00    +0.003 C 
ATOM      4  C   UNL     1      36.628 -21.579 -17.327  0.00  0.00    +0.038 C 
BRANCH   3   5
ATOM      5  C   UNL     1      35.796 -23.116 -15.549  0.00  0.00    +0.003 C 
ATOM      6  C   UNL     1      37.147 -23.929 -13.718  0.00  0.00    +0.175 C 
ATOM      7  C   UNL     1      37.037 -23.236 -14.924  0.00  0.00    +0.040 C 
ATOM      8  C   UNL     1      36.014 -24.501 -13.137  0.00  0.00    +0.209 C 
ATOM      9  C   UNL     1      34.664 -23.688 -14.969  0.00  0.00    +0.003 C 
ATOM     10  C   UNL     1      34.773 -24.381 -13.763  0.00  0.00    +0.043 C 
BRANCH   6  11
ATOM     11  O   UNL     1      38.364 -24.039 -13.115  0.00  0.00    -0.468 OA
ATOM     12  C   UNL     1      39.122 -25.213 -13.397  0.00  0.00    +0.253 C 
ENDBRANCH   6  11
BRANCH   8  13
ATOM     13  O   UNL     1      36.108 -25.180 -11.960  0.00  0.00    -0.319 OA
BRANCH  13  14
ATOM     14  S   UNL     1      35.722 -24.406 -10.563  0.00  0.00    +0.282 S 
ATOM     15  O   UNL     1      37.138 -23.762 -10.069  0.00  0.00    -0.012 OA
ATOM     16  O   UNL     1      34.816 -23.312 -10.864  0.00  0.00    -0.105 OA
ATOM     17  O   UNL     1      35.342 -25.414  -9.590  0.00  0.00    -0.105 OA
ENDBRANCH  13  14
ENDBRANCH   8  13
ENDBRANCH   3   5
ENDBRANCH   2   4
BRANCH   2  18
ATOM     18  C   UNL     1      35.391 -21.522 -19.553  0.00  0.00    +0.138 C 
BRANCH  18  20
ATOM     19  O   UNL     1      33.134 -21.201 -18.770  0.00  0.00    -0.291 OA
ATOM     20  C   UNL     1      34.023 -20.869 -19.550  0.00  0.00    +0.181 C 
BRANCH  20  22
ATOM     21  C   UNL     1      34.750 -19.560 -21.502  0.00  0.00    +0.003 C 
ATOM     22  C   UNL     1      33.803 -19.820 -20.589  0.00  0.00    +0.038 C 
BRANCH  21  23
ATOM     23  C   UNL     1      34.636 -18.543 -22.562  0.00  0.00    +0.003 C 
ATOM     24  C   UNL     1      35.076 -17.241 -22.329  0.00  0.00    +0.040 C 
ATOM     25  C   UNL     1      34.968 -16.277 -23.331  0.00  0.00    +0.172 C 
ATOM     26  C   UNL     1      34.085 -18.882 -23.798  0.00  0.00    +0.003 C 
ATOM     27  C   UNL     1      34.417 -16.617 -24.567  0.00  0.00    +0.168 C 
ATOM     28  C   UNL     1      33.975 -17.919 -24.801  0.00  0.00    +0.040 C 
BRANCH  25  29
ATOM     29  O   UNL     1      35.402 -15.008 -23.092  0.00  0.00    -0.468 OA
ATOM     30  C   UNL     1      34.712 -14.266 -22.089  0.00  0.00    +0.253 C 
ENDBRANCH  25  29
BRANCH  27  31
ATOM     31  O   UNL     1      34.305 -15.685 -25.555  0.00  0.00    -0.503 OA
ATOM     32  H   UNL     1      35.064 -15.221 -25.851  0.00  0.00    +0.292 HD
ENDBRANCH  27  31
ENDBRANCH  21  23
ENDBRANCH  20  22
ENDBRANCH  18  20
ENDBRANCH   2  18
TORSDOF 11
ENDMDL
MODEL 3
REMARK VINA RESULT:     -11.4      3.679     11.996
REMARK  Name = 66645351
REMARK  11 active torsions:
REMARK  status: ('A' for Active; 'I' for Inactive)
REMARK    1  A    between atoms: C_2  and  C_4
REMARK    2  A    between atoms: C_2  and  C_18
REMARK    3  A    between atoms: C_3  and  C_5
REMARK    4  A    between atoms: C_6  and  O_11
REMARK    5  A    between atoms: C_8  and  O_13
REMARK    6  A    between atoms: O_13  and  S_14
REMARK    7  A    between atoms: C_18  and  C_20
REMARK    8  A    between atoms: C_20  and  C_22
REMARK    9  A    between atoms: C_21  and  C_23
REMARK   10  A    between atoms: C_25  and  O_29
REMARK   11  A    between atoms: C_27  and  O_31
REMARK                            x       y       z     vdW  Elec       q    Type
REMARK                         _______ _______ _______ _____ _____    ______ ____
ROOT
ATOM      1  O   UNL     1      32.673 -21.777 -18.400  0.00  0.00    -0.291 OA
ATOM      2  C   UNL     1      33.680 -21.469 -19.031  0.00  0.00    +0.181 C 
ENDROOT
BRANCH   2   4
ATOM      3  C   UNL     1      34.813 -19.927 -20.578  0.00  0.00    +0.003 C 
ATOM      4  C   UNL     1      33.667 -20.372 -20.044  0.00  0.00    +0.038 C 
BRANCH   3   5
ATOM      5  C   UNL     1      34.907 -18.857 -21.588  0.00  0.00    +0.003 C 
ATOM      6  C   UNL     1      35.191 -16.523 -22.142  0.00  0.00    +0.175 C 
ATOM      7  C   UNL     1      35.103 -17.537 -21.187  0.00  0.00    +0.040 C 
ATOM      8  C   UNL     1      35.083 -16.832 -23.498  0.00  0.00    +0.209 C 
ATOM      9  C   UNL     1      34.798 -19.166 -22.944  0.00  0.00    +0.003 C 
ATOM     10  C   UNL     1      34.887 -18.154 -23.899  0.00  0.00    +0.043 C 
BRANCH   6  11
ATOM     11  O   UNL     1      35.384 -15.236 -21.738  0.00  0.00    -0.468 OA
ATOM     12  C   UNL     1      34.614 -14.783 -20.626  0.00  0.00    +0.253 C 
ENDBRANCH   6  11
BRANCH   8  13
ATOM     13  O   UNL     1      35.167 -15.851 -24.440  0.00  0.00    -0.319 OA
BRANCH  13  14
ATOM     14  S   UNL     1      33.788 -15.316 -25.155  0.00  0.00    +0.282 S 
ATOM     15  O   UNL     1      33.103 -14.364 -24.019  0.00  0.00    -0.012 OA
ATOM     16  O   UNL     1      34.137 -14.476 -26.287  0.00  0.00    -0.105 OA
ATOM     17  O   UNL     1      32.916 -16.461 -25.345  0.00  0.00    -0.105 OA
ENDBRANCH  13  14
ENDBRANCH   8  13
ENDBRANCH   3   5
ENDBRANCH   2   4
BRANCH   2  18
ATOM     18  C   UNL     1      34.998 -22.200 -18.872  0.00  0.00    +0.138 C 
BRANCH  18  20
ATOM     19  O   UNL     1      36.635 -20.788 -17.808  0.00  0.00    -0.291 OA
ATOM     20  C   UNL     1      35.863 -21.738 -17.716  0.00  0.00    +0.181 C 
BRANCH  20  22
ATOM     21  C   UNL     1      36.848 -22.845 -15.752  0.00  0.00    +0.003 C 
ATOM     22  C   UNL     1      35.752 -22.541 -16.462  0.00  0.00    +0.038 C 
BRANCH  21  23
ATOM     23  C   UNL     1      36.847 -23.636 -14.509  0.00  0.00    +0.003 C 
ATOM     24  C   UNL     1      37.926 -24.468 -14.211  0.00  0.00    +0.040 C 
ATOM     25  C   UNL     1      37.927 -25.218 -13.035  0.00  0.00    +0.172 C 
ATOM     26  C   UNL     1      35.767 -23.554 -13.630  0.00  0.00    +0.003 C 
ATOM     27  C   UNL     1      36.846 -25.135 -12.156  0.00  0.00    +0.168 C 
ATOM     28  C   UNL     1      35.766 -24.304 -12.454  0.00  0.00    +0.040 C 
BRANCH  25  29
ATOM     29  O   UNL     1      38.987 -26.026 -12.755  0.00  0.00    -0.468 OA
ATOM     30  C   UNL     1      40.156 -25.862 -13.555  0.00  0.00    +0.253 C 
ENDBRANCH  25  29
BRANCH  27  31
ATOM     31  O   UNL     1      36.834 -25.863 -11.004  0.00  0.00    -0.503 OA
ATOM     32  H   UNL     1      37.595 -25.889 -10.458  0.00  0.00    +0.292 HD
ENDBRANCH  27  31
ENDBRANCH  21  23
ENDBRANCH  20  22
ENDBRANCH  18  20
ENDBRANCH   2  18
TORSDOF 11
ENDMDL
MODEL 4
REMARK VINA RESULT:     -11.4      3.532     11.697
REMARK  Name = 66645351
REMARK  11 active torsions:
REMARK  status: ('A' for Active; 'I' for Inactive)
REMARK    1  A    between atoms: C_2  and  C_4
REMARK    2  A    between atoms: C_2  and  C_18
REMARK    3  A    between atoms: C_3  and  C_5
REMARK    4  A    between atoms: C_6  and  O_11
REMARK    5  A    between atoms: C_8  and  O_13
REMARK    6  A    between atoms: O_13  and  S_14
REMARK    7  A    between atoms: C_18  and  C_20
REMARK    8  A    between atoms: C_20  and  C_22
REMARK    9  A    between atoms: C_21  and  C_23
REMARK   10  A    between atoms: C_25  and  O_29
REMARK   11  A    between atoms: C_27  and  O_31
REMARK                            x       y       z     vdW  Elec       q    Type
REMARK                         _______ _______ _______ _____ _____    ______ ____
ROOT
ATOM      1  O   UNL     1      36.524 -21.307 -17.682  0.00  0.00    -0.291 OA
ATOM      2  C   UNL     1      35.914 -21.294 -18.749  0.00  0.00    +0.181 C 
ENDROOT
BRANCH   2   4
ATOM      3  C   UNL     1      35.071 -19.937 -20.619  0.00  0.00    +0.003 C 
ATOM      4  C   UNL     1      36.023 -20.149 -19.700  0.00  0.00    +0.038 C 
BRANCH   3   5
ATOM      5  C   UNL     1      35.081 -18.833 -21.596  0.00  0.00    +0.003 C 
ATOM      6  C   UNL     1      35.293 -16.477 -22.089  0.00  0.00    +0.175 C 
ATOM      7  C   UNL     1      35.285 -17.523 -21.165  0.00  0.00    +0.040 C 
ATOM      8  C   UNL     1      35.098 -16.743 -23.445  0.00  0.00    +0.209 C 
ATOM      9  C   UNL     1      34.885 -19.099 -22.952  0.00  0.00    +0.003 C 
ATOM     10  C   UNL     1      34.893 -18.054 -23.876  0.00  0.00    +0.043 C 
BRANCH   6  11
ATOM     11  O   UNL     1      35.495 -15.201 -21.656  0.00  0.00    -0.468 OA
ATOM     12  C   UNL     1      34.478 -14.627 -20.837  0.00  0.00    +0.253 C 
ENDBRANCH   6  11
BRANCH   8  13
ATOM     13  O   UNL     1      35.104 -15.731 -24.356  0.00  0.00    -0.319 OA
BRANCH  13  14
ATOM     14  S   UNL     1      33.683 -15.273 -25.044  0.00  0.00    +0.282 S 
ATOM     15  O   UNL     1      34.142 -14.432 -26.366  0.00  0.00    -0.012 OA
ATOM     16  O   UNL     1      32.971 -16.456 -25.493  0.00  0.00    -0.105 OA
ATOM     17  O   UNL     1      33.037 -14.339 -24.140  0.00  0.00    -0.105 OA
ENDBRANCH  13  14
ENDBRANCH   8  13
ENDBRANCH   3   5
ENDBRANCH   2   4
BRANCH   2  18
ATOM     18  C   UNL     1      34.974 -22.407 -19.164  0.00  0.00    +0.138 C 
BRANCH  18  20
ATOM     19  O   UNL     1      32.687 -21.665 -19.341  0.00  0.00    -0.291 OA
ATOM     20  C   UNL     1      33.541 -22.260 -18.689  0.00  0.00    +0.181 C 
BRANCH  20  22
ATOM     21  C   UNL     1      32.000 -22.779 -16.843  0.00  0.00    +0.003 C 
ATOM     22  C   UNL     1      33.240 -22.847 -17.350  0.00  0.00    +0.038 C 
BRANCH  21  23
ATOM     23  C   UNL     1      31.601 -23.319 -15.532  0.00  0.00    +0.003 C 
ATOM     24  C   UNL     1      32.561 -23.531 -14.543  0.00  0.00    +0.040 C 
ATOM     25  C   UNL     1      32.185 -24.043 -13.301  0.00  0.00    +0.172 C 
ATOM     26  C   UNL     1      30.262 -23.621 -15.279  0.00  0.00    +0.003 C 
ATOM     27  C   UNL     1      30.846 -24.344 -13.049  0.00  0.00    +0.168 C 
ATOM     28  C   UNL     1      29.885 -24.133 -14.038  0.00  0.00    +0.040 C 
BRANCH  25  29
ATOM     29  O   UNL     1      33.132 -24.244 -12.343  0.00  0.00    -0.468 OA
ATOM     30  C   UNL     1      34.494 -24.117 -12.743  0.00  0.00    +0.253 C 
ENDBRANCH  25  29
BRANCH  27  31
ATOM     31  O   UNL     1      30.464 -24.845 -11.841  0.00  0.00    -0.503 OA
ATOM     32  H   UNL     1      30.588 -25.754 -11.650  0.00  0.00    +0.292 HD
ENDBRANCH  27  31
ENDBRANCH  21  23
ENDBRANCH  20  22
ENDBRANCH  18  20
ENDBRANCH   2  18
TORSDOF 11
ENDMDL
MODEL 5
REMARK VINA RESULT:     -11.3      1.445      2.488
REMARK  Name = 66645351
REMARK  11 active torsions:
REMARK  status: ('A' for Active; 'I' for Inactive)
REMARK    1  A    between atoms: C_2  and  C_4
REMARK    2  A    between atoms: C_2  and  C_18
REMARK    3  A    between atoms: C_3  and  C_5
REMARK    4  A    between atoms: C_6  and  O_11
REMARK    5  A    between atoms: C_8  and  O_13
REMARK    6  A    between atoms: O_13  and  S_14
REMARK    7  A    between atoms: C_18  and  C_20
REMARK    8  A    between atoms: C_20  and  C_22
REMARK    9  A    between atoms: C_21  and  C_23
REMARK   10  A    between atoms: C_25  and  O_29
REMARK   11  A    between atoms: C_27  and  O_31
REMARK                            x       y       z     vdW  Elec       q    Type
REMARK                         _______ _______ _______ _____ _____    ______ ____
ROOT
ATOM      1  O   UNL     1      33.388 -20.753 -19.524  0.00  0.00    -0.291 OA
ATOM      2  C   UNL     1      34.438 -21.300 -19.200  0.00  0.00    +0.181 C 
ENDROOT
BRANCH   2   4
ATOM      3  C   UNL     1      35.565 -22.069 -17.152  0.00  0.00    +0.003 C 
ATOM      4  C   UNL     1      34.527 -22.175 -17.993  0.00  0.00    +0.038 C 
BRANCH   3   5
ATOM      5  C   UNL     1      35.741 -22.878 -15.932  0.00  0.00    +0.003 C 
ATOM      6  C   UNL     1      37.182 -23.817 -14.235  0.00  0.00    +0.175 C 
ATOM      7  C   UNL     1      37.013 -23.051 -15.389  0.00  0.00    +0.040 C 
ATOM      8  C   UNL     1      36.076 -24.409 -13.624  0.00  0.00    +0.209 C 
ATOM      9  C   UNL     1      34.635 -23.470 -15.322  0.00  0.00    +0.003 C 
ATOM     10  C   UNL     1      34.802 -24.236 -14.168  0.00  0.00    +0.043 C 
BRANCH   6  11
ATOM     11  O   UNL     1      38.429 -23.978 -13.713  0.00  0.00    -0.468 OA
ATOM     12  C   UNL     1      39.160 -25.131 -14.125  0.00  0.00    +0.253 C 
ENDBRANCH   6  11
BRANCH   8  13
ATOM     13  O   UNL     1      36.226 -25.159 -12.497  0.00  0.00    -0.319 OA
BRANCH  13  14
ATOM     14  S   UNL     1      36.218 -24.408 -11.036  0.00  0.00    +0.282 S 
ATOM     15  O   UNL     1      37.755 -24.563 -10.508  0.00  0.00    -0.012 OA
ATOM     16  O   UNL     1      35.955 -22.994 -11.233  0.00  0.00    -0.105 OA
ATOM     17  O   UNL     1      35.375 -25.184 -10.146  0.00  0.00    -0.105 OA
ENDBRANCH  13  14
ENDBRANCH   8  13
ENDBRANCH   3   5
ENDBRANCH   2   4
BRANCH   2  18
ATOM     18  C   UNL     1      35.732 -21.099 -19.962  0.00  0.00    +0.138 C 
BRANCH  18  20
ATOM     19  O   UNL     1      37.158 -19.199 -19.554  0.00  0.00    -0.291 OA
ATOM     20  C   UNL     1      36.173 -19.658 -20.127  0.00  0.00    +0.181 C 
BRANCH  20  22
ATOM     21  C   UNL     1      35.835 -18.133 -22.028  0.00  0.00    +0.003 C 
ATOM     22  C   UNL     1      35.306 -18.810 -20.999  0.00  0.00    +0.038 C 
BRANCH  21  23
ATOM     23  C   UNL     1      35.071 -17.266 -22.941  0.00  0.00    +0.003 C 
ATOM     24  C   UNL     1      35.041 -15.887 -22.733  0.00  0.00    +0.040 C 
ATOM     25  C   UNL     1      34.317 -15.065 -23.596  0.00  0.00    +0.172 C 
ATOM     26  C   UNL     1      34.374 -17.823 -24.013  0.00  0.00    +0.003 C 
ATOM     27  C   UNL     1      33.621 -15.624 -24.669  0.00  0.00    +0.168 C 
ATOM     28  C   UNL     1      33.649 -17.003 -24.877  0.00  0.00    +0.040 C 
BRANCH  25  29
ATOM     29  O   UNL     1      34.296 -13.720 -23.383  0.00  0.00    -0.468 OA
ATOM     30  C   UNL     1      34.333 -13.279 -22.027  0.00  0.00    +0.253 C 
ENDBRANCH  25  29
BRANCH  27  31
ATOM     31  O   UNL     1      32.909 -14.832 -25.520  0.00  0.00    -0.503 OA
ATOM     32  H   UNL     1      33.205 -14.707 -26.400  0.00  0.00    +0.292 HD
ENDBRANCH  27  31
ENDBRANCH  21  23
ENDBRANCH  20  22
ENDBRANCH  18  20
ENDBRANCH   2  18
TORSDOF 11
ENDMDL
MODEL 6
REMARK VINA RESULT:     -11.3      3.384     11.875
REMARK  Name = 66645351
REMARK  11 active torsions:
REMARK  status: ('A' for Active; 'I' for Inactive)
REMARK    1  A    between atoms: C_2  and  C_4
REMARK    2  A    between atoms: C_2  and  C_18
REMARK    3  A    between atoms: C_3  and  C_5
REMARK    4  A    between atoms: C_6  and  O_11
REMARK    5  A    between atoms: C_8  and  O_13
REMARK    6  A    between atoms: O_13  and  S_14
REMARK    7  A    between atoms: C_18  and  C_20
REMARK    8  A    between atoms: C_20  and  C_22
REMARK    9  A    between atoms: C_21  and  C_23
REMARK   10  A    between atoms: C_25  and  O_29
REMARK   11  A    between atoms: C_27  and  O_31
REMARK                            x       y       z     vdW  Elec       q    Type
REMARK                         _______ _______ _______ _____ _____    ______ ____
ROOT
ATOM      1  O   UNL     1      32.652 -21.767 -18.540  0.00  0.00    -0.291 OA
ATOM      2  C   UNL     1      33.663 -21.435 -19.154  0.00  0.00    +0.181 C 
ENDROOT
BRANCH   2   4
ATOM      3  C   UNL     1      34.794 -19.861 -20.669  0.00  0.00    +0.003 C 
ATOM      4  C   UNL     1      33.650 -20.310 -20.137  0.00  0.00    +0.038 C 
BRANCH   3   5
ATOM      5  C   UNL     1      34.888 -18.764 -21.651  0.00  0.00    +0.003 C 
ATOM      6  C   UNL     1      35.166 -16.415 -22.142  0.00  0.00    +0.175 C 
ATOM      7  C   UNL     1      35.078 -17.454 -21.215  0.00  0.00    +0.040 C 
ATOM      8  C   UNL     1      35.065 -16.689 -23.507  0.00  0.00    +0.209 C 
ATOM      9  C   UNL     1      34.787 -19.039 -23.014  0.00  0.00    +0.003 C 
ATOM     10  C   UNL     1      34.875 -18.001 -23.943  0.00  0.00    +0.043 C 
BRANCH   6  11
ATOM     11  O   UNL     1      35.352 -15.139 -21.705  0.00  0.00    -0.468 OA
ATOM     12  C   UNL     1      34.625 -14.739 -20.545  0.00  0.00    +0.253 C 
ENDBRANCH   6  11
BRANCH   8  13
ATOM     13  O   UNL     1      35.149 -15.685 -24.423  0.00  0.00    -0.319 OA
BRANCH  13  14
ATOM     14  S   UNL     1      33.765 -15.090 -25.080  0.00  0.00    +0.282 S 
ATOM     15  O   UNL     1      32.882 -16.425 -25.406  0.00  0.00    -0.012 OA
ATOM     16  O   UNL     1      33.055 -14.323 -24.072  0.00  0.00    -0.105 OA
ATOM     17  O   UNL     1      34.107 -14.476 -26.349  0.00  0.00    -0.105 OA
ENDBRANCH  13  14
ENDBRANCH   8  13
ENDBRANCH   3   5
ENDBRANCH   2   4
BRANCH   2  18
ATOM     18  C   UNL     1      34.984 -22.161 -19.004  0.00  0.00    +0.138 C 
BRANCH  18  20
ATOM     19  O   UNL     1      36.719 -21.011 -17.789  0.00  0.00    -0.291 OA
ATOM     20  C   UNL     1      35.784 -21.807 -17.766  0.00  0.00    +0.181 C 
BRANCH  20  22
ATOM     21  C   UNL     1      36.212 -22.530 -15.454  0.00  0.00    +0.003 C 
ATOM     22  C   UNL     1      35.393 -22.523 -16.515  0.00  0.00    +0.038 C 
BRANCH  21  23
ATOM     23  C   UNL     1      35.924 -23.211 -14.179  0.00  0.00    +0.003 C 
ATOM     24  C   UNL     1      34.610 -23.541 -13.846  0.00  0.00    +0.040 C 
ATOM     25  C   UNL     1      34.337 -24.186 -12.639  0.00  0.00    +0.172 C 
ATOM     26  C   UNL     1      36.965 -23.524 -13.304  0.00  0.00    +0.003 C 
ATOM     27  C   UNL     1      35.378 -24.498 -11.765  0.00  0.00    +0.168 C 
ATOM     28  C   UNL     1      36.692 -24.167 -12.097  0.00  0.00    +0.040 C 
BRANCH  25  29
ATOM     29  O   UNL     1      33.050 -24.504 -12.325  0.00  0.00    -0.468 OA
ATOM     30  C   UNL     1      32.191 -24.866 -13.404  0.00  0.00    +0.253 C 
ENDBRANCH  25  29
BRANCH  27  31
ATOM     31  O   UNL     1      35.125 -25.127 -10.583  0.00  0.00    -0.503 OA
ATOM     32  H   UNL     1      35.787 -25.164  -9.921  0.00  0.00    +0.292 HD
ENDBRANCH  27  31
ENDBRANCH  21  23
ENDBRANCH  20  22
ENDBRANCH  18  20
ENDBRANCH   2  18
TORSDOF 11
ENDMDL
MODEL 7
REMARK VINA RESULT:     -11.0      2.268      3.111
REMARK  Name = 66645351
REMARK  11 active torsions:
REMARK  status: ('A' for Active; 'I' for Inactive)
REMARK    1  A    between atoms: C_2  and  C_4
REMARK    2  A    between atoms: C_2  and  C_18
REMARK    3  A    between atoms: C_3  and  C_5
REMARK    4  A    between atoms: C_6  and  O_11
REMARK    5  A    between atoms: C_8  and  O_13
REMARK    6  A    between atoms: O_13  and  S_14
REMARK    7  A    between atoms: C_18  and  C_20
REMARK    8  A    between atoms: C_20  and  C_22
REMARK    9  A    between atoms: C_21  and  C_23
REMARK   10  A    between atoms: C_25  and  O_29
REMARK   11  A    between atoms: C_27  and  O_31
REMARK                            x       y       z     vdW  Elec       q    Type
REMARK                         _______ _______ _______ _____ _____    ______ ____
ROOT
ATOM      1  O   UNL     1      31.929 -22.341 -17.133  0.00  0.00    -0.291 OA
ATOM      2  C   UNL     1      32.971 -22.279 -17.780  0.00  0.00    +0.181 C 
ENDROOT
BRANCH   2   4
ATOM      3  C   UNL     1      34.391 -22.988 -15.900  0.00  0.00    +0.003 C 
ATOM      4  C   UNL     1      34.277 -22.724 -17.209  0.00  0.00    +0.038 C 
BRANCH   3   5
ATOM      5  C   UNL     1      35.630 -23.440 -15.241  0.00  0.00    +0.003 C 
ATOM      6  C   UNL     1      36.732 -24.702 -13.501  0.00  0.00    +0.175 C 
ATOM      7  C   UNL     1      35.561 -24.274 -14.126  0.00  0.00    +0.040 C 
ATOM      8  C   UNL     1      37.973 -24.295 -13.993  0.00  0.00    +0.209 C 
ATOM      9  C   UNL     1      36.870 -23.033 -15.733  0.00  0.00    +0.003 C 
ATOM     10  C   UNL     1      38.042 -23.460 -15.109  0.00  0.00    +0.043 C 
BRANCH   6  11
ATOM     11  O   UNL     1      36.653 -25.518 -12.413  0.00  0.00    -0.468 OA
ATOM     12  C   UNL     1      36.118 -24.954 -11.218  0.00  0.00    +0.253 C 
ENDBRANCH   6  11
BRANCH   8  13
ATOM     13  O   UNL     1      39.125 -24.706 -13.392  0.00  0.00    -0.319 OA
BRANCH  13  14
ATOM     14  S   UNL     1      39.896 -26.034 -13.976  0.00  0.00    +0.282 S 
ATOM     15  O   UNL     1      40.439 -25.558 -15.441  0.00  0.00    -0.012 OA
ATOM     16  O   UNL     1      41.051 -26.314 -13.143  0.00  0.00    -0.105 OA
ATOM     17  O   UNL     1      38.896 -27.062 -14.198  0.00  0.00    -0.105 OA
ENDBRANCH  13  14
ENDBRANCH   8  13
ENDBRANCH   3   5
ENDBRANCH   2   4
BRANCH   2  18
ATOM     18  C   UNL     1      33.027 -21.709 -19.183  0.00  0.00    +0.138 C 
BRANCH  18  20
ATOM     19  O   UNL     1      35.269 -20.882 -18.865  0.00  0.00    -0.291 OA
ATOM     20  C   UNL     1      34.202 -20.792 -19.466  0.00  0.00    +0.181 C 
BRANCH  20  22
ATOM     21  C   UNL     1      34.834 -19.567 -21.504  0.00  0.00    +0.003 C 
ATOM     22  C   UNL     1      33.966 -19.737 -20.496  0.00  0.00    +0.038 C 
BRANCH  21  23
ATOM     23  C   UNL     1      34.698 -18.554 -22.564  0.00  0.00    +0.003 C 
ATOM     24  C   UNL     1      35.161 -17.255 -22.351  0.00  0.00    +0.040 C 
ATOM     25  C   UNL     1      35.032 -16.294 -23.354  0.00  0.00    +0.172 C 
ATOM     26  C   UNL     1      34.104 -18.891 -23.781  0.00  0.00    +0.003 C 
ATOM     27  C   UNL     1      34.439 -16.633 -24.570  0.00  0.00    +0.168 C 
ATOM     28  C   UNL     1      33.974 -17.930 -24.784  0.00  0.00    +0.040 C 
BRANCH  25  29
ATOM     29  O   UNL     1      35.489 -15.030 -23.134  0.00  0.00    -0.468 OA
ATOM     30  C   UNL     1      34.583 -14.111 -22.526  0.00  0.00    +0.253 C 
ENDBRANCH  25  29
BRANCH  27  31
ATOM     31  O   UNL     1      34.306 -15.703 -25.558  0.00  0.00    -0.503 OA
ATOM     32  H   UNL     1      34.860 -15.741 -26.314  0.00  0.00    +0.292 HD
ENDBRANCH  27  31
ENDBRANCH  21  23
ENDBRANCH  20  22
ENDBRANCH  18  20
ENDBRANCH   2  18
TORSDOF 11
ENDMDL
MODEL 8
REMARK VINA RESULT:     -11.0      3.957     11.419
REMARK  Name = 66645351
REMARK  11 active torsions:
REMARK  status: ('A' for Active; 'I' for Inactive)
REMARK    1  A    between atoms: C_2  and  C_4
REMARK    2  A    between atoms: C_2  and  C_18
REMARK    3  A    between atoms: C_3  and  C_5
REMARK    4  A    between atoms: C_6  and  O_11
REMARK    5  A    between atoms: C_8  and  O_13
REMARK    6  A    between atoms: O_13  and  S_14
REMARK    7  A    between atoms: C_18  and  C_20
REMARK    8  A    between atoms: C_20  and  C_22
REMARK    9  A    between atoms: C_21  and  C_23
REMARK   10  A    between atoms: C_25  and  O_29
REMARK   11  A    between atoms: C_27  and  O_31
REMARK                            x       y       z     vdW  Elec       q    Type
REMARK                         _______ _______ _______ _____ _____    ______ ____
ROOT
ATOM      1  O   UNL     1      34.971 -22.663 -18.699  0.00  0.00    -0.291 OA
ATOM      2  C   UNL     1      35.689 -21.685 -18.510  0.00  0.00    +0.181 C 
ENDROOT
BRANCH   2   4
ATOM      3  C   UNL     1      34.838 -20.158 -20.241  0.00  0.00    +0.003 C 
ATOM      4  C   UNL     1      35.886 -20.641 -19.559  0.00  0.00    +0.038 C 
BRANCH   3   5
ATOM      5  C   UNL     1      34.925 -19.123 -21.288  0.00  0.00    +0.003 C 
ATOM      6  C   UNL     1      35.278 -16.821 -21.928  0.00  0.00    +0.175 C 
ATOM      7  C   UNL     1      35.197 -17.801 -20.939  0.00  0.00    +0.040 C 
ATOM      8  C   UNL     1      35.088 -17.165 -23.268  0.00  0.00    +0.209 C 
ATOM      9  C   UNL     1      34.735 -19.467 -22.626  0.00  0.00    +0.003 C 
ATOM     10  C   UNL     1      34.816 -18.488 -23.616  0.00  0.00    +0.043 C 
BRANCH   6  11
ATOM     11  O   UNL     1      35.546 -15.532 -21.576  0.00  0.00    -0.468 OA
ATOM     12  C   UNL     1      34.587 -14.875 -20.750  0.00  0.00    +0.253 C 
ENDBRANCH   6  11
BRANCH   8  13
ATOM     13  O   UNL     1      35.165 -16.217 -24.243  0.00  0.00    -0.319 OA
BRANCH  13  14
ATOM     14  S   UNL     1      33.775 -15.656 -24.917  0.00  0.00    +0.282 S 
ATOM     15  O   UNL     1      34.275 -14.903 -26.277  0.00  0.00    -0.012 OA
ATOM     16  O   UNL     1      32.951 -16.785 -25.311  0.00  0.00    -0.105 OA
ATOM     17  O   UNL     1      33.235 -14.640 -24.033  0.00  0.00    -0.105 OA
ENDBRANCH  13  14
ENDBRANCH   8  13
ENDBRANCH   3   5
ENDBRANCH   2   4
BRANCH   2  18
ATOM     18  C   UNL     1      36.466 -21.480 -17.225  0.00  0.00    +0.138 C 
BRANCH  18  20
ATOM     19  O   UNL     1      37.119 -23.001 -15.473  0.00  0.00    -0.291 OA
ATOM     20  C   UNL     1      36.213 -22.509 -16.140  0.00  0.00    +0.181 C 
BRANCH  20  22
ATOM     21  C   UNL     1      34.370 -23.411 -14.784  0.00  0.00    +0.003 C 
ATOM     22  C   UNL     1      34.790 -22.924 -15.960  0.00  0.00    +0.038 C 
BRANCH  21  23
ATOM     23  C   UNL     1      32.993 -23.855 -14.506  0.00  0.00    +0.003 C 
ATOM     24  C   UNL     1      31.963 -23.528 -15.388  0.00  0.00    +0.040 C 
ATOM     25  C   UNL     1      30.659 -23.947 -15.125  0.00  0.00    +0.172 C 
ATOM     26  C   UNL     1      32.718 -24.600 -13.359  0.00  0.00    +0.003 C 
ATOM     27  C   UNL     1      30.385 -24.693 -13.978  0.00  0.00    +0.168 C 
ATOM     28  C   UNL     1      31.414 -25.018 -13.095  0.00  0.00    +0.040 C 
BRANCH  25  29
ATOM     29  O   UNL     1      29.661 -23.623 -15.995  0.00  0.00    -0.468 OA
ATOM     30  C   UNL     1      28.838 -22.511 -15.649  0.00  0.00    +0.253 C 
ENDBRANCH  25  29
BRANCH  27  31
ATOM     31  O   UNL     1      29.115 -25.108 -13.709  0.00  0.00    -0.503 OA
ATOM     32  H   UNL     1      28.627 -25.574 -14.359  0.00  0.00    +0.292 HD
ENDBRANCH  27  31
ENDBRANCH  21  23
ENDBRANCH  20  22
ENDBRANCH  18  20
ENDBRANCH   2  18
TORSDOF 11
ENDMDL
MODEL 9
REMARK VINA RESULT:     -10.9      4.368     11.238
REMARK  Name = 66645351
REMARK  11 active torsions:
REMARK  status: ('A' for Active; 'I' for Inactive)
REMARK    1  A    between atoms: C_2  and  C_4
REMARK    2  A    between atoms: C_2  and  C_18
REMARK    3  A    between atoms: C_3  and  C_5
REMARK    4  A    between atoms: C_6  and  O_11
REMARK    5  A    between atoms: C_8  and  O_13
REMARK    6  A    between atoms: O_13  and  S_14
REMARK    7  A    between atoms: C_18  and  C_20
REMARK    8  A    between atoms: C_20  and  C_22
REMARK    9  A    between atoms: C_21  and  C_23
REMARK   10  A    between atoms: C_25  and  O_29
REMARK   11  A    between atoms: C_27  and  O_31
REMARK                            x       y       z     vdW  Elec       q    Type
REMARK                         _______ _______ _______ _____ _____    ______ ____
ROOT
ATOM      1  O   UNL     1      36.475 -21.821 -17.773  0.00  0.00    -0.291 OA
ATOM      2  C   UNL     1      35.645 -21.665 -18.665  0.00  0.00    +0.181 C 
ENDROOT
BRANCH   2   4
ATOM      3  C   UNL     1      34.826 -19.958 -20.236  0.00  0.00    +0.003 C 
ATOM      4  C   UNL     1      35.853 -20.679 -19.767  0.00  0.00    +0.038 C 
BRANCH   3   5
ATOM      5  C   UNL     1      34.928 -18.955 -21.312  0.00  0.00    +0.003 C 
ATOM      6  C   UNL     1      35.249 -16.666 -22.014  0.00  0.00    +0.175 C 
ATOM      7  C   UNL     1      35.153 -17.616 -20.997  0.00  0.00    +0.040 C 
ATOM      8  C   UNL     1      35.120 -17.057 -23.347  0.00  0.00    +0.209 C 
ATOM      9  C   UNL     1      34.798 -19.346 -22.645  0.00  0.00    +0.003 C 
ATOM     10  C   UNL     1      34.894 -18.397 -23.662  0.00  0.00    +0.043 C 
BRANCH   6  11
ATOM     11  O   UNL     1      35.471 -15.360 -21.694  0.00  0.00    -0.468 OA
ATOM     12  C   UNL     1      34.578 -14.762 -20.757  0.00  0.00    +0.253 C 
ENDBRANCH   6  11
BRANCH   8  13
ATOM     13  O   UNL     1      35.211 -16.139 -24.350  0.00  0.00    -0.319 OA
BRANCH  13  14
ATOM     14  S   UNL     1      33.829 -15.543 -25.010  0.00  0.00    +0.282 S 
ATOM     15  O   UNL     1      32.922 -16.873 -25.284  0.00  0.00    -0.012 OA
ATOM     16  O   UNL     1      33.144 -14.733 -24.021  0.00  0.00    -0.105 OA
ATOM     17  O   UNL     1      34.167 -14.977 -26.303  0.00  0.00    -0.105 OA
ENDBRANCH  13  14
ENDBRANCH   8  13
ENDBRANCH   3   5
ENDBRANCH   2   4
BRANCH   2  18
ATOM     18  C   UNL     1      34.331 -22.420 -18.698  0.00  0.00    +0.138 C 
BRANCH  18  20
ATOM     19  O   UNL     1      34.466 -23.365 -16.486  0.00  0.00    -0.291 OA
ATOM     20  C   UNL     1      33.778 -22.822 -17.346  0.00  0.00    +0.181 C 
BRANCH  20  22
ATOM     21  C   UNL     1      31.688 -23.066 -16.070  0.00  0.00    +0.003 C 
ATOM     22  C   UNL     1      32.323 -22.558 -17.136  0.00  0.00    +0.038 C 
BRANCH  21  23
ATOM     23  C   UNL     1      30.258 -22.871 -15.777  0.00  0.00    +0.003 C 
ATOM     24  C   UNL     1      29.313 -23.002 -16.794  0.00  0.00    +0.040 C 
ATOM     25  C   UNL     1      27.958 -22.818 -16.517  0.00  0.00    +0.172 C 
ATOM     26  C   UNL     1      29.847 -22.555 -14.481  0.00  0.00    +0.003 C 
ATOM     27  C   UNL     1      27.549 -22.501 -15.222  0.00  0.00    +0.168 C 
ATOM     28  C   UNL     1      28.493 -22.370 -14.204  0.00  0.00    +0.040 C 
BRANCH  25  29
ATOM     29  O   UNL     1      27.044 -22.948 -17.519  0.00  0.00    -0.468 OA
ATOM     30  C   UNL     1      26.260 -21.799 -17.834  0.00  0.00    +0.253 C 
ENDBRANCH  25  29
BRANCH  27  31
ATOM     31  O   UNL     1      26.228 -22.318 -14.938  0.00  0.00    -0.503 OA
ATOM     32  H   UNL     1      25.794 -22.894 -14.339  0.00  0.00    +0.292 HD
ENDBRANCH  27  31
ENDBRANCH  21  23
ENDBRANCH  20  22
ENDBRANCH  18  20
ENDBRANCH   2  18
TORSDOF 11
ENDMDL
