MODEL 1
REMARK VINA RESULT:     -11.5      0.000      0.000
REMARK  Name = 25118925
REMARK  3 active torsions:
REMARK  status: ('A' for Active; 'I' for Inactive)
REMARK    1  A    between atoms: C_3  and  C_12
REMARK    2  A    between atoms: C_5  and  C_24
REMARK    3  A    between atoms: C_27  and  C_33
REMARK                            x       y       z     vdW  Elec       q    Type
REMARK                         _______ _______ _______ _____ _____    ______ ____
ROOT
ATOM      1  N   UNL     1      34.364 -15.752 -24.288  0.00  0.00    -0.279 N 
ATOM      2  N   UNL     1      34.271 -15.777 -22.068  0.00  0.00    -0.394 NA
ATOM      3  C   UNL     1      33.976 -15.094 -23.153  0.00  0.00    +0.160 C 
ATOM      4  C   UNL     1      34.944 -16.928 -23.901  0.00  0.00    +0.152 C 
ATOM      5  C   UNL     1      34.875 -16.920 -22.528  0.00  0.00    +0.130 C 
ATOM      6  C   UNL     1      34.201 -15.301 -25.649  0.00  0.00    +0.115 C 
ENDROOT
BRANCH   3  12
ATOM      7  N   UNL     1      32.809 -11.010 -22.368  0.00  0.00    -0.296 N 
ATOM      8  N   UNL     1      32.398  -8.749 -23.006  0.00  0.00    -0.233 NA
ATOM      9  N   UNL     1      32.126  -7.814 -19.103  0.00  0.00    -0.223 N 
ATOM     10  N   UNL     1      32.023  -6.976 -21.373  0.00  0.00    -0.232 NA
ATOM     11  N   UNL     1      32.328  -8.967 -18.440  0.00  0.00    -0.183 NA
ATOM     12  C   UNL     1      33.291 -13.742 -23.196  0.00  0.00    +0.070 C 
ATOM     13  C   UNL     1      34.268 -12.609 -23.546  0.00  0.00    +0.030 C 
ATOM     14  C   UNL     1      32.576 -13.413 -21.877  0.00  0.00    +0.030 C 
ATOM     15  C   UNL     1      33.552 -11.261 -23.611  0.00  0.00    +0.092 C 
ATOM     16  C   UNL     1      31.872 -12.057 -21.946  0.00  0.00    +0.092 C 
ATOM     17  C   UNL     1      32.550  -9.677 -22.031  0.00  0.00    +0.118 C 
ATOM     18  C   UNL     1      32.442  -9.284 -20.701  0.00  0.00    +0.152 C 
ATOM     19  C   UNL     1      32.184  -7.946 -20.458  0.00  0.00    +0.133 C 
ATOM     20  C   UNL     1      32.520  -9.859 -19.419  0.00  0.00    +0.105 C 
ATOM     21  C   UNL     1      32.147  -7.474 -22.622  0.00  0.00    +0.252 C 
ATOM     22  H   UNL     1      31.953  -6.956 -18.652  0.00  0.00    +0.176 HD
ENDBRANCH   3  12
BRANCH   5  24
ATOM     23  F   UNL     1      36.792 -20.966 -19.231  0.00  0.00    -0.204 F 
ATOM     24  C   UNL     1      35.365 -17.962 -21.679  0.00  0.00    +0.027 C 
ATOM     25  C   UNL     1      34.481 -18.895 -21.137  0.00  0.00    +0.008 C 
ATOM     26  C   UNL     1      36.728 -18.046 -21.395  0.00  0.00    +0.005 C 
ATOM     27  C   UNL     1      34.959 -19.910 -20.310  0.00  0.00    +0.099 C 
ATOM     28  C   UNL     1      37.207 -19.060 -20.568  0.00  0.00    +0.030 C 
ATOM     29  C   UNL     1      36.322 -19.993 -20.025  0.00  0.00    +0.144 C 
BRANCH  27  33
ATOM     30  F   UNL     1      34.323 -22.200 -20.040  0.00  0.00    -0.166 F 
ATOM     31  F   UNL     1      33.951 -20.872 -18.367  0.00  0.00    -0.166 F 
ATOM     32  F   UNL     1      32.731 -20.725 -20.162  0.00  0.00    -0.166 F 
ATOM     33  C   UNL     1      34.013 -20.906 -19.731  0.00  0.00    +0.421 C 
ENDBRANCH  27  33
ENDBRANCH   5  24
TORSDOF 3
ENDMDL
MODEL 2
REMARK VINA RESULT:     -11.2      5.766     10.494
REMARK  Name = 25118925
REMARK  3 active torsions:
REMARK  status: ('A' for Active; 'I' for Inactive)
REMARK    1  A    between atoms: C_3  and  C_12
REMARK    2  A    between atoms: C_5  and  C_24
REMARK    3  A    between atoms: C_27  and  C_33
REMARK                            x       y       z     vdW  Elec       q    Type
REMARK                         _______ _______ _______ _____ _____    ______ ____
ROOT
ATOM      1  N   UNL     1      34.740 -19.052 -23.509  0.00  0.00    -0.279 N 
ATOM      2  N   UNL     1      34.412 -17.691 -21.785  0.00  0.00    -0.394 NA
ATOM      3  C   UNL     1      34.560 -18.943 -22.158  0.00  0.00    +0.160 C 
ATOM      4  C   UNL     1      34.704 -17.789 -24.030  0.00  0.00    +0.152 C 
ATOM      5  C   UNL     1      34.500 -16.967 -22.947  0.00  0.00    +0.130 C 
ATOM      6  C   UNL     1      34.932 -20.268 -24.263  0.00  0.00    +0.115 C 
ENDROOT
BRANCH   3  12
ATOM      7  N   UNL     1      34.811 -21.549 -18.723  0.00  0.00    -0.296 N 
ATOM      8  N   UNL     1      33.941 -23.180 -17.213  0.00  0.00    -0.233 NA
ATOM      9  N   UNL     1      37.091 -22.474 -14.812  0.00  0.00    -0.223 N 
ATOM     10  N   UNL     1      35.056 -23.751 -15.120  0.00  0.00    -0.232 NA
ATOM     11  N   UNL     1      37.818 -21.530 -15.438  0.00  0.00    -0.183 NA
ATOM     12  C   UNL     1      34.541 -20.154 -21.244  0.00  0.00    +0.070 C 
ATOM     13  C   UNL     1      33.486 -20.026 -20.136  0.00  0.00    +0.030 C 
ATOM     14  C   UNL     1      35.916 -20.424 -20.615  0.00  0.00    +0.030 C 
ATOM     15  C   UNL     1      33.466 -21.267 -19.244  0.00  0.00    +0.092 C 
ATOM     16  C   UNL     1      35.885 -21.661 -19.715  0.00  0.00    +0.092 C 
ATOM     17  C   UNL     1      34.898 -22.274 -17.529  0.00  0.00    +0.118 C 
ATOM     18  C   UNL     1      35.961 -22.081 -16.652  0.00  0.00    +0.152 C 
ATOM     19  C   UNL     1      35.968 -22.840 -15.494  0.00  0.00    +0.133 C 
ATOM     20  C   UNL     1      37.125 -21.295 -16.558  0.00  0.00    +0.105 C 
ATOM     21  C   UNL     1      34.078 -23.852 -16.046  0.00  0.00    +0.252 C 
ATOM     22  H   UNL     1      37.344 -22.863 -13.945  0.00  0.00    +0.176 HD
ENDBRANCH   3  12
BRANCH   5  24
ATOM     23  F   UNL     1      34.082 -11.428 -23.182  0.00  0.00    -0.204 F 
ATOM     24  C   UNL     1      34.392 -15.542 -23.011  0.00  0.00    +0.027 C 
ATOM     25  C   UNL     1      33.970 -14.926 -24.188  0.00  0.00    +0.008 C 
ATOM     26  C   UNL     1      34.707 -14.769 -21.893  0.00  0.00    +0.005 C 
ATOM     27  C   UNL     1      33.864 -13.537 -24.250  0.00  0.00    +0.099 C 
ATOM     28  C   UNL     1      34.602 -13.380 -21.954  0.00  0.00    +0.030 C 
ATOM     29  C   UNL     1      34.180 -12.764 -23.133  0.00  0.00    +0.144 C 
BRANCH  27  33
ATOM     30  F   UNL     1      33.495 -11.516 -25.475  0.00  0.00    -0.166 F 
ATOM     31  F   UNL     1      34.136 -13.250 -26.609  0.00  0.00    -0.166 F 
ATOM     32  F   UNL     1      32.113 -13.160 -25.814  0.00  0.00    -0.166 F 
ATOM     33  C   UNL     1      33.414 -12.880 -25.510  0.00  0.00    +0.421 C 
ENDBRANCH  27  33
ENDBRANCH   5  24
TORSDOF 3
ENDMDL
MODEL 3
REMARK VINA RESULT:     -11.2      3.394      6.103
REMARK  Name = 25118925
REMARK  3 active torsions:
REMARK  status: ('A' for Active; 'I' for Inactive)
REMARK    1  A    between atoms: C_3  and  C_12
REMARK    2  A    between atoms: C_5  and  C_24
REMARK    3  A    between atoms: C_27  and  C_33
REMARK                            x       y       z     vdW  Elec       q    Type
REMARK                         _______ _______ _______ _____ _____    ______ ____
ROOT
ATOM      1  N   UNL     1      31.909 -10.985 -21.000  0.00  0.00    -0.279 N 
ATOM      2  N   UNL     1      33.125 -11.047 -22.858  0.00  0.00    -0.394 NA
ATOM      3  C   UNL     1      32.519 -10.266 -21.990  0.00  0.00    +0.160 C 
ATOM      4  C   UNL     1      32.142 -12.308 -21.252  0.00  0.00    +0.152 C 
ATOM      5  C   UNL     1      32.894 -12.321 -22.402  0.00  0.00    +0.130 C 
ATOM      6  C   UNL     1      31.154 -10.461 -19.887  0.00  0.00    +0.115 C 
ENDROOT
BRANCH   3  12
ATOM      7  N   UNL     1      32.572  -6.155 -23.313  0.00  0.00    -0.296 N 
ATOM      8  N   UNL     1      31.640  -3.968 -23.519  0.00  0.00    -0.233 NA
ATOM      9  N   UNL     1      34.530  -3.111 -26.184  0.00  0.00    -0.223 N 
ATOM     10  N   UNL     1      32.587  -2.278 -25.002  0.00  0.00    -0.232 NA
ATOM     11  N   UNL     1      35.270  -4.230 -26.287  0.00  0.00    -0.183 NA
ATOM     12  C   UNL     1      32.470  -8.751 -22.037  0.00  0.00    +0.070 C 
ATOM     13  C   UNL     1      31.315  -8.236 -22.909  0.00  0.00    +0.030 C 
ATOM     14  C   UNL     1      33.793  -8.145 -22.527  0.00  0.00    +0.030 C 
ATOM     15  C   UNL     1      31.268  -6.708 -22.919  0.00  0.00    +0.092 C 
ATOM     16  C   UNL     1      33.734  -6.617 -22.546  0.00  0.00    +0.092 C 
ATOM     17  C   UNL     1      32.583  -4.874 -23.876  0.00  0.00    +0.118 C 
ATOM     18  C   UNL     1      33.554  -4.509 -24.803  0.00  0.00    +0.152 C 
ATOM     19  C   UNL     1      33.490  -3.223 -25.310  0.00  0.00    +0.133 C 
ATOM     20  C   UNL     1      34.671  -5.078 -25.444  0.00  0.00    +0.105 C 
ATOM     21  C   UNL     1      31.701  -2.744 -24.096  0.00  0.00    +0.252 C 
ATOM     22  H   UNL     1      34.722  -2.289 -26.690  0.00  0.00    +0.176 HD
ENDBRANCH   3  12
BRANCH   5  24
ATOM     23  F   UNL     1      34.766 -16.904 -24.933  0.00  0.00    -0.204 F 
ATOM     24  C   UNL     1      33.377 -13.500 -23.051  0.00  0.00    +0.027 C 
ATOM     25  C   UNL     1      34.036 -14.483 -22.312  0.00  0.00    +0.008 C 
ATOM     26  C   UNL     1      33.188 -13.669 -24.422  0.00  0.00    +0.005 C 
ATOM     27  C   UNL     1      34.507 -15.634 -22.945  0.00  0.00    +0.099 C 
ATOM     28  C   UNL     1      33.658 -14.819 -25.056  0.00  0.00    +0.030 C 
ATOM     29  C   UNL     1      34.317 -15.801 -24.316  0.00  0.00    +0.144 C 
BRANCH  27  33
ATOM     30  F   UNL     1      34.576 -17.892 -22.161  0.00  0.00    -0.166 F 
ATOM     31  F   UNL     1      36.477 -16.943 -22.596  0.00  0.00    -0.166 F 
ATOM     32  F   UNL     1      35.344 -16.347 -20.837  0.00  0.00    -0.166 F 
ATOM     33  C   UNL     1      35.212 -16.683 -22.153  0.00  0.00    +0.421 C 
ENDBRANCH  27  33
ENDBRANCH   5  24
TORSDOF 3
ENDMDL
MODEL 4
REMARK VINA RESULT:     -10.7      2.304      4.059
REMARK  Name = 25118925
REMARK  3 active torsions:
REMARK  status: ('A' for Active; 'I' for Inactive)
REMARK    1  A    between atoms: C_3  and  C_12
REMARK    2  A    between atoms: C_5  and  C_24
REMARK    3  A    between atoms: C_27  and  C_33
REMARK                            x       y       z     vdW  Elec       q    Type
REMARK                         _______ _______ _______ _____ _____    ______ ____
ROOT
ATOM      1  N   UNL     1      33.471 -12.736 -24.867  0.00  0.00    -0.279 N 
ATOM      2  N   UNL     1      34.158 -13.687 -22.981  0.00  0.00    -0.394 NA
ATOM      3  C   UNL     1      33.823 -12.554 -23.558  0.00  0.00    +0.160 C 
ATOM      4  C   UNL     1      33.588 -14.070 -25.141  0.00  0.00    +0.152 C 
ATOM      5  C   UNL     1      34.013 -14.636 -23.962  0.00  0.00    +0.130 C 
ATOM      6  C   UNL     1      33.051 -11.719 -25.801  0.00  0.00    +0.115 C 
ENDROOT
BRANCH   3  12
ATOM      7  N   UNL     1      33.163  -8.374 -22.692  0.00  0.00    -0.296 N 
ATOM      8  N   UNL     1      32.402  -6.573 -21.325  0.00  0.00    -0.233 NA
ATOM      9  N   UNL     1      32.913  -4.118 -24.470  0.00  0.00    -0.223 N 
ATOM     10  N   UNL     1      32.228  -4.285 -22.153  0.00  0.00    -0.232 NA
ATOM     11  N   UNL     1      33.367  -4.898 -25.468  0.00  0.00    -0.183 NA
ATOM     12  C   UNL     1      33.813 -11.187 -22.901  0.00  0.00    +0.070 C 
ATOM     13  C   UNL     1      32.389 -10.711 -22.578  0.00  0.00    +0.030 C 
ATOM     14  C   UNL     1      34.527 -10.129 -23.755  0.00  0.00    +0.030 C 
ATOM     15  C   UNL     1      32.404  -9.346 -21.892  0.00  0.00    +0.092 C 
ATOM     16  C   UNL     1      34.527  -8.763 -23.067  0.00  0.00    +0.092 C 
ATOM     17  C   UNL     1      32.855  -7.020 -22.521  0.00  0.00    +0.118 C 
ATOM     18  C   UNL     1      33.009  -6.115 -23.566  0.00  0.00    +0.152 C 
ATOM     19  C   UNL     1      32.681  -4.795 -23.310  0.00  0.00    +0.133 C 
ATOM     20  C   UNL     1      33.424  -6.113 -24.911  0.00  0.00    +0.105 C 
ATOM     21  C   UNL     1      32.121  -5.253 -21.217  0.00  0.00    +0.252 C 
ATOM     22  H   UNL     1      32.761  -3.150 -24.568  0.00  0.00    +0.176 HD
ENDBRANCH   3  12
BRANCH   5  24
ATOM     23  F   UNL     1      35.021 -20.054 -23.228  0.00  0.00    -0.204 F 
ATOM     24  C   UNL     1      34.274 -16.029 -23.771  0.00  0.00    +0.027 C 
ATOM     25  C   UNL     1      35.015 -16.456 -22.669  0.00  0.00    +0.008 C 
ATOM     26  C   UNL     1      33.786 -16.962 -24.686  0.00  0.00    +0.005 C 
ATOM     27  C   UNL     1      35.269 -17.814 -22.482  0.00  0.00    +0.099 C 
ATOM     28  C   UNL     1      34.040 -18.320 -24.501  0.00  0.00    +0.030 C 
ATOM     29  C   UNL     1      34.782 -18.746 -23.398  0.00  0.00    +0.144 C 
BRANCH  27  33
ATOM     30  F   UNL     1      35.649 -19.467 -20.796  0.00  0.00    -0.166 F 
ATOM     31  F   UNL     1      37.391 -18.434 -21.570  0.00  0.00    -0.166 F 
ATOM     32  F   UNL     1      36.003 -17.389 -20.261  0.00  0.00    -0.166 F 
ATOM     33  C   UNL     1      36.062 -18.268 -21.304  0.00  0.00    +0.421 C 
ENDBRANCH  27  33
ENDBRANCH   5  24
TORSDOF 3
ENDMDL
MODEL 5
REMARK VINA RESULT:     -10.7      3.811      6.441
REMARK  Name = 25118925
REMARK  3 active torsions:
REMARK  status: ('A' for Active; 'I' for Inactive)
REMARK    1  A    between atoms: C_3  and  C_12
REMARK    2  A    between atoms: C_5  and  C_24
REMARK    3  A    between atoms: C_27  and  C_33
REMARK                            x       y       z     vdW  Elec       q    Type
REMARK                         _______ _______ _______ _____ _____    ______ ____
ROOT
ATOM      1  N   UNL     1      31.684 -10.646 -20.288  0.00  0.00    -0.279 N 
ATOM      2  N   UNL     1      33.033 -10.864 -22.039  0.00  0.00    -0.394 NA
ATOM      3  C   UNL     1      32.305 -10.024 -21.335  0.00  0.00    +0.160 C 
ATOM      4  C   UNL     1      32.038 -11.965 -20.325  0.00  0.00    +0.152 C 
ATOM      5  C   UNL     1      32.871 -12.075 -21.414  0.00  0.00    +0.130 C 
ATOM      6  C   UNL     1      30.811 -10.036 -19.313  0.00  0.00    +0.115 C 
ENDROOT
BRANCH   3  12
ATOM      7  N   UNL     1      32.259  -6.135 -23.213  0.00  0.00    -0.296 N 
ATOM      8  N   UNL     1      31.203  -4.105 -23.891  0.00  0.00    -0.233 NA
ATOM      9  N   UNL     1      34.452  -3.292 -26.120  0.00  0.00    -0.223 N 
ATOM     10  N   UNL     1      32.263  -2.528 -25.421  0.00  0.00    -0.232 NA
ATOM     11  N   UNL     1      35.289  -4.329 -25.932  0.00  0.00    -0.183 NA
ATOM     12  C   UNL     1      32.140  -8.542 -21.609  0.00  0.00    +0.070 C 
ATOM     13  C   UNL     1      31.126  -8.270 -22.730  0.00  0.00    +0.030 C 
ATOM     14  C   UNL     1      33.476  -7.865 -21.950  0.00  0.00    +0.030 C 
ATOM     15  C   UNL     1      30.956  -6.770 -22.971  0.00  0.00    +0.092 C 
ATOM     16  C   UNL     1      33.295  -6.367 -22.201  0.00  0.00    +0.092 C 
ATOM     17  C   UNL     1      32.267  -4.943 -23.947  0.00  0.00    +0.118 C 
ATOM     18  C   UNL     1      33.359  -4.598 -24.738  0.00  0.00    +0.152 C 
ATOM     19  C   UNL     1      33.282  -3.402 -25.429  0.00  0.00    +0.133 C 
ATOM     20  C   UNL     1      34.617  -5.122 -25.089  0.00  0.00    +0.105 C 
ATOM     21  C   UNL     1      31.267  -2.966 -24.621  0.00  0.00    +0.252 C 
ATOM     22  H   UNL     1      34.665  -2.526 -26.701  0.00  0.00    +0.176 HD
ENDBRANCH   3  12
BRANCH   5  24
ATOM     23  F   UNL     1      35.292 -16.789 -23.096  0.00  0.00    -0.204 F 
ATOM     24  C   UNL     1      33.492 -13.288 -21.849  0.00  0.00    +0.027 C 
ATOM     25  C   UNL     1      33.333 -13.720 -23.166  0.00  0.00    +0.008 C 
ATOM     26  C   UNL     1      34.259 -14.037 -20.957  0.00  0.00    +0.005 C 
ATOM     27  C   UNL     1      33.939 -14.902 -23.590  0.00  0.00    +0.099 C 
ATOM     28  C   UNL     1      34.865 -15.219 -21.380  0.00  0.00    +0.030 C 
ATOM     29  C   UNL     1      34.705 -15.651 -22.698  0.00  0.00    +0.144 C 
BRANCH  27  33
ATOM     30  F   UNL     1      34.945 -15.657 -25.624  0.00  0.00    -0.166 F 
ATOM     31  F   UNL     1      33.011 -16.493 -25.115  0.00  0.00    -0.166 F 
ATOM     32  F   UNL     1      33.158 -14.429 -25.786  0.00  0.00    -0.166 F 
ATOM     33  C   UNL     1      33.768 -15.362 -24.998  0.00  0.00    +0.421 C 
ENDBRANCH  27  33
ENDBRANCH   5  24
TORSDOF 3
ENDMDL
MODEL 6
REMARK VINA RESULT:     -10.6      6.130     10.917
REMARK  Name = 25118925
REMARK  3 active torsions:
REMARK  status: ('A' for Active; 'I' for Inactive)
REMARK    1  A    between atoms: C_3  and  C_12
REMARK    2  A    between atoms: C_5  and  C_24
REMARK    3  A    between atoms: C_27  and  C_33
REMARK                            x       y       z     vdW  Elec       q    Type
REMARK                         _______ _______ _______ _____ _____    ______ ____
ROOT
ATOM      1  N   UNL     1      32.459 -11.327 -21.939  0.00  0.00    -0.279 N 
ATOM      2  N   UNL     1      33.581 -10.225 -23.507  0.00  0.00    -0.394 NA
ATOM      3  C   UNL     1      33.307 -11.411 -23.008  0.00  0.00    +0.160 C 
ATOM      4  C   UNL     1      32.174 -10.004 -21.744  0.00  0.00    +0.152 C 
ATOM      5  C   UNL     1      32.878  -9.345 -22.724  0.00  0.00    +0.130 C 
ATOM      6  C   UNL     1      31.948 -12.422 -21.149  0.00  0.00    +0.115 C 
ENDROOT
BRANCH   3  12
ATOM      7  N   UNL     1      34.208 -15.608 -23.486  0.00  0.00    -0.296 N 
ATOM      8  N   UNL     1      34.271 -17.649 -24.719  0.00  0.00    -0.233 NA
ATOM      9  N   UNL     1      35.201 -19.555 -21.300  0.00  0.00    -0.223 N 
ATOM     10  N   UNL     1      34.783 -19.793 -23.673  0.00  0.00    -0.232 NA
ATOM     11  N   UNL     1      35.242 -18.599 -20.353  0.00  0.00    -0.183 NA
ATOM     12  C   UNL     1      33.838 -12.737 -23.517  0.00  0.00    +0.070 C 
ATOM     13  C   UNL     1      32.709 -13.699 -23.913  0.00  0.00    +0.030 C 
ATOM     14  C   UNL     1      34.760 -13.420 -22.496  0.00  0.00    +0.030 C 
ATOM     15  C   UNL     1      33.267 -15.018 -24.448  0.00  0.00    +0.092 C 
ATOM     16  C   UNL     1      35.305 -14.744 -23.034  0.00  0.00    +0.092 C 
ATOM     17  C   UNL     1      34.399 -16.993 -23.540  0.00  0.00    +0.118 C 
ATOM     18  C   UNL     1      34.724 -17.715 -22.396  0.00  0.00    +0.152 C 
ATOM     19  C   UNL     1      34.895 -19.081 -22.541  0.00  0.00    +0.133 C 
ATOM     20  C   UNL     1      34.951 -17.481 -21.027  0.00  0.00    +0.105 C 
ATOM     21  C   UNL     1      34.468 -18.989 -24.712  0.00  0.00    +0.252 C 
ATOM     22  H   UNL     1      35.376 -20.505 -21.114  0.00  0.00    +0.176 HD
ENDBRANCH   3  12
BRANCH   5  24
ATOM     23  F   UNL     1      32.921  -3.834 -23.457  0.00  0.00    -0.204 F 
ATOM     24  C   UNL     1      32.886  -7.927 -22.911  0.00  0.00    +0.027 C 
ATOM     25  C   UNL     1      31.908  -7.137 -22.308  0.00  0.00    +0.008 C 
ATOM     26  C   UNL     1      33.876  -7.333 -23.695  0.00  0.00    +0.005 C 
ATOM     27  C   UNL     1      31.916  -5.755 -22.491  0.00  0.00    +0.099 C 
ATOM     28  C   UNL     1      33.885  -5.951 -23.879  0.00  0.00    +0.030 C 
ATOM     29  C   UNL     1      32.905  -5.162 -23.276  0.00  0.00    +0.144 C 
BRANCH  27  33
ATOM     30  F   UNL     1      29.967  -5.628 -21.110  0.00  0.00    -0.166 F 
ATOM     31  F   UNL     1      31.370  -3.979 -20.985  0.00  0.00    -0.166 F 
ATOM     32  F   UNL     1      30.125  -4.214 -22.753  0.00  0.00    -0.166 F 
ATOM     33  C   UNL     1      30.868  -4.912 -21.847  0.00  0.00    +0.421 C 
ENDBRANCH  27  33
ENDBRANCH   5  24
TORSDOF 3
ENDMDL
MODEL 7
REMARK VINA RESULT:     -10.4      3.467      5.783
REMARK  Name = 25118925
REMARK  3 active torsions:
REMARK  status: ('A' for Active; 'I' for Inactive)
REMARK    1  A    between atoms: C_3  and  C_12
REMARK    2  A    between atoms: C_5  and  C_24
REMARK    3  A    between atoms: C_27  and  C_33
REMARK                            x       y       z     vdW  Elec       q    Type
REMARK                         _______ _______ _______ _____ _____    ______ ____
ROOT
ATOM      1  N   UNL     1      32.038 -10.570 -21.206  0.00  0.00    -0.279 N 
ATOM      2  N   UNL     1      33.298 -11.293 -22.887  0.00  0.00    -0.394 NA
ATOM      3  C   UNL     1      32.612 -10.276 -22.412  0.00  0.00    +0.160 C 
ATOM      4  C   UNL     1      32.381 -11.856 -20.892  0.00  0.00    +0.152 C 
ATOM      5  C   UNL     1      33.158 -12.280 -21.944  0.00  0.00    +0.130 C 
ATOM      6  C   UNL     1      31.219  -9.697 -20.401  0.00  0.00    +0.115 C 
ENDROOT
BRANCH   3  12
ATOM      7  N   UNL     1      32.093  -6.052 -23.149  0.00  0.00    -0.296 N 
ATOM      8  N   UNL     1      32.713  -3.964 -24.123  0.00  0.00    -0.233 NA
ATOM      9  N   UNL     1      30.002  -2.178 -21.747  0.00  0.00    -0.223 N 
ATOM     10  N   UNL     1      31.680  -1.855 -23.463  0.00  0.00    -0.232 NA
ATOM     11  N   UNL     1      29.446  -3.168 -21.025  0.00  0.00    -0.183 NA
ATOM     12  C   UNL     1      32.445  -8.925 -23.079  0.00  0.00    +0.070 C 
ATOM     13  C   UNL     1      33.592  -7.963 -22.734  0.00  0.00    +0.030 C 
ATOM     14  C   UNL     1      31.102  -8.268 -22.728  0.00  0.00    +0.030 C 
ATOM     15  C   UNL     1      33.418  -6.618 -23.438  0.00  0.00    +0.092 C 
ATOM     16  C   UNL     1      30.941  -6.917 -23.426  0.00  0.00    +0.092 C 
ATOM     17  C   UNL     1      31.951  -4.663 -23.248  0.00  0.00    +0.118 C 
ATOM     18  C   UNL     1      31.032  -3.981 -22.457  0.00  0.00    +0.152 C 
ATOM     19  C   UNL     1      30.958  -2.609 -22.619  0.00  0.00    +0.133 C 
ATOM     20  C   UNL     1      30.077  -4.264 -21.462  0.00  0.00    +0.105 C 
ATOM     21  C   UNL     1      32.533  -2.623 -24.176  0.00  0.00    +0.252 C 
ATOM     22  H   UNL     1      29.744  -1.233 -21.655  0.00  0.00    +0.176 HD
ENDBRANCH   3  12
BRANCH   5  24
ATOM     23  F   UNL     1      35.456 -17.326 -22.358  0.00  0.00    -0.204 F 
ATOM     24  C   UNL     1      33.748 -13.578 -22.053  0.00  0.00    +0.027 C 
ATOM     25  C   UNL     1      33.709 -14.263 -23.268  0.00  0.00    +0.008 C 
ATOM     26  C   UNL     1      34.364 -14.159 -20.945  0.00  0.00    +0.005 C 
ATOM     27  C   UNL     1      34.285 -15.528 -23.374  0.00  0.00    +0.099 C 
ATOM     28  C   UNL     1      34.939 -15.425 -21.050  0.00  0.00    +0.030 C 
ATOM     29  C   UNL     1      34.900 -16.109 -22.266  0.00  0.00    +0.144 C 
BRANCH  27  33
ATOM     30  F   UNL     1      33.757 -17.532 -24.569  0.00  0.00    -0.166 F 
ATOM     31  F   UNL     1      33.457 -15.655 -25.614  0.00  0.00    -0.166 F 
ATOM     32  F   UNL     1      35.474 -16.383 -25.247  0.00  0.00    -0.166 F 
ATOM     33  C   UNL     1      34.242 -16.259 -24.674  0.00  0.00    +0.421 C 
ENDBRANCH  27  33
ENDBRANCH   5  24
TORSDOF 3
ENDMDL
MODEL 8
REMARK VINA RESULT:     -10.3      6.138     10.928
REMARK  Name = 25118925
REMARK  3 active torsions:
REMARK  status: ('A' for Active; 'I' for Inactive)
REMARK    1  A    between atoms: C_3  and  C_12
REMARK    2  A    between atoms: C_5  and  C_24
REMARK    3  A    between atoms: C_27  and  C_33
REMARK                            x       y       z     vdW  Elec       q    Type
REMARK                         _______ _______ _______ _____ _____    ______ ____
ROOT
ATOM      1  N   UNL     1      32.367 -11.515 -21.538  0.00  0.00    -0.279 N 
ATOM      2  N   UNL     1      33.392 -10.305 -23.094  0.00  0.00    -0.394 NA
ATOM      3  C   UNL     1      33.189 -11.520 -22.632  0.00  0.00    +0.160 C 
ATOM      4  C   UNL     1      32.025 -10.216 -21.288  0.00  0.00    +0.152 C 
ATOM      5  C   UNL     1      32.669  -9.489 -22.261  0.00  0.00    +0.130 C 
ATOM      6  C   UNL     1      31.932 -12.662 -20.777  0.00  0.00    +0.115 C 
ENDROOT
BRANCH   3  12
ATOM      7  N   UNL     1      34.202 -15.658 -23.339  0.00  0.00    -0.296 N 
ATOM      8  N   UNL     1      34.359 -17.614 -24.696  0.00  0.00    -0.233 NA
ATOM      9  N   UNL     1      35.198 -19.718 -21.371  0.00  0.00    -0.223 N 
ATOM     10  N   UNL     1      34.878 -19.810 -23.770  0.00  0.00    -0.232 NA
ATOM     11  N   UNL     1      35.180 -18.824 -20.364  0.00  0.00    -0.183 NA
ATOM     12  C   UNL     1      33.769 -12.799 -23.202  0.00  0.00    +0.070 C 
ATOM     13  C   UNL     1      32.678 -13.756 -23.704  0.00  0.00    +0.030 C 
ATOM     14  C   UNL     1      34.666 -13.529 -22.191  0.00  0.00    +0.030 C 
ATOM     15  C   UNL     1      33.286 -15.026 -24.299  0.00  0.00    +0.092 C 
ATOM     16  C   UNL     1      35.261 -14.804 -22.789  0.00  0.00    +0.092 C 
ATOM     17  C   UNL     1      34.427 -17.033 -23.474  0.00  0.00    +0.118 C 
ATOM     18  C   UNL     1      34.723 -17.821 -22.366  0.00  0.00    +0.152 C 
ATOM     19  C   UNL     1      34.930 -19.171 -22.591  0.00  0.00    +0.133 C 
ATOM     20  C   UNL     1      34.890 -17.671 -20.977  0.00  0.00    +0.105 C 
ATOM     21  C   UNL     1      34.586 -18.948 -24.767  0.00  0.00    +0.252 C 
ATOM     22  H   UNL     1      35.387 -20.675 -21.240  0.00  0.00    +0.176 HD
ENDBRANCH   3  12
BRANCH   5  24
ATOM     23  F   UNL     1      32.405  -3.959 -22.780  0.00  0.00    -0.204 F 
ATOM     24  C   UNL     1      32.604  -8.066 -22.397  0.00  0.00    +0.027 C 
ATOM     25  C   UNL     1      33.229  -7.438 -23.473  0.00  0.00    +0.008 C 
ATOM     26  C   UNL     1      31.911  -7.307 -21.453  0.00  0.00    +0.005 C 
ATOM     27  C   UNL     1      33.164  -6.051 -23.606  0.00  0.00    +0.099 C 
ATOM     28  C   UNL     1      31.847  -5.921 -21.584  0.00  0.00    +0.030 C 
ATOM     29  C   UNL     1      32.473  -5.293 -22.661  0.00  0.00    +0.144 C 
BRANCH  27  33
ATOM     30  F   UNL     1      34.647  -6.212 -25.476  0.00  0.00    -0.166 F 
ATOM     31  F   UNL     1      32.962  -4.860 -25.669  0.00  0.00    -0.166 F 
ATOM     32  F   UNL     1      34.628  -4.340 -24.370  0.00  0.00    -0.166 F 
ATOM     33  C   UNL     1      33.835  -5.381 -24.757  0.00  0.00    +0.421 C 
ENDBRANCH  27  33
ENDBRANCH   5  24
TORSDOF 3
ENDMDL
MODEL 9
REMARK VINA RESULT:     -10.2      2.870      5.139
REMARK  Name = 25118925
REMARK  3 active torsions:
REMARK  status: ('A' for Active; 'I' for Inactive)
REMARK    1  A    between atoms: C_3  and  C_12
REMARK    2  A    between atoms: C_5  and  C_24
REMARK    3  A    between atoms: C_27  and  C_33
REMARK                            x       y       z     vdW  Elec       q    Type
REMARK                         _______ _______ _______ _____ _____    ______ ____
ROOT
ATOM      1  N   UNL     1      32.443 -11.030 -21.597  0.00  0.00    -0.279 N 
ATOM      2  N   UNL     1      33.400 -11.681 -23.494  0.00  0.00    -0.394 NA
ATOM      3  C   UNL     1      32.858 -10.670 -22.850  0.00  0.00    +0.160 C 
ATOM      4  C   UNL     1      32.740 -12.354 -21.432  0.00  0.00    +0.152 C 
ATOM      5  C   UNL     1      33.330 -12.733 -22.615  0.00  0.00    +0.130 C 
ATOM      6  C   UNL     1      31.807 -10.182 -20.618  0.00  0.00    +0.115 C 
ENDROOT
BRANCH   3  12
ATOM      7  N   UNL     1      32.255  -6.406 -23.180  0.00  0.00    -0.296 N 
ATOM      8  N   UNL     1      32.867  -4.214 -23.898  0.00  0.00    -0.233 NA
ATOM      9  N   UNL     1      29.976  -2.749 -21.514  0.00  0.00    -0.223 N 
ATOM     10  N   UNL     1      31.737  -2.210 -23.087  0.00  0.00    -0.232 NA
ATOM     11  N   UNL     1      29.410  -3.822 -20.931  0.00  0.00    -0.183 NA
ATOM     12  C   UNL     1      32.688  -9.261 -23.384  0.00  0.00    +0.070 C 
ATOM     13  C   UNL     1      33.785  -8.314 -22.876  0.00  0.00    +0.030 C 
ATOM     14  C   UNL     1      31.309  -8.676 -23.046  0.00  0.00    +0.030 C 
ATOM     15  C   UNL     1      33.611  -6.907 -23.447  0.00  0.00    +0.092 C 
ATOM     16  C   UNL     1      31.146  -7.265 -23.611  0.00  0.00    +0.092 C 
ATOM     17  C   UNL     1      32.078  -5.018 -23.144  0.00  0.00    +0.118 C 
ATOM     18  C   UNL     1      31.097  -4.444 -22.343  0.00  0.00    +0.152 C 
ATOM     19  C   UNL     1      30.991  -3.064 -22.368  0.00  0.00    +0.133 C 
ATOM     20  C   UNL     1      30.097  -4.851 -21.440  0.00  0.00    +0.105 C 
ATOM     21  C   UNL     1      32.650  -2.879 -23.823  0.00  0.00    +0.252 C 
ATOM     22  H   UNL     1      29.685  -1.825 -21.341  0.00  0.00    +0.176 HD
ENDBRANCH   3  12
BRANCH   5  24
ATOM     23  F   UNL     1      35.190 -17.847 -23.754  0.00  0.00    -0.204 F 
ATOM     24  C   UNL     1      33.810 -14.049 -22.905  0.00  0.00    +0.027 C 
ATOM     25  C   UNL     1      34.326 -14.845 -21.883  0.00  0.00    +0.008 C 
ATOM     26  C   UNL     1      33.758 -14.537 -24.211  0.00  0.00    +0.005 C 
ATOM     27  C   UNL     1      34.794 -16.128 -22.166  0.00  0.00    +0.099 C 
ATOM     28  C   UNL     1      34.226 -15.819 -24.495  0.00  0.00    +0.030 C 
ATOM     29  C   UNL     1      34.743 -16.615 -23.472  0.00  0.00    +0.144 C 
BRANCH  27  33
ATOM     30  F   UNL     1      34.612 -18.102 -20.829  0.00  0.00    -0.166 F 
ATOM     31  F   UNL     1      36.614 -17.425 -21.316  0.00  0.00    -0.166 F 
ATOM     32  F   UNL     1      35.414 -16.318 -19.879  0.00  0.00    -0.166 F 
ATOM     33  C   UNL     1      35.347 -16.976 -21.072  0.00  0.00    +0.421 C 
ENDBRANCH  27  33
ENDBRANCH   5  24
TORSDOF 3
ENDMDL
