MODEL 1
REMARK VINA RESULT:     -12.1      0.000      0.000
REMARK  Name = 448903
REMARK  11 active torsions:
REMARK  status: ('A' for Active; 'I' for Inactive)
REMARK    1  A    between atoms: N_1  and  C_22
REMARK    2  A    between atoms: C_8  and  N_11
REMARK    3  A    between atoms: C_12  and  C_14
REMARK    4  A    between atoms: C_14  and  C_15
REMARK    5  A    between atoms: C_15  and  C_16
REMARK    6  A    between atoms: C_22  and  C_23
REMARK    7  A    between atoms: C_23  and  C_24
REMARK    8  A    between atoms: C_24  and  N_25
REMARK    9  A    between atoms: C_24  and  C_35
REMARK   10  A    between atoms: C_29  and  C_32
REMARK   11  A    between atoms: C_35  and  O_36
REMARK                            x       y       z     vdW  Elec       q    Type
REMARK                         _______ _______ _______ _____ _____    ______ ____
ROOT
ATOM      1  N   UNL     1      32.530 -24.680 -13.566  0.00  0.00    -0.286 N 
ATOM      2  C   UNL     1      31.948 -23.955 -14.582  0.00  0.00    +0.053 C 
ATOM      3  C   UNL     1      30.569 -23.969 -14.357  0.00  0.00    +0.015 C 
ATOM      4  C   UNL     1      31.570 -25.148 -12.710  0.00  0.00    +0.065 C 
ATOM      5  C   UNL     1      30.347 -24.725 -13.173  0.00  0.00    +0.017 C 
ATOM      6  C   UNL     1      32.530 -23.295 -15.670  0.00  0.00    +0.029 C 
ATOM      7  C   UNL     1      29.729 -23.291 -15.264  0.00  0.00    +0.003 C 
ATOM      8  C   UNL     1      31.676 -22.630 -16.555  0.00  0.00    +0.052 C 
ATOM      9  C   UNL     1      30.297 -22.627 -16.356  0.00  0.00    +0.015 C 
ENDROOT
BRANCH   8  11
ATOM     10  O   UNL     1      33.835 -23.455 -18.478  0.00  0.00    -0.275 OA
ATOM     11  N   UNL     1      32.216 -21.958 -17.653  0.00  0.00    -0.284 N 
ATOM     12  C   UNL     1      33.217 -22.395 -18.529  0.00  0.00    +0.226 C 
ATOM     13  H   UNL     1      31.847 -21.063 -17.834  0.00  0.00    +0.155 HD
BRANCH  12  14
ATOM     14  C   UNL     1      33.535 -21.372 -19.608  0.00  0.00    +0.090 C 
BRANCH  14  15
ATOM     15  C   UNL     1      34.981 -20.883 -19.513  0.00  0.00    +0.036 C 
BRANCH  15  16
ATOM     16  C   UNL     1      35.334 -19.855 -20.560  0.00  0.00    -0.022 C 
ATOM     17  C   UNL     1      36.567 -19.204 -20.512  0.00  0.00    -0.004 C 
ATOM     18  C   UNL     1      34.428 -19.556 -21.578  0.00  0.00    -0.004 C 
ATOM     19  C   UNL     1      36.893 -18.254 -21.479  0.00  0.00    -0.000 C 
ATOM     20  C   UNL     1      34.754 -18.605 -22.545  0.00  0.00    -0.000 C 
ATOM     21  C   UNL     1      35.987 -17.954 -22.496  0.00  0.00    -0.000 C 
ENDBRANCH  15  16
ENDBRANCH  14  15
ENDBRANCH  12  14
ENDBRANCH   8  11
BRANCH   1  22
ATOM     22  C   UNL     1      33.949 -24.920 -13.411  0.00  0.00    +0.097 C 
BRANCH  22  23
ATOM     23  C   UNL     1      34.629 -24.033 -12.360  0.00  0.00    +0.040 C 
BRANCH  23  24
ATOM     24  C   UNL     1      35.941 -24.600 -11.773  0.00  0.00    +0.091 C 
BRANCH  24  25
ATOM     25  N   UNL     1      37.072 -24.565 -12.715  0.00  0.00    -0.246 NA
ATOM     26  N   UNL     1      38.510 -23.952 -14.293  0.00  0.00    -0.251 NA
ATOM     27  C   UNL     1      38.048 -25.519 -12.861  0.00  0.00    +0.125 C 
ATOM     28  C   UNL     1      37.380 -23.635 -13.591  0.00  0.00    +0.201 C 
ATOM     29  C   UNL     1      38.951 -25.161 -13.834  0.00  0.00    +0.124 C 
BRANCH  29  32
ATOM     30  O   UNL     1      40.504 -25.823 -15.490  0.00  0.00    -0.269 OA
ATOM     31  N   UNL     1      40.850 -26.591 -13.372  0.00  0.00    -0.324 N 
ATOM     32  C   UNL     1      40.105 -25.853 -14.300  0.00  0.00    +0.257 C 
ATOM     33  H   UNL     1      41.653 -27.080 -13.663  0.00  0.00    +0.145 HD
ATOM     34  H   UNL     1      40.570 -26.620 -12.428  0.00  0.00    +0.145 HD
ENDBRANCH  29  32
ENDBRANCH  24  25
BRANCH  24  35
ATOM     35  C   UNL     1      36.307 -23.875 -10.467  0.00  0.00    +0.153 C 
BRANCH  35  36
ATOM     36  O   UNL     1      35.549 -24.414  -9.390  0.00  0.00    -0.381 OA
ATOM     37  H   UNL     1      34.840 -23.795  -9.152  0.00  0.00    +0.210 HD
ENDBRANCH  35  36
ENDBRANCH  24  35
ENDBRANCH  23  24
ENDBRANCH  22  23
ENDBRANCH   1  22
TORSDOF 11
ENDMDL
MODEL 2
REMARK VINA RESULT:     -11.7      3.482      7.395
REMARK  Name = 448903
REMARK  11 active torsions:
REMARK  status: ('A' for Active; 'I' for Inactive)
REMARK    1  A    between atoms: N_1  and  C_22
REMARK    2  A    between atoms: C_8  and  N_11
REMARK    3  A    between atoms: C_12  and  C_14
REMARK    4  A    between atoms: C_14  and  C_15
REMARK    5  A    between atoms: C_15  and  C_16
REMARK    6  A    between atoms: C_22  and  C_23
REMARK    7  A    between atoms: C_23  and  C_24
REMARK    8  A    between atoms: C_24  and  N_25
REMARK    9  A    between atoms: C_24  and  C_35
REMARK   10  A    between atoms: C_29  and  C_32
REMARK   11  A    between atoms: C_35  and  O_36
REMARK                            x       y       z     vdW  Elec       q    Type
REMARK                         _______ _______ _______ _____ _____    ______ ____
ROOT
ATOM      1  N   UNL     1      33.867 -23.268 -15.725  0.00  0.00    -0.286 N 
ATOM      2  C   UNL     1      34.588 -22.605 -16.693  0.00  0.00    +0.053 C 
ATOM      3  C   UNL     1      35.914 -22.558 -16.254  0.00  0.00    +0.015 C 
ATOM      4  C   UNL     1      34.687 -23.641 -14.696  0.00  0.00    +0.065 C 
ATOM      5  C   UNL     1      35.961 -23.216 -14.994  0.00  0.00    +0.017 C 
ATOM      6  C   UNL     1      34.174 -22.049 -17.908  0.00  0.00    +0.029 C 
ATOM      7  C   UNL     1      36.875 -21.925 -17.069  0.00  0.00    +0.003 C 
ATOM      8  C   UNL     1      35.145 -21.427 -18.699  0.00  0.00    +0.052 C 
ATOM      9  C   UNL     1      36.475 -21.366 -18.287  0.00  0.00    +0.015 C 
ENDROOT
BRANCH   8  11
ATOM     10  O   UNL     1      36.080 -18.907 -20.046  0.00  0.00    -0.275 OA
ATOM     11  N   UNL     1      34.774 -20.861 -19.920  0.00  0.00    -0.284 N 
ATOM     12  C   UNL     1      35.253 -19.686 -20.511  0.00  0.00    +0.226 C 
ATOM     13  H   UNL     1      34.088 -21.350 -20.430  0.00  0.00    +0.155 HD
BRANCH  12  14
ATOM     14  C   UNL     1      34.598 -19.400 -21.853  0.00  0.00    +0.090 C 
BRANCH  14  15
ATOM     15  C   UNL     1      35.530 -18.619 -22.781  0.00  0.00    +0.036 C 
BRANCH  15  16
ATOM     16  C   UNL     1      34.964 -17.289 -23.217  0.00  0.00    -0.022 C 
ATOM     17  C   UNL     1      34.276 -17.187 -24.426  0.00  0.00    -0.004 C 
ATOM     18  C   UNL     1      35.128 -16.163 -22.410  0.00  0.00    -0.004 C 
ATOM     19  C   UNL     1      33.753 -15.958 -24.829  0.00  0.00    -0.000 C 
ATOM     20  C   UNL     1      34.604 -14.935 -22.813  0.00  0.00    -0.000 C 
ATOM     21  C   UNL     1      33.917 -14.832 -24.022  0.00  0.00    -0.000 C 
ENDBRANCH  15  16
ENDBRANCH  14  15
ENDBRANCH  12  14
ENDBRANCH   8  11
BRANCH   1  22
ATOM     22  C   UNL     1      32.446 -23.539 -15.775  0.00  0.00    +0.097 C 
BRANCH  22  23
ATOM     23  C   UNL     1      31.628 -22.824 -14.692  0.00  0.00    +0.040 C 
BRANCH  23  24
ATOM     24  C   UNL     1      30.356 -23.571 -14.230  0.00  0.00    +0.091 C 
BRANCH  24  25
ATOM     25  N   UNL     1      29.249 -23.503 -15.198  0.00  0.00    -0.246 NA
ATOM     26  N   UNL     1      27.807 -23.974 -16.820  0.00  0.00    -0.251 NA
ATOM     27  C   UNL     1      28.352 -22.474 -15.347  0.00  0.00    +0.125 C 
ATOM     28  C   UNL     1      28.892 -24.390 -16.100  0.00  0.00    +0.201 C 
ATOM     29  C   UNL     1      27.448 -22.743 -16.348  0.00  0.00    +0.124 C 
BRANCH  29  32
ATOM     30  O   UNL     1      25.569 -21.334 -16.078  0.00  0.00    -0.269 OA
ATOM     31  N   UNL     1      26.182 -21.854 -18.211  0.00  0.00    -0.324 N 
ATOM     32  C   UNL     1      26.361 -21.957 -16.826  0.00  0.00    +0.257 C 
ATOM     33  H   UNL     1      25.441 -21.318 -18.573  0.00  0.00    +0.145 HD
ATOM     34  H   UNL     1      26.799 -22.319 -18.823  0.00  0.00    +0.145 HD
ENDBRANCH  29  32
ENDBRANCH  24  25
BRANCH  24  35
ATOM     35  C   UNL     1      30.681 -25.035 -13.889  0.00  0.00    +0.153 C 
BRANCH  35  36
ATOM     36  O   UNL     1      30.781 -25.187 -12.478  0.00  0.00    -0.381 OA
ATOM     37  H   UNL     1      31.394 -25.911 -12.273  0.00  0.00    +0.210 HD
ENDBRANCH  35  36
ENDBRANCH  24  35
ENDBRANCH  23  24
ENDBRANCH  22  23
ENDBRANCH   1  22
TORSDOF 11
ENDMDL
MODEL 3
REMARK VINA RESULT:     -11.5      2.877      6.932
REMARK  Name = 448903
REMARK  11 active torsions:
REMARK  status: ('A' for Active; 'I' for Inactive)
REMARK    1  A    between atoms: N_1  and  C_22
REMARK    2  A    between atoms: C_8  and  N_11
REMARK    3  A    between atoms: C_12  and  C_14
REMARK    4  A    between atoms: C_14  and  C_15
REMARK    5  A    between atoms: C_15  and  C_16
REMARK    6  A    between atoms: C_22  and  C_23
REMARK    7  A    between atoms: C_23  and  C_24
REMARK    8  A    between atoms: C_24  and  N_25
REMARK    9  A    between atoms: C_24  and  C_35
REMARK   10  A    between atoms: C_29  and  C_32
REMARK   11  A    between atoms: C_35  and  O_36
REMARK                            x       y       z     vdW  Elec       q    Type
REMARK                         _______ _______ _______ _____ _____    ______ ____
ROOT
ATOM      1  N   UNL     1      34.409 -24.116 -14.117  0.00  0.00    -0.286 N 
ATOM      2  C   UNL     1      35.385 -23.431 -14.806  0.00  0.00    +0.053 C 
ATOM      3  C   UNL     1      36.579 -23.599 -14.101  0.00  0.00    +0.015 C 
ATOM      4  C   UNL     1      34.944 -24.709 -13.006  0.00  0.00    +0.065 C 
ATOM      5  C   UNL     1      36.285 -24.408 -12.968  0.00  0.00    +0.017 C 
ATOM      6  C   UNL     1      35.302 -22.684 -15.987  0.00  0.00    +0.029 C 
ATOM      7  C   UNL     1      37.750 -22.991 -14.598  0.00  0.00    +0.003 C 
ATOM      8  C   UNL     1      36.477 -22.091 -16.460  0.00  0.00    +0.052 C 
ATOM      9  C   UNL     1      37.683 -22.242 -15.778  0.00  0.00    +0.015 C 
ENDROOT
BRANCH   8  11
ATOM     10  O   UNL     1      35.000 -22.568 -19.035  0.00  0.00    -0.275 OA
ATOM     11  N   UNL     1      36.439 -21.339 -17.635  0.00  0.00    -0.284 N 
ATOM     12  C   UNL     1      35.719 -21.600 -18.808  0.00  0.00    +0.226 C 
ATOM     13  H   UNL     1      36.987 -20.521 -17.640  0.00  0.00    +0.155 HD
BRANCH  12  14
ATOM     14  C   UNL     1      35.939 -20.539 -19.875  0.00  0.00    +0.090 C 
BRANCH  14  15
ATOM     15  C   UNL     1      34.619 -20.080 -20.494  0.00  0.00    +0.036 C 
BRANCH  15  16
ATOM     16  C   UNL     1      34.778 -18.923 -21.452  0.00  0.00    -0.022 C 
ATOM     17  C   UNL     1      35.306 -17.714 -21.003  0.00  0.00    -0.004 C 
ATOM     18  C   UNL     1      34.397 -19.066 -22.786  0.00  0.00    -0.004 C 
ATOM     19  C   UNL     1      35.453 -16.645 -21.888  0.00  0.00    -0.000 C 
ATOM     20  C   UNL     1      34.543 -17.998 -23.671  0.00  0.00    -0.000 C 
ATOM     21  C   UNL     1      35.071 -16.787 -23.222  0.00  0.00    -0.000 C 
ENDBRANCH  15  16
ENDBRANCH  14  15
ENDBRANCH  12  14
ENDBRANCH   8  11
BRANCH   1  22
ATOM     22  C   UNL     1      33.016 -24.206 -14.499  0.00  0.00    +0.097 C 
BRANCH  22  23
ATOM     23  C   UNL     1      32.159 -23.016 -14.045  0.00  0.00    +0.040 C 
BRANCH  23  24
ATOM     24  C   UNL     1      30.682 -23.352 -13.736  0.00  0.00    +0.091 C 
BRANCH  24  25
ATOM     25  N   UNL     1      29.752 -22.955 -14.807  0.00  0.00    -0.246 NA
ATOM     26  N   UNL     1      28.880 -22.406 -16.774  0.00  0.00    -0.251 NA
ATOM     27  C   UNL     1      28.411 -22.697 -14.673  0.00  0.00    +0.125 C 
ATOM     28  C   UNL     1      30.002 -22.771 -16.083  0.00  0.00    +0.201 C 
ATOM     29  C   UNL     1      27.848 -22.354 -15.880  0.00  0.00    +0.124 C 
BRANCH  29  32
ATOM     30  O   UNL     1      25.569 -22.016 -15.348  0.00  0.00    -0.269 OA
ATOM     31  N   UNL     1      26.203 -21.631 -17.503  0.00  0.00    -0.324 N 
ATOM     32  C   UNL     1      26.500 -22.013 -16.189  0.00  0.00    +0.257 C 
ATOM     33  H   UNL     1      25.280 -21.389 -17.749  0.00  0.00    +0.145 HD
ATOM     34  H   UNL     1      26.916 -21.604 -18.182  0.00  0.00    +0.145 HD
ENDBRANCH  29  32
ENDBRANCH  24  25
BRANCH  24  35
ATOM     35  C   UNL     1      30.523 -24.847 -13.413  0.00  0.00    +0.153 C 
BRANCH  35  36
ATOM     36  O   UNL     1      30.458 -25.028 -12.003  0.00  0.00    -0.381 OA
ATOM     37  H   UNL     1      30.408 -25.975 -11.801  0.00  0.00    +0.210 HD
ENDBRANCH  35  36
ENDBRANCH  24  35
ENDBRANCH  23  24
ENDBRANCH  22  23
ENDBRANCH   1  22
TORSDOF 11
ENDMDL
MODEL 4
REMARK VINA RESULT:     -11.4      2.289      4.432
REMARK  Name = 448903
REMARK  11 active torsions:
REMARK  status: ('A' for Active; 'I' for Inactive)
REMARK    1  A    between atoms: N_1  and  C_22
REMARK    2  A    between atoms: C_8  and  N_11
REMARK    3  A    between atoms: C_12  and  C_14
REMARK    4  A    between atoms: C_14  and  C_15
REMARK    5  A    between atoms: C_15  and  C_16
REMARK    6  A    between atoms: C_22  and  C_23
REMARK    7  A    between atoms: C_23  and  C_24
REMARK    8  A    between atoms: C_24  and  N_25
REMARK    9  A    between atoms: C_24  and  C_35
REMARK   10  A    between atoms: C_29  and  C_32
REMARK   11  A    between atoms: C_35  and  O_36
REMARK                            x       y       z     vdW  Elec       q    Type
REMARK                         _______ _______ _______ _____ _____    ______ ____
ROOT
ATOM      1  N   UNL     1      36.163 -23.064 -15.425  0.00  0.00    -0.286 N 
ATOM      2  C   UNL     1      35.426 -22.647 -16.511  0.00  0.00    +0.053 C 
ATOM      3  C   UNL     1      34.123 -23.115 -16.326  0.00  0.00    +0.015 C 
ATOM      4  C   UNL     1      35.373 -23.775 -14.563  0.00  0.00    +0.065 C 
ATOM      5  C   UNL     1      34.105 -23.825 -15.092  0.00  0.00    +0.017 C 
ATOM      6  C   UNL     1      35.808 -21.899 -17.630  0.00  0.00    +0.029 C 
ATOM      7  C   UNL     1      33.152 -22.824 -17.306  0.00  0.00    +0.003 C 
ATOM      8  C   UNL     1      34.828 -21.623 -18.589  0.00  0.00    +0.052 C 
ATOM      9  C   UNL     1      33.520 -22.077 -18.430  0.00  0.00    +0.015 C 
ENDROOT
BRANCH   8  11
ATOM     10  O   UNL     1      33.155 -19.806 -20.304  0.00  0.00    -0.275 OA
ATOM     11  N   UNL     1      35.168 -20.879 -19.720  0.00  0.00    -0.284 N 
ATOM     12  C   UNL     1      34.349 -20.033 -20.478  0.00  0.00    +0.226 C 
ATOM     13  H   UNL     1      36.101 -20.960 -20.023  0.00  0.00    +0.155 HD
BRANCH  12  14
ATOM     14  C   UNL     1      35.090 -19.397 -21.644  0.00  0.00    +0.090 C 
BRANCH  14  15
ATOM     15  C   UNL     1      36.037 -18.291 -21.175  0.00  0.00    +0.036 C 
BRANCH  15  16
ATOM     16  C   UNL     1      35.473 -16.903 -21.357  0.00  0.00    -0.022 C 
ATOM     17  C   UNL     1      35.374 -16.353 -22.634  0.00  0.00    -0.004 C 
ATOM     18  C   UNL     1      35.051 -16.171 -20.247  0.00  0.00    -0.004 C 
ATOM     19  C   UNL     1      34.853 -15.069 -22.803  0.00  0.00    -0.000 C 
ATOM     20  C   UNL     1      34.530 -14.888 -20.415  0.00  0.00    -0.000 C 
ATOM     21  C   UNL     1      34.431 -14.337 -21.693  0.00  0.00    -0.000 C 
ENDBRANCH  15  16
ENDBRANCH  14  15
ENDBRANCH  12  14
ENDBRANCH   8  11
BRANCH   1  22
ATOM     22  C   UNL     1      37.569 -22.796 -15.211  0.00  0.00    +0.097 C 
BRANCH  22  23
ATOM     23  C   UNL     1      38.469 -24.036 -15.298  0.00  0.00    +0.040 C 
BRANCH  23  24
ATOM     24  C   UNL     1      39.173 -24.430 -13.980  0.00  0.00    +0.091 C 
BRANCH  24  25
ATOM     25  N   UNL     1      38.241 -24.826 -12.910  0.00  0.00    -0.246 NA
ATOM     26  N   UNL     1      36.901 -25.993 -11.579  0.00  0.00    -0.251 NA
ATOM     27  C   UNL     1      37.716 -24.012 -11.938  0.00  0.00    +0.125 C 
ATOM     28  C   UNL     1      37.731 -26.012 -12.665  0.00  0.00    +0.201 C 
ATOM     29  C   UNL     1      36.881 -24.713 -11.100  0.00  0.00    +0.124 C 
BRANCH  29  32
ATOM     30  O   UNL     1      35.266 -24.951  -9.390  0.00  0.00    -0.269 OA
ATOM     31  N   UNL     1      36.413 -22.984  -9.471  0.00  0.00    -0.324 N 
ATOM     32  C   UNL     1      36.137 -24.262  -9.972  0.00  0.00    +0.257 C 
ATOM     33  H   UNL     1      35.917 -22.643  -8.692  0.00  0.00    +0.145 HD
ATOM     34  H   UNL     1      37.104 -22.426  -9.898  0.00  0.00    +0.145 HD
ENDBRANCH  29  32
ENDBRANCH  24  25
BRANCH  24  35
ATOM     35  C   UNL     1      40.207 -25.540 -14.229  0.00  0.00    +0.153 C 
BRANCH  35  36
ATOM     36  O   UNL     1      40.249 -25.853 -15.617  0.00  0.00    -0.381 OA
ATOM     37  H   UNL     1      39.631 -26.577 -15.804  0.00  0.00    +0.210 HD
ENDBRANCH  35  36
ENDBRANCH  24  35
ENDBRANCH  23  24
ENDBRANCH  22  23
ENDBRANCH   1  22
TORSDOF 11
ENDMDL
MODEL 5
REMARK VINA RESULT:     -11.4      2.236      3.707
REMARK  Name = 448903
REMARK  11 active torsions:
REMARK  status: ('A' for Active; 'I' for Inactive)
REMARK    1  A    between atoms: N_1  and  C_22
REMARK    2  A    between atoms: C_8  and  N_11
REMARK    3  A    between atoms: C_12  and  C_14
REMARK    4  A    between atoms: C_14  and  C_15
REMARK    5  A    between atoms: C_15  and  C_16
REMARK    6  A    between atoms: C_22  and  C_23
REMARK    7  A    between atoms: C_23  and  C_24
REMARK    8  A    between atoms: C_24  and  N_25
REMARK    9  A    between atoms: C_24  and  C_35
REMARK   10  A    between atoms: C_29  and  C_32
REMARK   11  A    between atoms: C_35  and  O_36
REMARK                            x       y       z     vdW  Elec       q    Type
REMARK                         _______ _______ _______ _____ _____    ______ ____
ROOT
ATOM      1  N   UNL     1      34.458 -22.807 -16.671  0.00  0.00    -0.286 N 
ATOM      2  C   UNL     1      34.191 -22.044 -17.786  0.00  0.00    +0.053 C 
ATOM      3  C   UNL     1      32.811 -22.097 -17.997  0.00  0.00    +0.015 C 
ATOM      4  C   UNL     1      33.299 -23.336 -16.171  0.00  0.00    +0.065 C 
ATOM      5  C   UNL     1      32.262 -22.915 -16.970  0.00  0.00    +0.017 C 
ATOM      6  C   UNL     1      35.056 -21.321 -18.615  0.00  0.00    +0.029 C 
ATOM      7  C   UNL     1      32.266 -21.393 -19.090  0.00  0.00    +0.003 C 
ATOM      8  C   UNL     1      34.492 -20.630 -19.692  0.00  0.00    +0.052 C 
ATOM      9  C   UNL     1      33.118 -20.664 -19.926  0.00  0.00    +0.015 C 
ENDROOT
BRANCH   8  11
ATOM     10  O   UNL     1      37.163 -19.346 -19.185  0.00  0.00    -0.275 OA
ATOM     11  N   UNL     1      35.319 -19.894 -20.542  0.00  0.00    -0.284 N 
ATOM     12  C   UNL     1      36.567 -19.326 -20.258  0.00  0.00    +0.226 C 
ATOM     13  H   UNL     1      34.982 -19.757 -21.457  0.00  0.00    +0.155 HD
BRANCH  12  14
ATOM     14  C   UNL     1      37.160 -18.596 -21.453  0.00  0.00    +0.090 C 
BRANCH  14  15
ATOM     15  C   UNL     1      36.075 -18.123 -22.421  0.00  0.00    +0.036 C 
BRANCH  15  16
ATOM     16  C   UNL     1      35.518 -16.763 -22.077  0.00  0.00    -0.022 C 
ATOM     17  C   UNL     1      35.294 -16.417 -20.745  0.00  0.00    -0.004 C 
ATOM     18  C   UNL     1      35.229 -15.851 -23.093  0.00  0.00    -0.004 C 
ATOM     19  C   UNL     1      34.779 -15.160 -20.427  0.00  0.00    -0.000 C 
ATOM     20  C   UNL     1      34.714 -14.593 -22.775  0.00  0.00    -0.000 C 
ATOM     21  C   UNL     1      34.489 -14.248 -21.442  0.00  0.00    -0.000 C 
ENDBRANCH  15  16
ENDBRANCH  14  15
ENDBRANCH  12  14
ENDBRANCH   8  11
BRANCH   1  22
ATOM     22  C   UNL     1      35.769 -23.026 -16.097  0.00  0.00    +0.097 C 
BRANCH  22  23
ATOM     23  C   UNL     1      35.814 -22.923 -14.567  0.00  0.00    +0.040 C 
BRANCH  23  24
ATOM     24  C   UNL     1      35.671 -24.265 -13.814  0.00  0.00    +0.091 C 
BRANCH  24  25
ATOM     25  N   UNL     1      36.881 -25.102 -13.866  0.00  0.00    -0.246 NA
ATOM     26  N   UNL     1      38.271 -26.832 -13.953  0.00  0.00    -0.251 NA
ATOM     27  C   UNL     1      38.181 -24.663 -13.881  0.00  0.00    +0.125 C 
ATOM     28  C   UNL     1      36.970 -26.413 -13.911  0.00  0.00    +0.201 C 
ATOM     29  C   UNL     1      39.062 -25.718 -13.934  0.00  0.00    +0.124 C 
BRANCH  29  32
ATOM     30  O   UNL     1      41.172 -24.712 -14.288  0.00  0.00    -0.269 OA
ATOM     31  N   UNL     1      41.157 -26.883 -13.596  0.00  0.00    -0.324 N 
ATOM     32  C   UNL     1      40.486 -25.712 -13.967  0.00  0.00    +0.257 C 
ATOM     33  H   UNL     1      42.141 -26.911 -13.607  0.00  0.00    +0.145 HD
ATOM     34  H   UNL     1      40.645 -27.679 -13.323  0.00  0.00    +0.145 HD
ENDBRANCH  29  32
ENDBRANCH  24  25
BRANCH  24  35
ATOM     35  C   UNL     1      35.247 -24.025 -12.356  0.00  0.00    +0.153 C 
BRANCH  35  36
ATOM     36  O   UNL     1      34.055 -24.751 -12.077  0.00  0.00    -0.381 OA
ATOM     37  H   UNL     1      33.755 -25.202 -12.882  0.00  0.00    +0.210 HD
ENDBRANCH  35  36
ENDBRANCH  24  35
ENDBRANCH  23  24
ENDBRANCH  22  23
ENDBRANCH   1  22
TORSDOF 11
ENDMDL
MODEL 6
REMARK VINA RESULT:     -11.2      7.303     13.532
REMARK  Name = 448903
REMARK  11 active torsions:
REMARK  status: ('A' for Active; 'I' for Inactive)
REMARK    1  A    between atoms: N_1  and  C_22
REMARK    2  A    between atoms: C_8  and  N_11
REMARK    3  A    between atoms: C_12  and  C_14
REMARK    4  A    between atoms: C_14  and  C_15
REMARK    5  A    between atoms: C_15  and  C_16
REMARK    6  A    between atoms: C_22  and  C_23
REMARK    7  A    between atoms: C_23  and  C_24
REMARK    8  A    between atoms: C_24  and  N_25
REMARK    9  A    between atoms: C_24  and  C_35
REMARK   10  A    between atoms: C_29  and  C_32
REMARK   11  A    between atoms: C_35  and  O_36
REMARK                            x       y       z     vdW  Elec       q    Type
REMARK                         _______ _______ _______ _____ _____    ______ ____
ROOT
ATOM      1  N   UNL     1      34.359 -14.986 -23.452  0.00  0.00    -0.286 N 
ATOM      2  C   UNL     1      34.525 -16.338 -23.250  0.00  0.00    +0.053 C 
ATOM      3  C   UNL     1      34.126 -16.980 -24.425  0.00  0.00    +0.015 C 
ATOM      4  C   UNL     1      33.871 -14.753 -24.709  0.00  0.00    +0.065 C 
ATOM      5  C   UNL     1      33.717 -15.967 -25.336  0.00  0.00    +0.017 C 
ATOM      6  C   UNL     1      34.993 -17.034 -22.129  0.00  0.00    +0.029 C 
ATOM      7  C   UNL     1      34.196 -18.387 -24.485  0.00  0.00    +0.003 C 
ATOM      8  C   UNL     1      35.054 -18.428 -22.214  0.00  0.00    +0.052 C 
ATOM      9  C   UNL     1      34.663 -19.096 -23.373  0.00  0.00    +0.015 C 
ENDROOT
BRANCH   8  11
ATOM     10  O   UNL     1      37.806 -18.621 -21.017  0.00  0.00    -0.275 OA
ATOM     11  N   UNL     1      35.517 -19.160 -21.119  0.00  0.00    -0.284 N 
ATOM     12  C   UNL     1      36.813 -19.205 -20.592  0.00  0.00    +0.226 C 
ATOM     13  H   UNL     1      34.846 -19.717 -20.659  0.00  0.00    +0.155 HD
BRANCH  12  14
ATOM     14  C   UNL     1      36.921 -20.126 -19.387  0.00  0.00    +0.090 C 
BRANCH  14  15
ATOM     15  C   UNL     1      35.869 -21.235 -19.428  0.00  0.00    +0.036 C 
BRANCH  15  16
ATOM     16  C   UNL     1      35.597 -21.853 -18.078  0.00  0.00    -0.022 C 
ATOM     17  C   UNL     1      36.582 -21.833 -17.091  0.00  0.00    -0.004 C 
ATOM     18  C   UNL     1      34.360 -22.442 -17.817  0.00  0.00    -0.004 C 
ATOM     19  C   UNL     1      36.331 -22.404 -15.843  0.00  0.00    -0.000 C 
ATOM     20  C   UNL     1      34.108 -23.012 -16.569  0.00  0.00    -0.000 C 
ATOM     21  C   UNL     1      35.094 -22.994 -15.582  0.00  0.00    -0.000 C 
ENDBRANCH  15  16
ENDBRANCH  14  15
ENDBRANCH  12  14
ENDBRANCH   8  11
BRANCH   1  22
ATOM     22  C   UNL     1      34.652 -13.950 -22.486  0.00  0.00    +0.097 C 
BRANCH  22  23
ATOM     23  C   UNL     1      33.411 -13.274 -21.888  0.00  0.00    +0.040 C 
BRANCH  23  24
ATOM     24  C   UNL     1      32.933 -12.005 -22.629  0.00  0.00    +0.091 C 
BRANCH  24  25
ATOM     25  N   UNL     1      32.400 -10.965 -21.733  0.00  0.00    -0.246 NA
ATOM     26  N   UNL     1      31.207  -9.875 -20.210  0.00  0.00    -0.251 NA
ATOM     27  C   UNL     1      32.841  -9.670 -21.626  0.00  0.00    +0.125 C 
ATOM     28  C   UNL     1      31.416 -11.056 -20.866  0.00  0.00    +0.201 C 
ATOM     29  C   UNL     1      32.116  -8.973 -20.688  0.00  0.00    +0.124 C 
BRANCH  29  32
ATOM     30  O   UNL     1      31.409  -6.722 -20.549  0.00  0.00    -0.269 OA
ATOM     31  N   UNL     1      33.340  -7.275 -19.472  0.00  0.00    -0.324 N 
ATOM     32  C   UNL     1      32.240  -7.618 -20.267  0.00  0.00    +0.257 C 
ATOM     33  H   UNL     1      33.454  -6.346 -19.164  0.00  0.00    +0.145 HD
ATOM     34  H   UNL     1      34.000  -7.961 -19.221  0.00  0.00    +0.145 HD
ENDBRANCH  29  32
ENDBRANCH  24  25
BRANCH  24  35
ATOM     35  C   UNL     1      34.060 -11.433 -23.504  0.00  0.00    +0.153 C 
BRANCH  35  36
ATOM     36  O   UNL     1      33.558 -11.142 -24.804  0.00  0.00    -0.381 OA
ATOM     37  H   UNL     1      34.028 -10.376 -25.168  0.00  0.00    +0.210 HD
ENDBRANCH  35  36
ENDBRANCH  24  35
ENDBRANCH  23  24
ENDBRANCH  22  23
ENDBRANCH   1  22
TORSDOF 11
ENDMDL
MODEL 7
REMARK VINA RESULT:     -11.0      9.264     15.385
REMARK  Name = 448903
REMARK  11 active torsions:
REMARK  status: ('A' for Active; 'I' for Inactive)
REMARK    1  A    between atoms: N_1  and  C_22
REMARK    2  A    between atoms: C_8  and  N_11
REMARK    3  A    between atoms: C_12  and  C_14
REMARK    4  A    between atoms: C_14  and  C_15
REMARK    5  A    between atoms: C_15  and  C_16
REMARK    6  A    between atoms: C_22  and  C_23
REMARK    7  A    between atoms: C_23  and  C_24
REMARK    8  A    between atoms: C_24  and  N_25
REMARK    9  A    between atoms: C_24  and  C_35
REMARK   10  A    between atoms: C_29  and  C_32
REMARK   11  A    between atoms: C_35  and  O_36
REMARK                            x       y       z     vdW  Elec       q    Type
REMARK                         _______ _______ _______ _____ _____    ______ ____
ROOT
ATOM      1  N   UNL     1      33.610 -11.759 -24.196  0.00  0.00    -0.286 N 
ATOM      2  C   UNL     1      33.868 -13.106 -24.066  0.00  0.00    +0.053 C 
ATOM      3  C   UNL     1      33.579 -13.699 -25.298  0.00  0.00    +0.015 C 
ATOM      4  C   UNL     1      33.171 -11.482 -25.462  0.00  0.00    +0.065 C 
ATOM      5  C   UNL     1      33.141 -12.662 -26.168  0.00  0.00    +0.017 C 
ATOM      6  C   UNL     1      34.329 -13.836 -22.965  0.00  0.00    +0.029 C 
ATOM      7  C   UNL     1      33.759 -15.090 -25.438  0.00  0.00    +0.003 C 
ATOM      8  C   UNL     1      34.500 -15.214 -23.129  0.00  0.00    +0.052 C 
ATOM      9  C   UNL     1      34.221 -15.833 -24.346  0.00  0.00    +0.015 C 
ENDROOT
BRANCH   8  11
ATOM     10  O   UNL     1      35.257 -18.120 -22.988  0.00  0.00    -0.275 OA
ATOM     11  N   UNL     1      34.960 -15.979 -22.056  0.00  0.00    -0.284 N 
ATOM     12  C   UNL     1      35.313 -17.334 -22.047  0.00  0.00    +0.226 C 
ATOM     13  H   UNL     1      35.047 -15.506 -21.197  0.00  0.00    +0.155 HD
BRANCH  12  14
ATOM     14  C   UNL     1      35.770 -17.808 -20.676  0.00  0.00    +0.090 C 
BRANCH  14  15
ATOM     15  C   UNL     1      36.232 -19.265 -20.707  0.00  0.00    +0.036 C 
BRANCH  15  16
ATOM     16  C   UNL     1      35.288 -20.207 -20.000  0.00  0.00    -0.022 C 
ATOM     17  C   UNL     1      35.792 -21.208 -19.170  0.00  0.00    -0.004 C 
ATOM     18  C   UNL     1      33.910 -20.076 -20.177  0.00  0.00    -0.004 C 
ATOM     19  C   UNL     1      34.920 -22.078 -18.517  0.00  0.00    -0.000 C 
ATOM     20  C   UNL     1      33.037 -20.947 -19.523  0.00  0.00    -0.000 C 
ATOM     21  C   UNL     1      33.542 -21.948 -18.693  0.00  0.00    -0.000 C 
ENDBRANCH  15  16
ENDBRANCH  14  15
ENDBRANCH  12  14
ENDBRANCH   8  11
BRANCH   1  22
ATOM     22  C   UNL     1      33.773 -10.768 -23.154  0.00  0.00    +0.097 C 
BRANCH  22  23
ATOM     23  C   UNL     1      32.492  -9.998 -22.808  0.00  0.00    +0.040 C 
BRANCH  23  24
ATOM     24  C   UNL     1      32.440  -9.422 -21.374  0.00  0.00    +0.091 C 
BRANCH  24  25
ATOM     25  N   UNL     1      32.253  -7.963 -21.332  0.00  0.00    -0.246 NA
ATOM     26  N   UNL     1      32.527  -5.791 -20.953  0.00  0.00    -0.251 NA
ATOM     27  C   UNL     1      31.206  -7.254 -21.866  0.00  0.00    +0.125 C 
ATOM     28  C   UNL     1      33.031  -7.052 -20.790  0.00  0.00    +0.201 C 
ATOM     29  C   UNL     1      31.353  -5.905 -21.644  0.00  0.00    +0.124 C 
BRANCH  29  32
ATOM     30  O   UNL     1      29.702  -4.261 -21.245  0.00  0.00    -0.269 OA
ATOM     31  N   UNL     1      30.598  -4.349 -23.339  0.00  0.00    -0.324 N 
ATOM     32  C   UNL     1      30.508  -4.824 -22.025  0.00  0.00    +0.257 C 
ATOM     33  H   UNL     1      30.027  -3.603 -23.633  0.00  0.00    +0.145 HD
ATOM     34  H   UNL     1      31.233  -4.762 -23.969  0.00  0.00    +0.145 HD
ENDBRANCH  29  32
ENDBRANCH  24  25
BRANCH  24  35
ATOM     35  C   UNL     1      31.351 -10.127 -20.548  0.00  0.00    +0.153 C 
BRANCH  35  36
ATOM     36  O   UNL     1      30.960 -11.331 -21.198  0.00  0.00    -0.381 OA
ATOM     37  H   UNL     1      29.999 -11.441 -21.124  0.00  0.00    +0.210 HD
ENDBRANCH  35  36
ENDBRANCH  24  35
ENDBRANCH  23  24
ENDBRANCH  22  23
ENDBRANCH   1  22
TORSDOF 11
ENDMDL
MODEL 8
REMARK VINA RESULT:     -10.8     10.154     14.604
REMARK  Name = 448903
REMARK  11 active torsions:
REMARK  status: ('A' for Active; 'I' for Inactive)
REMARK    1  A    between atoms: N_1  and  C_22
REMARK    2  A    between atoms: C_8  and  N_11
REMARK    3  A    between atoms: C_12  and  C_14
REMARK    4  A    between atoms: C_14  and  C_15
REMARK    5  A    between atoms: C_15  and  C_16
REMARK    6  A    between atoms: C_22  and  C_23
REMARK    7  A    between atoms: C_23  and  C_24
REMARK    8  A    between atoms: C_24  and  N_25
REMARK    9  A    between atoms: C_24  and  C_35
REMARK   10  A    between atoms: C_29  and  C_32
REMARK   11  A    between atoms: C_35  and  O_36
REMARK                            x       y       z     vdW  Elec       q    Type
REMARK                         _______ _______ _______ _____ _____    ______ ____
ROOT
ATOM      1  N   UNL     1      33.149 -12.842 -22.148  0.00  0.00    -0.286 N 
ATOM      2  C   UNL     1      32.727 -11.537 -22.029  0.00  0.00    +0.053 C 
ATOM      3  C   UNL     1      31.926 -11.469 -20.887  0.00  0.00    +0.015 C 
ATOM      4  C   UNL     1      32.646 -13.597 -21.124  0.00  0.00    +0.065 C 
ATOM      5  C   UNL     1      31.885 -12.776 -20.326  0.00  0.00    +0.017 C 
ATOM      6  C   UNL     1      32.989 -10.425 -22.837  0.00  0.00    +0.029 C 
ATOM      7  C   UNL     1      31.357 -10.229 -20.531  0.00  0.00    +0.003 C 
ATOM      8  C   UNL     1      32.414  -9.205 -22.463  0.00  0.00    +0.052 C 
ATOM      9  C   UNL     1      31.612  -9.107 -21.328  0.00  0.00    +0.015 C 
ENDROOT
BRANCH   8  11
ATOM     10  O   UNL     1      34.106  -6.782 -21.912  0.00  0.00    -0.275 OA
ATOM     11  N   UNL     1      32.652  -8.071 -23.240  0.00  0.00    -0.284 N 
ATOM     12  C   UNL     1      33.464  -6.970 -22.941  0.00  0.00    +0.226 C 
ATOM     13  H   UNL     1      32.189  -8.040 -24.109  0.00  0.00    +0.155 HD
BRANCH  12  14
ATOM     14  C   UNL     1      33.464  -5.928 -24.048  0.00  0.00    +0.090 C 
BRANCH  14  15
ATOM     15  C   UNL     1      32.070  -5.340 -24.271  0.00  0.00    +0.036 C 
BRANCH  15  16
ATOM     16  C   UNL     1      31.775  -4.150 -23.392  0.00  0.00    -0.022 C 
ATOM     17  C   UNL     1      32.264  -2.890 -23.735  0.00  0.00    -0.004 C 
ATOM     18  C   UNL     1      31.010  -4.310 -22.235  0.00  0.00    -0.004 C 
ATOM     19  C   UNL     1      31.991  -1.790 -22.922  0.00  0.00    -0.000 C 
ATOM     20  C   UNL     1      30.737  -3.210 -21.422  0.00  0.00    -0.000 C 
ATOM     21  C   UNL     1      31.227  -1.950 -21.765  0.00  0.00    -0.000 C 
ENDBRANCH  15  16
ENDBRANCH  14  15
ENDBRANCH  12  14
ENDBRANCH   8  11
BRANCH   1  22
ATOM     22  C   UNL     1      34.002 -13.357 -23.199  0.00  0.00    +0.097 C 
BRANCH  22  23
ATOM     23  C   UNL     1      34.866 -14.554 -22.781  0.00  0.00    +0.040 C 
BRANCH  23  24
ATOM     24  C   UNL     1      34.803 -15.772 -23.731  0.00  0.00    +0.091 C 
BRANCH  24  25
ATOM     25  N   UNL     1      34.972 -17.063 -23.045  0.00  0.00    -0.246 NA
ATOM     26  N   UNL     1      34.858 -19.211 -22.492  0.00  0.00    -0.251 NA
ATOM     27  C   UNL     1      35.693 -17.295 -21.900  0.00  0.00    +0.125 C 
ATOM     28  C   UNL     1      34.482 -18.237 -23.376  0.00  0.00    +0.201 C 
ATOM     29  C   UNL     1      35.637 -18.621 -21.537  0.00  0.00    +0.124 C 
BRANCH  29  32
ATOM     30  O   UNL     1      37.383 -19.021 -19.995  0.00  0.00    -0.269 OA
ATOM     31  N   UNL     1      35.491 -20.273 -19.773  0.00  0.00    -0.324 N 
ATOM     32  C   UNL     1      36.236 -19.285 -20.429  0.00  0.00    +0.257 C 
ATOM     33  H   UNL     1      35.877 -20.750 -19.003  0.00  0.00    +0.145 HD
ATOM     34  H   UNL     1      34.581 -20.490 -20.081  0.00  0.00    +0.145 HD
ENDBRANCH  29  32
ENDBRANCH  24  25
BRANCH  24  35
ATOM     35  C   UNL     1      33.495 -15.760 -24.540  0.00  0.00    +0.153 C 
BRANCH  35  36
ATOM     36  O   UNL     1      33.792 -15.713 -25.931  0.00  0.00    -0.381 OA
ATOM     37  H   UNL     1      34.501 -16.343 -26.132  0.00  0.00    +0.210 HD
ENDBRANCH  35  36
ENDBRANCH  24  35
ENDBRANCH  23  24
ENDBRANCH  22  23
ENDBRANCH   1  22
TORSDOF 11
ENDMDL
MODEL 9
REMARK VINA RESULT:     -10.8      2.981      5.436
REMARK  Name = 448903
REMARK  11 active torsions:
REMARK  status: ('A' for Active; 'I' for Inactive)
REMARK    1  A    between atoms: N_1  and  C_22
REMARK    2  A    between atoms: C_8  and  N_11
REMARK    3  A    between atoms: C_12  and  C_14
REMARK    4  A    between atoms: C_14  and  C_15
REMARK    5  A    between atoms: C_15  and  C_16
REMARK    6  A    between atoms: C_22  and  C_23
REMARK    7  A    between atoms: C_23  and  C_24
REMARK    8  A    between atoms: C_24  and  N_25
REMARK    9  A    between atoms: C_24  and  C_35
REMARK   10  A    between atoms: C_29  and  C_32
REMARK   11  A    between atoms: C_35  and  O_36
REMARK                            x       y       z     vdW  Elec       q    Type
REMARK                         _______ _______ _______ _____ _____    ______ ____
ROOT
ATOM      1  N   UNL     1      35.234 -22.083 -17.627  0.00  0.00    -0.286 N 
ATOM      2  C   UNL     1      34.689 -21.362 -18.666  0.00  0.00    +0.053 C 
ATOM      3  C   UNL     1      33.325 -21.663 -18.703  0.00  0.00    +0.015 C 
ATOM      4  C   UNL     1      34.265 -22.825 -17.008  0.00  0.00    +0.065 C 
ATOM      5  C   UNL     1      33.073 -22.587 -17.650  0.00  0.00    +0.017 C 
ATOM      6  C   UNL     1      35.292 -20.477 -19.567  0.00  0.00    +0.029 C 
ATOM      7  C   UNL     1      32.522 -21.052 -19.687  0.00  0.00    +0.003 C 
ATOM      8  C   UNL     1      34.475 -19.882 -20.533  0.00  0.00    +0.052 C 
ATOM      9  C   UNL     1      33.112 -20.163 -20.594  0.00  0.00    +0.015 C 
ENDROOT
BRANCH   8  11
ATOM     10  O   UNL     1      35.280 -17.003 -20.215  0.00  0.00    -0.275 OA
ATOM     11  N   UNL     1      35.037 -18.992 -21.450  0.00  0.00    -0.284 N 
ATOM     12  C   UNL     1      35.407 -17.657 -21.246  0.00  0.00    +0.226 C 
ATOM     13  H   UNL     1      35.192 -19.347 -22.355  0.00  0.00    +0.155 HD
BRANCH  12  14
ATOM     14  C   UNL     1      35.988 -17.016 -22.496  0.00  0.00    +0.090 C 
BRANCH  14  15
ATOM     15  C   UNL     1      34.943 -16.894 -23.606  0.00  0.00    +0.036 C 
BRANCH  15  16
ATOM     16  C   UNL     1      34.439 -15.484 -23.801  0.00  0.00    -0.022 C 
ATOM     17  C   UNL     1      34.661 -14.522 -22.818  0.00  0.00    -0.004 C 
ATOM     18  C   UNL     1      33.751 -15.145 -24.967  0.00  0.00    -0.004 C 
ATOM     19  C   UNL     1      34.195 -13.219 -22.998  0.00  0.00    -0.000 C 
ATOM     20  C   UNL     1      33.285 -13.843 -25.147  0.00  0.00    -0.000 C 
ATOM     21  C   UNL     1      33.507 -12.880 -24.163  0.00  0.00    -0.000 C 
ENDBRANCH  15  16
ENDBRANCH  14  15
ENDBRANCH  12  14
ENDBRANCH   8  11
BRANCH   1  22
ATOM     22  C   UNL     1      36.627 -22.069 -17.234  0.00  0.00    +0.097 C 
BRANCH  22  23
ATOM     23  C   UNL     1      36.875 -21.570 -15.804  0.00  0.00    +0.040 C 
BRANCH  23  24
ATOM     24  C   UNL     1      37.721 -22.512 -14.918  0.00  0.00    +0.091 C 
BRANCH  24  25
ATOM     25  N   UNL     1      36.927 -23.256 -13.926  0.00  0.00    -0.246 NA
ATOM     26  N   UNL     1      35.461 -24.616 -12.959  0.00  0.00    -0.251 NA
ATOM     27  C   UNL     1      37.045 -23.184 -12.561  0.00  0.00    +0.125 C 
ATOM     28  C   UNL     1      35.965 -24.127 -14.133  0.00  0.00    +0.201 C 
ATOM     29  C   UNL     1      36.146 -24.018 -11.939  0.00  0.00    +0.124 C 
BRANCH  29  32
ATOM     30  O   UNL     1      35.223 -25.182 -10.100  0.00  0.00    -0.269 OA
ATOM     31  N   UNL     1      36.568 -23.401  -9.636  0.00  0.00    -0.324 N 
ATOM     32  C   UNL     1      35.931 -24.250 -10.550  0.00  0.00    +0.257 C 
ATOM     33  H   UNL     1      36.440 -23.535  -8.669  0.00  0.00    +0.145 HD
ATOM     34  H   UNL     1      37.143 -22.670  -9.960  0.00  0.00    +0.145 HD
ENDBRANCH  29  32
ENDBRANCH  24  25
BRANCH  24  35
ATOM     35  C   UNL     1      38.541 -23.480 -15.786  0.00  0.00    +0.153 C 
BRANCH  35  36
ATOM     36  O   UNL     1      39.404 -24.252 -14.959  0.00  0.00    -0.381 OA
ATOM     37  H   UNL     1      39.233 -25.195 -15.104  0.00  0.00    +0.210 HD
ENDBRANCH  35  36
ENDBRANCH  24  35
ENDBRANCH  23  24
ENDBRANCH  22  23
ENDBRANCH   1  22
TORSDOF 11
ENDMDL
