MODEL 1
REMARK VINA RESULT:     -11.4      0.000      0.000
REMARK  Name = 24905142
REMARK  2 active torsions:
REMARK  status: ('A' for Active; 'I' for Inactive)
REMARK    1  A    between atoms: N_1  and  C_20
REMARK    2  A    between atoms: C_7  and  C_12
REMARK                            x       y       z     vdW  Elec       q    Type
REMARK                         _______ _______ _______ _____ _____    ______ ____
ROOT
ATOM      1  N   UNL     1      33.654 -22.717 -17.472  0.00  0.00    -0.200 N 
ATOM      2  N   UNL     1      34.787 -23.064 -16.833  0.00  0.00    -0.181 NA
ATOM      3  N   UNL     1      31.271 -22.570 -17.066  0.00  0.00    -0.232 NA
ATOM      4  N   UNL     1      30.698 -23.256 -14.798  0.00  0.00    -0.234 NA
ATOM      5  C   UNL     1      32.535 -22.840 -16.703  0.00  0.00    +0.137 C 
ATOM      6  C   UNL     1      32.967 -23.301 -15.471  0.00  0.00    +0.150 C 
ATOM      7  C   UNL     1      34.362 -23.419 -15.615  0.00  0.00    +0.091 C 
ATOM      8  C   UNL     1      31.995 -23.509 -14.498  0.00  0.00    +0.112 C 
ATOM      9  C   UNL     1      30.421 -22.809 -16.046  0.00  0.00    +0.252 C 
ATOM     10  N   UNL     1      32.334 -23.975 -13.216  0.00  0.00    -0.346 N 
ATOM     11  H   UNL     1      31.631 -24.116 -12.540  0.00  0.00    +0.143 HD
ATOM     12  H   UNL     1      33.275 -24.160 -12.991  0.00  0.00    +0.143 HD
ENDROOT
BRANCH   7  15
ATOM     13  N   UNL     1      36.599 -25.711 -13.702  0.00  0.00    -0.229 NA
ATOM     14  N   UNL     1      37.980 -25.070 -11.836  0.00  0.00    -0.297 N 
ATOM     15  C   UNL     1      35.307 -23.858 -14.630  0.00  0.00    +0.035 C 
ATOM     16  C   UNL     1      35.832 -22.960 -13.703  0.00  0.00    +0.006 C 
ATOM     17  C   UNL     1      35.716 -25.183 -14.582  0.00  0.00    +0.102 C 
ATOM     18  C   UNL     1      36.754 -23.451 -12.764  0.00  0.00    +0.033 C 
ATOM     19  C   UNL     1      37.075 -24.803 -12.829  0.00  0.00    +0.132 C 
ATOM     20  C   UNL     1      37.501 -22.902 -11.688  0.00  0.00    +0.019 C 
ATOM     21  C   UNL     1      38.247 -23.921 -11.137  0.00  0.00    +0.063 C 
ATOM     22  H   UNL     1      38.378 -25.951 -11.653  0.00  0.00    +0.154 HD
ENDBRANCH   7  15
BRANCH   1  23
ATOM     23  C   UNL     1      33.721 -22.248 -18.908  0.00  0.00    +0.098 C 
ATOM     24  C   UNL     1      35.151 -22.003 -19.434  0.00  0.00    +0.022 C 
ATOM     25  C   UNL     1      32.963 -20.928 -19.134  0.00  0.00    +0.022 C 
ATOM     26  C   UNL     1      35.212 -20.523 -19.795  0.00  0.00    +0.002 C 
ATOM     27  C   UNL     1      33.782 -20.186 -20.178  0.00  0.00    +0.002 C 
ENDBRANCH   1  23
TORSDOF 2
ENDMDL
MODEL 2
REMARK VINA RESULT:     -10.9      0.797      1.395
REMARK  Name = 24905142
REMARK  2 active torsions:
REMARK  status: ('A' for Active; 'I' for Inactive)
REMARK    1  A    between atoms: N_1  and  C_20
REMARK    2  A    between atoms: C_7  and  C_12
REMARK                            x       y       z     vdW  Elec       q    Type
REMARK                         _______ _______ _______ _____ _____    ______ ____
ROOT
ATOM      1  N   UNL     1      33.578 -22.720 -17.451  0.00  0.00    -0.200 N 
ATOM      2  N   UNL     1      34.712 -23.050 -16.805  0.00  0.00    -0.181 NA
ATOM      3  N   UNL     1      31.195 -22.573 -17.047  0.00  0.00    -0.232 NA
ATOM      4  N   UNL     1      30.625 -23.215 -14.765  0.00  0.00    -0.234 NA
ATOM      5  C   UNL     1      32.460 -22.831 -16.679  0.00  0.00    +0.137 C 
ATOM      6  C   UNL     1      32.893 -23.265 -15.439  0.00  0.00    +0.150 C 
ATOM      7  C   UNL     1      34.289 -23.381 -15.580  0.00  0.00    +0.091 C 
ATOM      8  C   UNL     1      31.923 -23.456 -14.461  0.00  0.00    +0.112 C 
ATOM      9  C   UNL     1      30.345 -22.794 -16.022  0.00  0.00    +0.252 C 
ATOM     10  N   UNL     1      32.264 -23.895 -13.169  0.00  0.00    -0.346 N 
ATOM     11  H   UNL     1      31.561 -24.025 -12.491  0.00  0.00    +0.143 HD
ATOM     12  H   UNL     1      33.205 -24.072 -12.941  0.00  0.00    +0.143 HD
ENDROOT
BRANCH   7  15
ATOM     13  N   UNL     1      36.498 -23.217 -12.578  0.00  0.00    -0.229 NA
ATOM     14  N   UNL     1      37.915 -25.000 -11.794  0.00  0.00    -0.297 N 
ATOM     15  C   UNL     1      35.236 -23.797 -14.587  0.00  0.00    +0.035 C 
ATOM     16  C   UNL     1      35.791 -25.074 -14.629  0.00  0.00    +0.006 C 
ATOM     17  C   UNL     1      35.617 -22.936 -13.567  0.00  0.00    +0.102 C 
ATOM     18  C   UNL     1      36.712 -25.422 -13.628  0.00  0.00    +0.033 C 
ATOM     19  C   UNL     1      37.004 -24.461 -12.665  0.00  0.00    +0.132 C 
ATOM     20  C   UNL     1      37.482 -26.572 -13.309  0.00  0.00    +0.019 C 
ATOM     21  C   UNL     1      38.211 -26.283 -12.176  0.00  0.00    +0.063 C 
ATOM     22  H   UNL     1      38.296 -24.538 -11.014  0.00  0.00    +0.154 HD
ENDBRANCH   7  15
BRANCH   1  23
ATOM     23  C   UNL     1      33.643 -22.280 -18.896  0.00  0.00    +0.098 C 
ATOM     24  C   UNL     1      35.064 -21.949 -19.401  0.00  0.00    +0.022 C 
ATOM     25  C   UNL     1      32.802 -21.021 -19.168  0.00  0.00    +0.022 C 
ATOM     26  C   UNL     1      35.031 -20.477 -19.795  0.00  0.00    +0.002 C 
ATOM     27  C   UNL     1      33.590 -20.248 -20.214  0.00  0.00    +0.002 C 
ENDBRANCH   1  23
TORSDOF 2
ENDMDL
MODEL 3
REMARK VINA RESULT:     -10.7      6.173      9.577
REMARK  Name = 24905142
REMARK  2 active torsions:
REMARK  status: ('A' for Active; 'I' for Inactive)
REMARK    1  A    between atoms: N_1  and  C_20
REMARK    2  A    between atoms: C_7  and  C_12
REMARK                            x       y       z     vdW  Elec       q    Type
REMARK                         _______ _______ _______ _____ _____    ______ ____
ROOT
ATOM      1  N   UNL     1      34.542 -14.920 -22.101  0.00  0.00    -0.200 N 
ATOM      2  N   UNL     1      34.988 -15.760 -21.149  0.00  0.00    -0.181 NA
ATOM      3  N   UNL     1      33.782 -14.963 -24.400  0.00  0.00    -0.232 NA
ATOM      4  N   UNL     1      33.821 -17.221 -25.320  0.00  0.00    -0.234 NA
ATOM      5  C   UNL     1      34.244 -15.539 -23.279  0.00  0.00    +0.137 C 
ATOM      6  C   UNL     1      34.515 -16.882 -23.083  0.00  0.00    +0.150 C 
ATOM      7  C   UNL     1      34.970 -16.954 -21.753  0.00  0.00    +0.091 C 
ATOM      8  C   UNL     1      34.287 -17.735 -24.157  0.00  0.00    +0.112 C 
ATOM      9  C   UNL     1      33.600 -15.886 -25.369  0.00  0.00    +0.252 C 
ATOM     10  N   UNL     1      34.531 -19.117 -24.056  0.00  0.00    -0.346 N 
ATOM     11  H   UNL     1      34.364 -19.705 -24.829  0.00  0.00    +0.143 HD
ATOM     12  H   UNL     1      34.869 -19.498 -23.214  0.00  0.00    +0.143 HD
ENDROOT
BRANCH   7  15
ATOM     13  N   UNL     1      37.241 -19.405 -20.095  0.00  0.00    -0.229 NA
ATOM     14  N   UNL     1      36.540 -21.434 -19.003  0.00  0.00    -0.297 N 
ATOM     15  C   UNL     1      35.388 -18.122 -21.035  0.00  0.00    +0.035 C 
ATOM     16  C   UNL     1      34.452 -19.058 -20.599  0.00  0.00    +0.006 C 
ATOM     17  C   UNL     1      36.730 -18.344 -20.762  0.00  0.00    +0.102 C 
ATOM     18  C   UNL     1      34.924 -20.181 -19.901  0.00  0.00    +0.033 C 
ATOM     19  C   UNL     1      36.297 -20.277 -19.696  0.00  0.00    +0.132 C 
ATOM     20  C   UNL     1      34.337 -21.328 -19.303  0.00  0.00    +0.019 C 
ATOM     21  C   UNL     1      35.356 -22.080 -18.759  0.00  0.00    +0.063 C 
ATOM     22  H   UNL     1      37.428 -21.752 -18.724  0.00  0.00    +0.154 HD
ENDBRANCH   7  15
BRANCH   1  23
ATOM     23  C   UNL     1      34.419 -13.444 -21.795  0.00  0.00    +0.098 C 
ATOM     24  C   UNL     1      33.247 -13.081 -20.858  0.00  0.00    +0.022 C 
ATOM     25  C   UNL     1      34.217 -12.593 -23.062  0.00  0.00    +0.022 C 
ATOM     26  C   UNL     1      32.337 -12.165 -21.669  0.00  0.00    +0.002 C 
ATOM     27  C   UNL     1      33.286 -11.471 -22.629  0.00  0.00    +0.002 C 
ENDBRANCH   1  23
TORSDOF 2
ENDMDL
MODEL 4
REMARK VINA RESULT:     -10.2      1.636      6.232
REMARK  Name = 24905142
REMARK  2 active torsions:
REMARK  status: ('A' for Active; 'I' for Inactive)
REMARK    1  A    between atoms: N_1  and  C_20
REMARK    2  A    between atoms: C_7  and  C_12
REMARK                            x       y       z     vdW  Elec       q    Type
REMARK                         _______ _______ _______ _____ _____    ______ ____
ROOT
ATOM      1  N   UNL     1      34.941 -24.316 -14.663  0.00  0.00    -0.200 N 
ATOM      2  N   UNL     1      35.290 -23.638 -15.773  0.00  0.00    -0.181 NA
ATOM      3  N   UNL     1      32.965 -24.874 -13.379  0.00  0.00    -0.232 NA
ATOM      4  N   UNL     1      30.948 -23.929 -14.372  0.00  0.00    -0.234 NA
ATOM      5  C   UNL     1      33.602 -24.291 -14.407  0.00  0.00    +0.137 C 
ATOM      6  C   UNL     1      33.033 -23.541 -15.422  0.00  0.00    +0.150 C 
ATOM      7  C   UNL     1      34.124 -23.168 -16.230  0.00  0.00    +0.091 C 
ATOM      8  C   UNL     1      31.654 -23.368 -15.383  0.00  0.00    +0.112 C 
ATOM      9  C   UNL     1      31.638 -24.637 -13.446  0.00  0.00    +0.252 C 
ATOM     10  N   UNL     1      30.984 -22.623 -16.369  0.00  0.00    -0.346 N 
ATOM     11  H   UNL     1      30.005 -22.512 -16.323  0.00  0.00    +0.143 HD
ATOM     12  H   UNL     1      31.490 -22.213 -17.107  0.00  0.00    +0.143 HD
ENDROOT
BRANCH   7  15
ATOM     13  N   UNL     1      32.748 -21.418 -19.224  0.00  0.00    -0.229 NA
ATOM     14  N   UNL     1      34.041 -20.139 -20.804  0.00  0.00    -0.297 N 
ATOM     15  C   UNL     1      34.094 -22.377 -17.426  0.00  0.00    +0.035 C 
ATOM     16  C   UNL     1      35.267 -21.828 -17.941  0.00  0.00    +0.006 C 
ATOM     17  C   UNL     1      32.899 -22.145 -18.093  0.00  0.00    +0.102 C 
ATOM     18  C   UNL     1      35.172 -21.064 -19.115  0.00  0.00    +0.033 C 
ATOM     19  C   UNL     1      33.910 -20.911 -19.680  0.00  0.00    +0.132 C 
ATOM     20  C   UNL     1      36.082 -20.352 -19.942  0.00  0.00    +0.019 C 
ATOM     21  C   UNL     1      35.357 -19.793 -20.973  0.00  0.00    +0.063 C 
ATOM     22  H   UNL     1      33.304 -19.873 -21.399  0.00  0.00    +0.154 HD
ENDBRANCH   7  15
BRANCH   1  23
ATOM     23  C   UNL     1      36.009 -25.007 -13.846  0.00  0.00    +0.098 C 
ATOM     24  C   UNL     1      37.213 -24.115 -13.480  0.00  0.00    +0.022 C 
ATOM     25  C   UNL     1      36.602 -26.232 -14.565  0.00  0.00    +0.022 C 
ATOM     26  C   UNL     1      38.426 -24.770 -14.131  0.00  0.00    +0.002 C 
ATOM     27  C   UNL     1      38.068 -26.244 -14.162  0.00  0.00    +0.002 C 
ENDBRANCH   1  23
TORSDOF 2
ENDMDL
MODEL 5
REMARK VINA RESULT:     -10.0      1.973      6.597
REMARK  Name = 24905142
REMARK  2 active torsions:
REMARK  status: ('A' for Active; 'I' for Inactive)
REMARK    1  A    between atoms: N_1  and  C_20
REMARK    2  A    between atoms: C_7  and  C_12
REMARK                            x       y       z     vdW  Elec       q    Type
REMARK                         _______ _______ _______ _____ _____    ______ ____
ROOT
ATOM      1  N   UNL     1      35.953 -23.086 -14.324  0.00  0.00    -0.200 N 
ATOM      2  N   UNL     1      34.736 -23.477 -13.901  0.00  0.00    -0.181 NA
ATOM      3  N   UNL     1      37.034 -22.235 -16.317  0.00  0.00    -0.232 NA
ATOM      4  N   UNL     1      35.461 -21.996 -18.164  0.00  0.00    -0.234 NA
ATOM      5  C   UNL     1      35.972 -22.677 -15.624  0.00  0.00    +0.137 C 
ATOM      6  C   UNL     1      34.674 -22.810 -16.086  0.00  0.00    +0.150 C 
ATOM      7  C   UNL     1      33.962 -23.306 -14.978  0.00  0.00    +0.091 C 
ATOM      8  C   UNL     1      34.433 -22.449 -17.407  0.00  0.00    +0.112 C 
ATOM      9  C   UNL     1      36.680 -21.918 -17.580  0.00  0.00    +0.252 C 
ATOM     10  N   UNL     1      33.147 -22.548 -17.968  0.00  0.00    -0.346 N 
ATOM     11  H   UNL     1      32.998 -22.288 -18.906  0.00  0.00    +0.143 HD
ATOM     12  H   UNL     1      32.396 -22.876 -17.423  0.00  0.00    +0.143 HD
ENDROOT
BRANCH   7  15
ATOM     13  N   UNL     1      30.830 -25.076 -13.990  0.00  0.00    -0.229 NA
ATOM     14  N   UNL     1      28.612 -24.502 -14.736  0.00  0.00    -0.297 N 
ATOM     15  C   UNL     1      32.565 -23.625 -14.910  0.00  0.00    +0.035 C 
ATOM     16  C   UNL     1      31.633 -22.876 -15.625  0.00  0.00    +0.006 C 
ATOM     17  C   UNL     1      32.117 -24.683 -14.132  0.00  0.00    +0.102 C 
ATOM     18  C   UNL     1      30.280 -23.238 -15.517  0.00  0.00    +0.033 C 
ATOM     19  C   UNL     1      29.970 -24.321 -14.700  0.00  0.00    +0.132 C 
ATOM     20  C   UNL     1      29.054 -22.763 -16.053  0.00  0.00    +0.019 C 
ATOM     21  C   UNL     1      28.045 -23.559 -15.554  0.00  0.00    +0.063 C 
ATOM     22  H   UNL     1      28.120 -25.200 -14.248  0.00  0.00    +0.154 HD
ENDBRANCH   7  15
BRANCH   1  23
ATOM     23  C   UNL     1      37.125 -23.134 -13.370  0.00  0.00    +0.098 C 
ATOM     24  C   UNL     1      38.025 -24.377 -13.524  0.00  0.00    +0.022 C 
ATOM     25  C   UNL     1      36.686 -23.118 -11.895  0.00  0.00    +0.022 C 
ATOM     26  C   UNL     1      37.947 -25.112 -12.191  0.00  0.00    +0.002 C 
ATOM     27  C   UNL     1      37.694 -24.006 -11.182  0.00  0.00    +0.002 C 
ENDBRANCH   1  23
TORSDOF 2
ENDMDL
MODEL 6
REMARK VINA RESULT:      -9.8      2.490      6.294
REMARK  Name = 24905142
REMARK  2 active torsions:
REMARK  status: ('A' for Active; 'I' for Inactive)
REMARK    1  A    between atoms: N_1  and  C_20
REMARK    2  A    between atoms: C_7  and  C_12
REMARK                            x       y       z     vdW  Elec       q    Type
REMARK                         _______ _______ _______ _____ _____    ______ ____
ROOT
ATOM      1  N   UNL     1      30.478 -23.399 -15.725  0.00  0.00    -0.200 N 
ATOM      2  N   UNL     1      30.956 -22.777 -16.819  0.00  0.00    -0.181 NA
ATOM      3  N   UNL     1      31.279 -24.464 -13.703  0.00  0.00    -0.232 NA
ATOM      4  N   UNL     1      33.713 -24.418 -13.563  0.00  0.00    -0.234 NA
ATOM      5  C   UNL     1      31.452 -23.818 -14.867  0.00  0.00    +0.137 C 
ATOM      6  C   UNL     1      32.654 -23.444 -15.442  0.00  0.00    +0.150 C 
ATOM      7  C   UNL     1      32.282 -22.808 -16.641  0.00  0.00    +0.091 C 
ATOM      8  C   UNL     1      33.814 -23.765 -14.746  0.00  0.00    +0.112 C 
ATOM      9  C   UNL     1      32.470 -24.722 -13.121  0.00  0.00    +0.252 C 
ATOM     10  N   UNL     1      35.083 -23.427 -15.247  0.00  0.00    -0.346 N 
ATOM     11  H   UNL     1      35.894 -23.664 -14.739  0.00  0.00    +0.143 HD
ATOM     12  H   UNL     1      35.164 -22.952 -16.106  0.00  0.00    +0.143 HD
ENDROOT
BRANCH   7  15
ATOM     13  N   UNL     1      35.402 -22.072 -18.547  0.00  0.00    -0.229 NA
ATOM     14  N   UNL     1      35.566 -20.566 -20.421  0.00  0.00    -0.297 N 
ATOM     15  C   UNL     1      33.147 -22.226 -17.626  0.00  0.00    +0.035 C 
ATOM     16  C   UNL     1      32.647 -21.320 -18.559  0.00  0.00    +0.006 C 
ATOM     17  C   UNL     1      34.494 -22.554 -17.668  0.00  0.00    +0.102 C 
ATOM     18  C   UNL     1      33.544 -20.785 -19.498  0.00  0.00    +0.033 C 
ATOM     19  C   UNL     1      34.870 -21.201 -19.426  0.00  0.00    +0.132 C 
ATOM     20  C   UNL     1      33.459 -19.868 -20.579  0.00  0.00    +0.019 C 
ATOM     21  C   UNL     1      34.717 -19.754 -21.129  0.00  0.00    +0.063 C 
ATOM     22  H   UNL     1      36.527 -20.677 -20.601  0.00  0.00    +0.154 HD
ENDBRANCH   7  15
BRANCH   1  23
ATOM     23  C   UNL     1      28.985 -23.567 -15.555  0.00  0.00    +0.098 C 
ATOM     24  C   UNL     1      28.191 -23.611 -16.878  0.00  0.00    +0.022 C 
ATOM     25  C   UNL     1      28.354 -22.432 -14.729  0.00  0.00    +0.022 C 
ATOM     26  C   UNL     1      27.248 -22.415 -16.835  0.00  0.00    +0.002 C 
ATOM     27  C   UNL     1      26.983 -22.216 -15.353  0.00  0.00    +0.002 C 
ENDBRANCH   1  23
TORSDOF 2
ENDMDL
MODEL 7
REMARK VINA RESULT:      -9.8     11.108     14.450
REMARK  Name = 24905142
REMARK  2 active torsions:
REMARK  status: ('A' for Active; 'I' for Inactive)
REMARK    1  A    between atoms: N_1  and  C_20
REMARK    2  A    between atoms: C_7  and  C_12
REMARK                            x       y       z     vdW  Elec       q    Type
REMARK                         _______ _______ _______ _____ _____    ______ ____
ROOT
ATOM      1  N   UNL     1      32.944  -9.240 -22.736  0.00  0.00    -0.200 N 
ATOM      2  N   UNL     1      33.428 -10.250 -23.482  0.00  0.00    -0.181 NA
ATOM      3  N   UNL     1      31.695  -8.882 -20.692  0.00  0.00    -0.232 NA
ATOM      4  N   UNL     1      31.108 -10.989 -19.613  0.00  0.00    -0.234 NA
ATOM      5  C   UNL     1      32.281  -9.656 -21.619  0.00  0.00    +0.137 C 
ATOM      6  C   UNL     1      32.335 -11.038 -21.636  0.00  0.00    +0.150 C 
ATOM      7  C   UNL     1      33.054 -11.343 -22.807  0.00  0.00    +0.091 C 
ATOM      8  C   UNL     1      31.720 -11.708 -20.584  0.00  0.00    +0.112 C 
ATOM      9  C   UNL     1      31.133  -9.639 -19.725  0.00  0.00    +0.252 C 
ATOM     10  N   UNL     1      31.722 -13.113 -20.512  0.00  0.00    -0.346 N 
ATOM     11  H   UNL     1      31.280 -13.568 -19.758  0.00  0.00    +0.143 HD
ATOM     12  H   UNL     1      32.165 -13.642 -21.214  0.00  0.00    +0.143 HD
ENDROOT
BRANCH   7  15
ATOM     13  N   UNL     1      33.223 -14.255 -25.132  0.00  0.00    -0.229 NA
ATOM     14  N   UNL     1      34.388 -16.318 -24.696  0.00  0.00    -0.297 N 
ATOM     15  C   UNL     1      33.399 -12.642 -23.308  0.00  0.00    +0.035 C 
ATOM     16  C   UNL     1      34.178 -13.510 -22.546  0.00  0.00    +0.006 C 
ATOM     17  C   UNL     1      32.962 -13.058 -24.558  0.00  0.00    +0.102 C 
ATOM     18  C   UNL     1      34.482 -14.767 -23.092  0.00  0.00    +0.033 C 
ATOM     19  C   UNL     1      33.979 -15.055 -24.357  0.00  0.00    +0.132 C 
ATOM     20  C   UNL     1      35.217 -15.908 -22.672  0.00  0.00    +0.019 C 
ATOM     21  C   UNL     1      35.142 -16.846 -23.679  0.00  0.00    +0.063 C 
ATOM     22  H   UNL     1      34.175 -16.776 -25.541  0.00  0.00    +0.154 HD
ENDBRANCH   7  15
BRANCH   1  23
ATOM     23  C   UNL     1      33.166  -7.811 -23.179  0.00  0.00    +0.098 C 
ATOM     24  C   UNL     1      34.001  -6.960 -22.199  0.00  0.00    +0.022 C 
ATOM     25  C   UNL     1      31.848  -7.043 -23.379  0.00  0.00    +0.022 C 
ATOM     26  C   UNL     1      33.085  -5.826 -21.752  0.00  0.00    +0.002 C 
ATOM     27  C   UNL     1      32.159  -5.621 -22.937  0.00  0.00    +0.002 C 
ENDBRANCH   1  23
TORSDOF 2
ENDMDL
MODEL 8
REMARK VINA RESULT:      -9.5      1.999      4.925
REMARK  Name = 24905142
REMARK  2 active torsions:
REMARK  status: ('A' for Active; 'I' for Inactive)
REMARK    1  A    between atoms: N_1  and  C_20
REMARK    2  A    between atoms: C_7  and  C_12
REMARK                            x       y       z     vdW  Elec       q    Type
REMARK                         _______ _______ _______ _____ _____    ______ ____
ROOT
ATOM      1  N   UNL     1      34.913 -22.230 -17.831  0.00  0.00    -0.200 N 
ATOM      2  N   UNL     1      33.731 -22.744 -17.443  0.00  0.00    -0.181 NA
ATOM      3  N   UNL     1      37.104 -21.736 -16.924  0.00  0.00    -0.232 NA
ATOM      4  N   UNL     1      37.262 -22.344 -14.568  0.00  0.00    -0.234 NA
ATOM      5  C   UNL     1      35.844 -22.192 -16.836  0.00  0.00    +0.137 C 
ATOM      6  C   UNL     1      35.226 -22.718 -15.715  0.00  0.00    +0.150 C 
ATOM      7  C   UNL     1      33.928 -23.039 -16.153  0.00  0.00    +0.091 C 
ATOM      8  C   UNL     1      35.982 -22.787 -14.550  0.00  0.00    +0.112 C 
ATOM      9  C   UNL     1      37.737 -21.853 -15.738  0.00  0.00    +0.252 C 
ATOM     10  N   UNL     1      35.443 -23.307 -13.359  0.00  0.00    -0.346 N 
ATOM     11  H   UNL     1      35.996 -23.347 -12.545  0.00  0.00    +0.143 HD
ATOM     12  H   UNL     1      34.514 -23.632 -13.339  0.00  0.00    +0.143 HD
ENDROOT
BRANCH   7  15
ATOM     13  N   UNL     1      32.209 -24.836 -13.372  0.00  0.00    -0.229 NA
ATOM     14  N   UNL     1      29.839 -25.247 -13.235  0.00  0.00    -0.297 N 
ATOM     15  C   UNL     1      32.864 -23.618 -15.385  0.00  0.00    +0.035 C 
ATOM     16  C   UNL     1      31.548 -23.552 -15.836  0.00  0.00    +0.006 C 
ATOM     17  C   UNL     1      33.126 -24.255 -14.180  0.00  0.00    +0.102 C 
ATOM     18  C   UNL     1      30.551 -24.137 -15.039  0.00  0.00    +0.033 C 
ATOM     19  C   UNL     1      30.954 -24.744 -13.853  0.00  0.00    +0.132 C 
ATOM     20  C   UNL     1      29.142 -24.290 -15.120  0.00  0.00    +0.019 C 
ATOM     21  C   UNL     1      28.731 -24.975 -13.997  0.00  0.00    +0.063 C 
ATOM     22  H   UNL     1      29.834 -25.727 -12.377  0.00  0.00    +0.154 HD
ENDBRANCH   7  15
BRANCH   1  23
ATOM     23  C   UNL     1      35.093 -21.767 -19.259  0.00  0.00    +0.098 C 
ATOM     24  C   UNL     1      36.468 -21.136 -19.560  0.00  0.00    +0.022 C 
ATOM     25  C   UNL     1      34.051 -20.712 -19.673  0.00  0.00    +0.022 C 
ATOM     26  C   UNL     1      36.181 -19.699 -19.981  0.00  0.00    +0.002 C 
ATOM     27  C   UNL     1      34.801 -19.775 -20.608  0.00  0.00    +0.002 C 
ENDBRANCH   1  23
TORSDOF 2
ENDMDL
MODEL 9
REMARK VINA RESULT:      -9.5      8.478     12.916
REMARK  Name = 24905142
REMARK  2 active torsions:
REMARK  status: ('A' for Active; 'I' for Inactive)
REMARK    1  A    between atoms: N_1  and  C_20
REMARK    2  A    between atoms: C_7  and  C_12
REMARK                            x       y       z     vdW  Elec       q    Type
REMARK                         _______ _______ _______ _____ _____    ______ ____
ROOT
ATOM      1  N   UNL     1      34.821 -16.028 -21.945  0.00  0.00    -0.200 N 
ATOM      2  N   UNL     1      34.568 -14.779 -21.513  0.00  0.00    -0.181 NA
ATOM      3  N   UNL     1      34.534 -17.397 -23.922  0.00  0.00    -0.232 NA
ATOM      4  N   UNL     1      33.448 -16.164 -25.723  0.00  0.00    -0.234 NA
ATOM      5  C   UNL     1      34.415 -16.255 -23.227  0.00  0.00    +0.137 C 
ATOM      6  C   UNL     1      33.856 -15.068 -23.666  0.00  0.00    +0.150 C 
ATOM      7  C   UNL     1      33.980 -14.198 -22.566  0.00  0.00    +0.091 C 
ATOM      8  C   UNL     1      33.362 -15.044 -24.965  0.00  0.00    +0.112 C 
ATOM      9  C   UNL     1      34.021 -17.255 -25.162  0.00  0.00    +0.252 C 
ATOM     10  N   UNL     1      32.775 -13.884 -25.503  0.00  0.00    -0.346 N 
ATOM     11  H   UNL     1      32.430 -13.889 -26.426  0.00  0.00    +0.143 HD
ATOM     12  H   UNL     1      32.709 -13.067 -24.958  0.00  0.00    +0.143 HD
ENDROOT
BRANCH   7  15
ATOM     13  N   UNL     1      33.822 -10.543 -23.292  0.00  0.00    -0.229 NA
ATOM     14  N   UNL     1      32.341  -8.973 -22.220  0.00  0.00    -0.297 N 
ATOM     15  C   UNL     1      33.557 -12.831 -22.481  0.00  0.00    +0.035 C 
ATOM     16  C   UNL     1      32.554 -12.454 -21.590  0.00  0.00    +0.006 C 
ATOM     17  C   UNL     1      34.138 -11.859 -23.283  0.00  0.00    +0.102 C 
ATOM     18  C   UNL     1      32.184 -11.100 -21.555  0.00  0.00    +0.033 C 
ATOM     19  C   UNL     1      32.849 -10.231 -22.415  0.00  0.00    +0.132 C 
ATOM     20  C   UNL     1      31.247 -10.320 -20.826  0.00  0.00    +0.019 C 
ATOM     21  C   UNL     1      31.366  -9.016 -21.257  0.00  0.00    +0.063 C 
ATOM     22  H   UNL     1      32.631  -8.164 -22.699  0.00  0.00    +0.154 HD
ENDBRANCH   7  15
BRANCH   1  23
ATOM     23  C   UNL     1      35.496 -17.015 -21.019  0.00  0.00    +0.098 C 
ATOM     24  C   UNL     1      36.773 -17.663 -21.594  0.00  0.00    +0.022 C 
ATOM     25  C   UNL     1      34.575 -18.185 -20.630  0.00  0.00    +0.022 C 
ATOM     26  C   UNL     1      36.484 -19.158 -21.663  0.00  0.00    +0.002 C 
ATOM     27  C   UNL     1      35.500 -19.388 -20.531  0.00  0.00    +0.002 C 
ENDBRANCH   1  23
TORSDOF 2
ENDMDL
