MODEL 1
REMARK VINA RESULT:     -14.3      0.000      0.000
REMARK  Name = 89670174
REMARK  4 active torsions:
REMARK  status: ('A' for Active; 'I' for Inactive)
REMARK    1  A    between atoms: C_3  and  C_13
REMARK    2  A    between atoms: C_9  and  O_26
REMARK    3  A    between atoms: C_18  and  C_25
REMARK    4  A    between atoms: O_26  and  C_30
REMARK                            x       y       z     vdW  Elec       q    Type
REMARK                         _______ _______ _______ _____ _____    ______ ____
ROOT
ATOM      1  O   UNL     1      34.527 -19.246 -23.565  0.00  0.00    -0.479 OA
ATOM      2  C   UNL     1      35.176 -18.529 -21.320  0.00  0.00    +0.072 C 
ATOM      3  C   UNL     1      34.053 -19.521 -21.058  0.00  0.00    +0.085 C 
ATOM      4  C   UNL     1      34.973 -19.726 -22.242  0.00  0.00    +0.174 C 
ATOM      5  C   UNL     1      34.966 -17.386 -22.246  0.00  0.00    +0.018 C 
ATOM      6  C   UNL     1      34.607 -17.863 -23.514  0.00  0.00    +0.135 C 
ATOM      7  C   UNL     1      35.070 -16.020 -22.036  0.00  0.00    +0.036 C 
ATOM      8  C   UNL     1      34.342 -17.028 -24.582  0.00  0.00    +0.040 C 
ATOM      9  C   UNL     1      34.810 -15.154 -23.104  0.00  0.00    +0.145 C 
ATOM     10  C   UNL     1      34.449 -15.655 -24.367  0.00  0.00    +0.041 C 
ENDROOT
BRANCH   3  13
ATOM     11  N   UNL     1      35.277 -20.654 -19.136  0.00  0.00    -0.318 N 
ATOM     12  N   UNL     1      33.128 -21.153 -19.410  0.00  0.00    -0.318 N 
ATOM     13  C   UNL     1      34.139 -20.448 -19.866  0.00  0.00    +0.148 C 
ATOM     14  C   UNL     1      34.980 -21.552 -18.142  0.00  0.00    +0.059 C 
ATOM     15  C   UNL     1      33.633 -21.847 -18.334  0.00  0.00    +0.059 C 
ATOM     16  C   UNL     1      35.751 -22.113 -17.123  0.00  0.00    +0.019 C 
ATOM     17  C   UNL     1      33.001 -22.754 -17.467  0.00  0.00    +0.016 C 
ATOM     18  C   UNL     1      35.105 -23.015 -16.270  0.00  0.00    +0.073 C 
ATOM     19  C   UNL     1      33.755 -23.330 -16.437  0.00  0.00    +0.005 C 
ATOM     20  H   UNL     1      36.153 -20.235 -19.296  0.00  0.00    +0.148 HD
ATOM     21  H   UNL     1      32.209 -21.178 -19.760  0.00  0.00    +0.148 HD
BRANCH  18  25
ATOM     22  F   UNL     1      35.662 -23.058 -13.944  0.00  0.00    -0.166 F 
ATOM     23  F   UNL     1      35.583 -24.966 -14.972  0.00  0.00    -0.166 F 
ATOM     24  F   UNL     1      37.223 -23.593 -15.360  0.00  0.00    -0.166 F 
ATOM     25  C   UNL     1      35.875 -23.646 -15.158  0.00  0.00    +0.419 C 
ENDBRANCH  18  25
ENDBRANCH   3  13
BRANCH   9  26
ATOM     26  O   UNL     1      34.907 -13.787 -22.915  0.00  0.00    -0.454 OA
BRANCH  26  30
ATOM     27  O   UNL     1      32.243  -8.050 -23.325  0.00  0.00    -0.275 OA
ATOM     28  N   UNL     1      32.020 -10.009 -22.147  0.00  0.00    -0.270 N 
ATOM     29  N   UNL     1      31.794 -11.973 -20.848  0.00  0.00    -0.229 NA
ATOM     30  C   UNL     1      33.902 -13.168 -22.234  0.00  0.00    +0.146 C 
ATOM     31  C   UNL     1      33.507 -11.867 -22.550  0.00  0.00    +0.045 C 
ATOM     32  C   UNL     1      34.112 -11.123 -23.700  0.00  0.00    +0.042 C 
ATOM     33  C   UNL     1      33.256 -13.861 -21.216  0.00  0.00    +0.058 C 
ATOM     34  C   UNL     1      32.452 -11.310 -21.829  0.00  0.00    +0.133 C 
ATOM     35  C   UNL     1      34.049  -9.622 -23.466  0.00  0.00    +0.090 C 
ATOM     36  C   UNL     1      32.680  -9.158 -23.011  0.00  0.00    +0.227 C 
ATOM     37  C   UNL     1      32.216 -13.225 -20.563  0.00  0.00    +0.103 C 
ATOM     38  H   UNL     1      31.192  -9.684 -21.726  0.00  0.00    +0.156 HD
ENDBRANCH  26  30
ENDBRANCH   9  26
TORSDOF 4
ENDMDL
MODEL 2
REMARK VINA RESULT:     -13.2      1.577      2.389
REMARK  Name = 89670174
REMARK  4 active torsions:
REMARK  status: ('A' for Active; 'I' for Inactive)
REMARK    1  A    between atoms: C_3  and  C_13
REMARK    2  A    between atoms: C_9  and  O_26
REMARK    3  A    between atoms: C_18  and  C_25
REMARK    4  A    between atoms: O_26  and  C_30
REMARK                            x       y       z     vdW  Elec       q    Type
REMARK                         _______ _______ _______ _____ _____    ______ ____
ROOT
ATOM      1  O   UNL     1      34.350 -17.485 -24.831  0.00  0.00    -0.479 OA
ATOM      2  C   UNL     1      35.028 -16.935 -22.548  0.00  0.00    +0.072 C 
ATOM      3  C   UNL     1      34.046 -18.079 -22.352  0.00  0.00    +0.085 C 
ATOM      4  C   UNL     1      34.920 -18.043 -23.588  0.00  0.00    +0.174 C 
ATOM      5  C   UNL     1      34.635 -15.736 -23.331  0.00  0.00    +0.018 C 
ATOM      6  C   UNL     1      34.269 -16.116 -24.629  0.00  0.00    +0.135 C 
ATOM      7  C   UNL     1      34.588 -14.397 -22.975  0.00  0.00    +0.036 C 
ATOM      8  C   UNL     1      33.851 -15.212 -25.586  0.00  0.00    +0.040 C 
ATOM      9  C   UNL     1      34.172 -13.461 -23.929  0.00  0.00    +0.145 C 
ATOM     10  C   UNL     1      33.806 -13.867 -25.224  0.00  0.00    +0.041 C 
ENDROOT
BRANCH   3  13
ATOM     11  N   UNL     1      33.319 -19.790 -20.614  0.00  0.00    -0.318 N 
ATOM     12  N   UNL     1      35.503 -19.457 -20.864  0.00  0.00    -0.318 N 
ATOM     13  C   UNL     1      34.304 -19.110 -21.275  0.00  0.00    +0.148 C 
ATOM     14  C   UNL     1      33.924 -20.632 -19.716  0.00  0.00    +0.059 C 
ATOM     15  C   UNL     1      35.286 -20.407 -19.891  0.00  0.00    +0.059 C 
ATOM     16  C   UNL     1      33.411 -21.545 -18.793  0.00  0.00    +0.019 C 
ATOM     17  C   UNL     1      36.206 -21.124 -19.109  0.00  0.00    +0.016 C 
ATOM     18  C   UNL     1      34.341 -22.251 -18.022  0.00  0.00    +0.073 C 
ATOM     19  C   UNL     1      35.714 -22.045 -18.176  0.00  0.00    +0.005 C 
ATOM     20  H   UNL     1      32.350 -19.692 -20.756  0.00  0.00    +0.148 HD
ATOM     21  H   UNL     1      36.369 -19.114 -21.183  0.00  0.00    +0.148 HD
BRANCH  18  25
ATOM     22  F   UNL     1      33.451 -24.425 -17.573  0.00  0.00    -0.166 F 
ATOM     23  F   UNL     1      34.793 -23.587 -16.090  0.00  0.00    -0.166 F 
ATOM     24  F   UNL     1      32.783 -22.786 -16.309  0.00  0.00    -0.166 F 
ATOM     25  C   UNL     1      33.854 -23.243 -17.019  0.00  0.00    +0.419 C 
ENDBRANCH  18  25
ENDBRANCH   3  13
BRANCH   9  26
ATOM     26  O   UNL     1      34.117 -12.120 -23.593  0.00  0.00    -0.454 OA
BRANCH  26  30
ATOM     27  O   UNL     1      31.849  -6.486 -21.779  0.00  0.00    -0.275 OA
ATOM     28  N   UNL     1      31.536  -8.722 -21.359  0.00  0.00    -0.270 N 
ATOM     29  N   UNL     1      31.224 -11.006 -20.827  0.00  0.00    -0.229 NA
ATOM     30  C   UNL     1      33.186 -11.735 -22.675  0.00  0.00    +0.146 C 
ATOM     31  C   UNL     1      32.871 -10.388 -22.485  0.00  0.00    +0.045 C 
ATOM     32  C   UNL     1      33.480  -9.314 -23.333  0.00  0.00    +0.042 C 
ATOM     33  C   UNL     1      32.533 -12.711 -21.930  0.00  0.00    +0.058 C 
ATOM     34  C   UNL     1      31.887 -10.072 -21.550  0.00  0.00    +0.133 C 
ATOM     35  C   UNL     1      33.532  -7.995 -22.579  0.00  0.00    +0.090 C 
ATOM     36  C   UNL     1      32.219  -7.654 -21.905  0.00  0.00    +0.227 C 
ATOM     37  C   UNL     1      31.568 -12.297 -21.031  0.00  0.00    +0.103 C 
ATOM     38  H   UNL     1      30.750  -8.526 -20.799  0.00  0.00    +0.156 HD
ENDBRANCH  26  30
ENDBRANCH   9  26
TORSDOF 4
ENDMDL
MODEL 3
REMARK VINA RESULT:     -12.8      2.966      4.608
REMARK  Name = 89670174
REMARK  4 active torsions:
REMARK  status: ('A' for Active; 'I' for Inactive)
REMARK    1  A    between atoms: C_3  and  C_13
REMARK    2  A    between atoms: C_9  and  O_26
REMARK    3  A    between atoms: C_18  and  C_25
REMARK    4  A    between atoms: O_26  and  C_30
REMARK                            x       y       z     vdW  Elec       q    Type
REMARK                         _______ _______ _______ _____ _____    ______ ____
ROOT
ATOM      1  O   UNL     1      32.759 -22.004 -19.300  0.00  0.00    -0.479 OA
ATOM      2  C   UNL     1      35.116 -21.884 -18.661  0.00  0.00    +0.072 C 
ATOM      3  C   UNL     1      34.396 -21.962 -17.324  0.00  0.00    +0.085 C 
ATOM      4  C   UNL     1      33.822 -22.678 -18.527  0.00  0.00    +0.174 C 
ATOM      5  C   UNL     1      34.740 -20.846 -19.655  0.00  0.00    +0.018 C 
ATOM      6  C   UNL     1      33.384 -20.975 -19.986  0.00  0.00    +0.135 C 
ATOM      7  C   UNL     1      35.494 -19.847 -20.251  0.00  0.00    +0.036 C 
ATOM      8  C   UNL     1      32.749 -20.141 -20.886  0.00  0.00    +0.040 C 
ATOM      9  C   UNL     1      34.874 -18.992 -21.168  0.00  0.00    +0.145 C 
ATOM     10  C   UNL     1      33.512 -19.139 -21.483  0.00  0.00    +0.041 C 
ENDROOT
BRANCH   3  13
ATOM     11  N   UNL     1      36.336 -22.737 -15.870  0.00  0.00    -0.318 N 
ATOM     12  N   UNL     1      34.323 -23.554 -15.402  0.00  0.00    -0.318 N 
ATOM     13  C   UNL     1      35.007 -22.758 -16.192  0.00  0.00    +0.148 C 
ATOM     14  C   UNL     1      36.521 -23.575 -14.800  0.00  0.00    +0.059 C 
ATOM     15  C   UNL     1      35.250 -24.072 -14.526  0.00  0.00    +0.059 C 
ATOM     16  C   UNL     1      37.657 -23.930 -14.071  0.00  0.00    +0.019 C 
ATOM     17  C   UNL     1      35.083 -24.979 -13.466  0.00  0.00    +0.016 C 
ATOM     18  C   UNL     1      37.473 -24.833 -13.019  0.00  0.00    +0.073 C 
ATOM     19  C   UNL     1      36.209 -25.349 -12.720  0.00  0.00    +0.005 C 
ATOM     20  H   UNL     1      37.035 -22.214 -16.325  0.00  0.00    +0.148 HD
ATOM     21  H   UNL     1      33.356 -23.739 -15.428  0.00  0.00    +0.148 HD
BRANCH  18  25
ATOM     22  F   UNL     1      38.386 -26.294 -11.361  0.00  0.00    -0.166 F 
ATOM     23  F   UNL     1      39.720 -25.650 -12.945  0.00  0.00    -0.166 F 
ATOM     24  F   UNL     1      39.112 -24.244 -11.402  0.00  0.00    -0.166 F 
ATOM     25  C   UNL     1      38.649 -25.249 -12.200  0.00  0.00    +0.419 C 
ENDBRANCH  18  25
ENDBRANCH   3  13
BRANCH   9  26
ATOM     26  O   UNL     1      35.609 -17.987 -21.772  0.00  0.00    -0.454 OA
BRANCH  26  30
ATOM     27  O   UNL     1      33.149 -13.759 -25.802  0.00  0.00    -0.275 OA
ATOM     28  N   UNL     1      33.647 -13.973 -23.570  0.00  0.00    -0.270 N 
ATOM     29  N   UNL     1      34.212 -14.107 -21.277  0.00  0.00    -0.229 NA
ATOM     30  C   UNL     1      35.166 -16.707 -21.633  0.00  0.00    +0.146 C 
ATOM     31  C   UNL     1      34.653 -15.996 -22.719  0.00  0.00    +0.045 C 
ATOM     32  C   UNL     1      34.492 -16.632 -24.066  0.00  0.00    +0.042 C 
ATOM     33  C   UNL     1      35.217 -16.111 -20.377  0.00  0.00    +0.058 C 
ATOM     34  C   UNL     1      34.192 -14.700 -22.495  0.00  0.00    +0.133 C 
ATOM     35  C   UNL     1      34.564 -15.588 -25.169  0.00  0.00    +0.090 C 
ATOM     36  C   UNL     1      33.694 -14.380 -24.889  0.00  0.00    +0.227 C 
ATOM     37  C   UNL     1      34.728 -14.823 -20.254  0.00  0.00    +0.103 C 
ATOM     38  H   UNL     1      33.203 -13.117 -23.370  0.00  0.00    +0.156 HD
ENDBRANCH  26  30
ENDBRANCH   9  26
TORSDOF 4
ENDMDL
MODEL 4
REMARK VINA RESULT:     -12.4      2.665      4.598
REMARK  Name = 89670174
REMARK  4 active torsions:
REMARK  status: ('A' for Active; 'I' for Inactive)
REMARK    1  A    between atoms: C_3  and  C_13
REMARK    2  A    between atoms: C_9  and  O_26
REMARK    3  A    between atoms: C_18  and  C_25
REMARK    4  A    between atoms: O_26  and  C_30
REMARK                            x       y       z     vdW  Elec       q    Type
REMARK                         _______ _______ _______ _____ _____    ______ ____
ROOT
ATOM      1  O   UNL     1      33.381 -21.695 -19.434  0.00  0.00    -0.479 OA
ATOM      2  C   UNL     1      35.760 -21.505 -18.901  0.00  0.00    +0.072 C 
ATOM      3  C   UNL     1      35.103 -21.610 -17.533  0.00  0.00    +0.085 C 
ATOM      4  C   UNL     1      34.498 -22.339 -18.713  0.00  0.00    +0.174 C 
ATOM      5  C   UNL     1      35.309 -20.476 -19.872  0.00  0.00    +0.018 C 
ATOM      6  C   UNL     1      33.945 -20.644 -20.142  0.00  0.00    +0.135 C 
ATOM      7  C   UNL     1      36.006 -19.452 -20.495  0.00  0.00    +0.036 C 
ATOM      8  C   UNL     1      33.245 -19.827 -21.009  0.00  0.00    +0.040 C 
ATOM      9  C   UNL     1      35.320 -18.613 -21.379  0.00  0.00    +0.145 C 
ATOM     10  C   UNL     1      33.950 -18.799 -21.634  0.00  0.00    +0.041 C 
ENDROOT
BRANCH   3  13
ATOM     11  N   UNL     1      35.128 -23.002 -15.402  0.00  0.00    -0.318 N 
ATOM     12  N   UNL     1      37.088 -22.565 -16.357  0.00  0.00    -0.318 N 
ATOM     13  C   UNL     1      35.788 -22.392 -16.434  0.00  0.00    +0.148 C 
ATOM     14  C   UNL     1      36.067 -23.609 -14.607  0.00  0.00    +0.059 C 
ATOM     15  C   UNL     1      37.281 -23.323 -15.223  0.00  0.00    +0.059 C 
ATOM     16  C   UNL     1      35.959 -24.362 -13.436  0.00  0.00    +0.019 C 
ATOM     17  C   UNL     1      38.470 -23.807 -14.653  0.00  0.00    +0.016 C 
ATOM     18  C   UNL     1      37.153 -24.836 -12.882  0.00  0.00    +0.073 C 
ATOM     19  C   UNL     1      38.387 -24.565 -13.478  0.00  0.00    +0.005 C 
ATOM     20  H   UNL     1      34.155 -23.004 -15.256  0.00  0.00    +0.148 HD
ATOM     21  H   UNL     1      37.776 -22.227 -16.975  0.00  0.00    +0.148 HD
BRANCH  18  25
ATOM     22  F   UNL     1      38.161 -25.429 -10.796  0.00  0.00    -0.166 F 
ATOM     23  F   UNL     1      35.994 -25.418 -10.872  0.00  0.00    -0.166 F 
ATOM     24  F   UNL     1      37.106 -26.991 -11.880  0.00  0.00    -0.166 F 
ATOM     25  C   UNL     1      37.104 -25.649 -11.631  0.00  0.00    +0.419 C 
ENDBRANCH  18  25
ENDBRANCH   3  13
BRANCH   9  26
ATOM     26  O   UNL     1      35.997 -17.584 -22.011  0.00  0.00    -0.454 OA
BRANCH  26  30
ATOM     27  O   UNL     1      32.809 -12.299 -20.570  0.00  0.00    -0.275 OA
ATOM     28  N   UNL     1      33.360 -13.573 -22.400  0.00  0.00    -0.270 N 
ATOM     29  N   UNL     1      33.829 -14.888 -24.310  0.00  0.00    -0.229 NA
ATOM     30  C   UNL     1      35.265 -16.701 -22.745  0.00  0.00    +0.146 C 
ATOM     31  C   UNL     1      34.663 -15.590 -22.152  0.00  0.00    +0.045 C 
ATOM     32  C   UNL     1      34.861 -15.273 -20.701  0.00  0.00    +0.042 C 
ATOM     33  C   UNL     1      35.132 -16.913 -24.113  0.00  0.00    +0.058 C 
ATOM     34  C   UNL     1      33.954 -14.714 -22.972  0.00  0.00    +0.133 C 
ATOM     35  C   UNL     1      33.676 -14.495 -20.152  0.00  0.00    +0.090 C 
ATOM     36  C   UNL     1      33.272 -13.337 -21.043  0.00  0.00    +0.227 C 
ATOM     37  C   UNL     1      34.414 -15.983 -24.843  0.00  0.00    +0.103 C 
ATOM     38  H   UNL     1      32.982 -12.897 -23.008  0.00  0.00    +0.156 HD
ENDBRANCH  26  30
ENDBRANCH   9  26
TORSDOF 4
ENDMDL
MODEL 5
REMARK VINA RESULT:     -12.4      5.813     11.481
REMARK  Name = 89670174
REMARK  4 active torsions:
REMARK  status: ('A' for Active; 'I' for Inactive)
REMARK    1  A    between atoms: C_3  and  C_13
REMARK    2  A    between atoms: C_9  and  O_26
REMARK    3  A    between atoms: C_18  and  C_25
REMARK    4  A    between atoms: O_26  and  C_30
REMARK                            x       y       z     vdW  Elec       q    Type
REMARK                         _______ _______ _______ _____ _____    ______ ____
ROOT
ATOM      1  O   UNL     1      33.507 -15.013 -25.335  0.00  0.00    -0.479 OA
ATOM      2  C   UNL     1      33.587 -14.213 -23.026  0.00  0.00    +0.072 C 
ATOM      3  C   UNL     1      34.207 -13.068 -23.813  0.00  0.00    +0.085 C 
ATOM      4  C   UNL     1      33.113 -13.905 -24.441  0.00  0.00    +0.174 C 
ATOM      5  C   UNL     1      34.115 -15.594 -23.170  0.00  0.00    +0.018 C 
ATOM      6  C   UNL     1      34.032 -15.995 -24.510  0.00  0.00    +0.135 C 
ATOM      7  C   UNL     1      34.637 -16.467 -22.229  0.00  0.00    +0.036 C 
ATOM      8  C   UNL     1      34.454 -17.235 -24.949  0.00  0.00    +0.040 C 
ATOM      9  C   UNL     1      35.069 -17.730 -22.649  0.00  0.00    +0.145 C 
ATOM     10  C   UNL     1      34.978 -18.110 -23.999  0.00  0.00    +0.041 C 
ENDROOT
BRANCH   3  13
ATOM     11  N   UNL     1      32.915 -11.272 -22.555  0.00  0.00    -0.318 N 
ATOM     12  N   UNL     1      34.617 -10.606 -23.820  0.00  0.00    -0.318 N 
ATOM     13  C   UNL     1      33.924 -11.640 -23.403  0.00  0.00    +0.148 C 
ATOM     14  C   UNL     1      32.963  -9.908 -22.416  0.00  0.00    +0.059 C 
ATOM     15  C   UNL     1      34.032  -9.516 -23.215  0.00  0.00    +0.059 C 
ATOM     16  C   UNL     1      32.184  -9.012 -21.683  0.00  0.00    +0.019 C 
ATOM     17  C   UNL     1      34.360  -8.152 -23.299  0.00  0.00    +0.016 C 
ATOM     18  C   UNL     1      32.524  -7.658 -21.778  0.00  0.00    +0.073 C 
ATOM     19  C   UNL     1      33.593  -7.235 -22.571  0.00  0.00    +0.005 C 
ATOM     20  H   UNL     1      32.271 -11.877 -22.122  0.00  0.00    +0.148 HD
ATOM     21  H   UNL     1      35.388 -10.608 -24.432  0.00  0.00    +0.148 HD
BRANCH  18  25
ATOM     22  F   UNL     1      32.386  -5.467 -20.831  0.00  0.00    -0.166 F 
ATOM     23  F   UNL     1      30.550  -6.316 -21.614  0.00  0.00    -0.166 F 
ATOM     24  F   UNL     1      31.398  -7.085 -19.765  0.00  0.00    -0.166 F 
ATOM     25  C   UNL     1      31.730  -6.651 -21.015  0.00  0.00    +0.419 C 
ENDBRANCH  18  25
ENDBRANCH   3  13
BRANCH   9  26
ATOM     26  O   UNL     1      35.594 -18.615 -21.724  0.00  0.00    -0.454 OA
BRANCH  26  30
ATOM     27  O   UNL     1      36.232 -22.580 -16.820  0.00  0.00    -0.275 OA
ATOM     28  N   UNL     1      34.595 -21.730 -18.189  0.00  0.00    -0.270 N 
ATOM     29  N   UNL     1      32.879 -20.950 -19.618  0.00  0.00    -0.229 NA
ATOM     30  C   UNL     1      34.721 -19.403 -21.035  0.00  0.00    +0.146 C 
ATOM     31  C   UNL     1      35.147 -20.190 -19.964  0.00  0.00    +0.045 C 
ATOM     32  C   UNL     1      36.562 -20.145 -19.472  0.00  0.00    +0.042 C 
ATOM     33  C   UNL     1      33.381 -19.405 -21.406  0.00  0.00    +0.058 C 
ATOM     34  C   UNL     1      34.192 -20.948 -19.288  0.00  0.00    +0.133 C 
ATOM     35  C   UNL     1      36.948 -21.461 -18.816  0.00  0.00    +0.090 C 
ATOM     36  C   UNL     1      35.909 -21.949 -17.827  0.00  0.00    +0.227 C 
ATOM     37  C   UNL     1      32.509 -20.185 -20.669  0.00  0.00    +0.103 C 
ATOM     38  H   UNL     1      33.892 -22.150 -17.641  0.00  0.00    +0.156 HD
ENDBRANCH  26  30
ENDBRANCH   9  26
TORSDOF 4
ENDMDL
MODEL 6
REMARK VINA RESULT:     -12.2      2.425      4.090
REMARK  Name = 89670174
REMARK  4 active torsions:
REMARK  status: ('A' for Active; 'I' for Inactive)
REMARK    1  A    between atoms: C_3  and  C_13
REMARK    2  A    between atoms: C_9  and  O_26
REMARK    3  A    between atoms: C_18  and  C_25
REMARK    4  A    between atoms: O_26  and  C_30
REMARK                            x       y       z     vdW  Elec       q    Type
REMARK                         _______ _______ _______ _____ _____    ______ ____
ROOT
ATOM      1  O   UNL     1      33.968 -15.472 -25.695  0.00  0.00    -0.479 OA
ATOM      2  C   UNL     1      35.070 -15.023 -23.559  0.00  0.00    +0.072 C 
ATOM      3  C   UNL     1      34.206 -16.238 -23.256  0.00  0.00    +0.085 C 
ATOM      4  C   UNL     1      34.806 -16.069 -24.635  0.00  0.00    +0.174 C 
ATOM      5  C   UNL     1      34.466 -13.805 -24.157  0.00  0.00    +0.018 C 
ATOM      6  C   UNL     1      33.862 -14.126 -25.380  0.00  0.00    +0.135 C 
ATOM      7  C   UNL     1      34.427 -12.496 -23.701  0.00  0.00    +0.036 C 
ATOM      8  C   UNL     1      33.213 -13.193 -26.164  0.00  0.00    +0.040 C 
ATOM      9  C   UNL     1      33.778 -11.532 -24.480  0.00  0.00    +0.145 C 
ATOM     10  C   UNL     1      33.176 -11.878 -25.703  0.00  0.00    +0.041 C 
ENDROOT
BRANCH   3  13
ATOM     11  N   UNL     1      33.947 -18.276 -21.755  0.00  0.00    -0.318 N 
ATOM     12  N   UNL     1      35.992 -17.436 -21.987  0.00  0.00    -0.318 N 
ATOM     13  C   UNL     1      34.730 -17.315 -22.332  0.00  0.00    +0.148 C 
ATOM     14  C   UNL     1      34.759 -19.071 -20.988  0.00  0.00    +0.059 C 
ATOM     15  C   UNL     1      36.030 -18.527 -21.149  0.00  0.00    +0.059 C 
ATOM     16  C   UNL     1      34.498 -20.187 -20.190  0.00  0.00    +0.019 C 
ATOM     17  C   UNL     1      37.117 -19.117 -20.483  0.00  0.00    +0.016 C 
ATOM     18  C   UNL     1      35.592 -20.761 -19.533  0.00  0.00    +0.073 C 
ATOM     19  C   UNL     1      36.879 -20.237 -19.677  0.00  0.00    +0.005 C 
ATOM     20  H   UNL     1      32.975 -18.379 -21.870  0.00  0.00    +0.148 HD
ATOM     21  H   UNL     1      36.747 -16.870 -22.268  0.00  0.00    +0.148 HD
BRANCH  18  25
ATOM     22  F   UNL     1      35.125 -23.100 -19.371  0.00  0.00    -0.166 F 
ATOM     23  F   UNL     1      36.447 -22.256 -17.874  0.00  0.00    -0.166 F 
ATOM     24  F   UNL     1      34.321 -21.807 -17.820  0.00  0.00    -0.166 F 
ATOM     25  C   UNL     1      35.378 -21.958 -18.668  0.00  0.00    +0.419 C 
ENDBRANCH  18  25
ENDBRANCH   3  13
BRANCH   9  26
ATOM     26  O   UNL     1      33.726 -10.220 -24.042  0.00  0.00    -0.454 OA
BRANCH  26  30
ATOM     27  O   UNL     1      32.353  -4.898 -20.885  0.00  0.00    -0.275 OA
ATOM     28  N   UNL     1      31.901  -7.149 -20.812  0.00  0.00    -0.270 N 
ATOM     29  N   UNL     1      31.464  -9.467 -20.640  0.00  0.00    -0.229 NA
ATOM     30  C   UNL     1      33.005  -9.957 -22.916  0.00  0.00    +0.146 C 
ATOM     31  C   UNL     1      32.859  -8.653 -22.439  0.00  0.00    +0.045 C 
ATOM     32  C   UNL     1      33.417  -7.479 -23.183  0.00  0.00    +0.042 C 
ATOM     33  C   UNL     1      32.397 -11.012 -22.246  0.00  0.00    +0.058 C 
ATOM     34  C   UNL     1      32.083  -8.458 -21.297  0.00  0.00    +0.133 C 
ATOM     35  C   UNL     1      33.723  -6.333 -22.233  0.00  0.00    +0.090 C 
ATOM     36  C   UNL     1      32.581  -6.042 -21.279  0.00  0.00    +0.227 C 
ATOM     37  C   UNL     1      31.642 -10.716 -21.126  0.00  0.00    +0.103 C 
ATOM     38  H   UNL     1      31.244  -7.013 -20.092  0.00  0.00    +0.156 HD
ENDBRANCH  26  30
ENDBRANCH   9  26
TORSDOF 4
ENDMDL
MODEL 7
REMARK VINA RESULT:     -12.1      6.731     12.366
REMARK  Name = 89670174
REMARK  4 active torsions:
REMARK  status: ('A' for Active; 'I' for Inactive)
REMARK    1  A    between atoms: C_3  and  C_13
REMARK    2  A    between atoms: C_9  and  O_26
REMARK    3  A    between atoms: C_18  and  C_25
REMARK    4  A    between atoms: O_26  and  C_30
REMARK                            x       y       z     vdW  Elec       q    Type
REMARK                         _______ _______ _______ _____ _____    ______ ____
ROOT
ATOM      1  O   UNL     1      31.023 -23.743 -15.763  0.00  0.00    -0.479 OA
ATOM      2  C   UNL     1      33.080 -22.422 -15.718  0.00  0.00    +0.072 C 
ATOM      3  C   UNL     1      32.995 -22.884 -17.164  0.00  0.00    +0.085 C 
ATOM      4  C   UNL     1      31.725 -22.605 -16.390  0.00  0.00    +0.174 C 
ATOM      5  C   UNL     1      33.011 -23.410 -14.611  0.00  0.00    +0.018 C 
ATOM      6  C   UNL     1      31.809 -24.125 -14.687  0.00  0.00    +0.135 C 
ATOM      7  C   UNL     1      33.909 -23.694 -13.593  0.00  0.00    +0.036 C 
ATOM      8  C   UNL     1      31.468 -25.117 -13.789  0.00  0.00    +0.040 C 
ATOM      9  C   UNL     1      33.585 -24.693 -12.669  0.00  0.00    +0.145 C 
ATOM     10  C   UNL     1      32.373 -25.399 -12.767  0.00  0.00    +0.041 C 
ENDROOT
BRANCH   3  13
ATOM     11  N   UNL     1      34.713 -21.538 -18.473  0.00  0.00    -0.318 N 
ATOM     12  N   UNL     1      32.601 -21.435 -19.159  0.00  0.00    -0.318 N 
ATOM     13  C   UNL     1      33.424 -21.949 -18.273  0.00  0.00    +0.148 C 
ATOM     14  C   UNL     1      34.722 -20.702 -19.561  0.00  0.00    +0.059 C 
ATOM     15  C   UNL     1      33.393 -20.654 -19.971  0.00  0.00    +0.059 C 
ATOM     16  C   UNL     1      35.748 -20.006 -20.201  0.00  0.00    +0.019 C 
ATOM     17  C   UNL     1      33.048 -19.870 -21.084  0.00  0.00    +0.016 C 
ATOM     18  C   UNL     1      35.386 -19.230 -21.308  0.00  0.00    +0.073 C 
ATOM     19  C   UNL     1      34.061 -19.162 -21.743  0.00  0.00    +0.005 C 
ATOM     20  H   UNL     1      35.495 -21.795 -17.933  0.00  0.00    +0.148 HD
ATOM     21  H   UNL     1      31.629 -21.577 -19.228  0.00  0.00    +0.148 HD
BRANCH  18  25
ATOM     22  F   UNL     1      36.230 -17.114 -22.037  0.00  0.00    -0.166 F 
ATOM     23  F   UNL     1      37.692 -18.631 -21.522  0.00  0.00    -0.166 F 
ATOM     24  F   UNL     1      36.531 -18.821 -23.350  0.00  0.00    -0.166 F 
ATOM     25  C   UNL     1      36.439 -18.464 -22.037  0.00  0.00    +0.419 C 
ENDBRANCH  18  25
ENDBRANCH   3  13
BRANCH   9  26
ATOM     26  O   UNL     1      34.468 -24.992 -11.647  0.00  0.00    -0.454 OA
BRANCH  26  30
ATOM     27  O   UNL     1      39.805 -26.285 -14.813  0.00  0.00    -0.275 OA
ATOM     28  N   UNL     1      38.968 -24.731 -13.344  0.00  0.00    -0.270 N 
ATOM     29  N   UNL     1      38.187 -23.146 -11.771  0.00  0.00    -0.229 NA
ATOM     30  C   UNL     1      35.700 -24.412 -11.685  0.00  0.00    +0.146 C 
ATOM     31  C   UNL     1      36.714 -24.918 -12.501  0.00  0.00    +0.045 C 
ATOM     32  C   UNL     1      36.471 -26.067 -13.430  0.00  0.00    +0.042 C 
ATOM     33  C   UNL     1      35.938 -23.288 -10.901  0.00  0.00    +0.058 C 
ATOM     34  C   UNL     1      37.940 -24.254 -12.509  0.00  0.00    +0.133 C 
ATOM     35  C   UNL     1      37.758 -26.834 -13.690  0.00  0.00    +0.090 C 
ATOM     36  C   UNL     1      38.921 -25.925 -14.036  0.00  0.00    +0.227 C 
ATOM     37  C   UNL     1      37.185 -22.697 -10.983  0.00  0.00    +0.103 C 
ATOM     38  H   UNL     1      39.776 -24.176 -13.441  0.00  0.00    +0.156 HD
ENDBRANCH  26  30
ENDBRANCH   9  26
TORSDOF 4
ENDMDL
MODEL 8
REMARK VINA RESULT:     -11.8      4.939      8.444
REMARK  Name = 89670174
REMARK  4 active torsions:
REMARK  status: ('A' for Active; 'I' for Inactive)
REMARK    1  A    between atoms: C_3  and  C_13
REMARK    2  A    between atoms: C_9  and  O_26
REMARK    3  A    between atoms: C_18  and  C_25
REMARK    4  A    between atoms: O_26  and  C_30
REMARK                            x       y       z     vdW  Elec       q    Type
REMARK                         _______ _______ _______ _____ _____    ______ ____
ROOT
ATOM      1  O   UNL     1      31.172 -10.489 -20.212  0.00  0.00    -0.479 OA
ATOM      2  C   UNL     1      32.679 -10.738 -22.121  0.00  0.00    +0.072 C 
ATOM      3  C   UNL     1      33.153 -11.818 -21.161  0.00  0.00    +0.085 C 
ATOM      4  C   UNL     1      31.686 -11.449 -21.210  0.00  0.00    +0.174 C 
ATOM      5  C   UNL     1      32.562  -9.329 -21.666  0.00  0.00    +0.018 C 
ATOM      6  C   UNL     1      31.679  -9.253 -20.580  0.00  0.00    +0.135 C 
ATOM      7  C   UNL     1      33.163  -8.172 -22.137  0.00  0.00    +0.036 C 
ATOM      8  C   UNL     1      31.376  -8.067 -19.942  0.00  0.00    +0.040 C 
ATOM      9  C   UNL     1      32.869  -6.957 -21.509  0.00  0.00    +0.145 C 
ATOM     10  C   UNL     1      31.982  -6.905 -20.419  0.00  0.00    +0.041 C 
ENDROOT
BRANCH   3  13
ATOM     11  N   UNL     1      34.182 -14.135 -20.943  0.00  0.00    -0.318 N 
ATOM     12  N   UNL     1      33.520 -13.501 -22.968  0.00  0.00    -0.318 N 
ATOM     13  C   UNL     1      33.615 -13.151 -21.705  0.00  0.00    +0.148 C 
ATOM     14  C   UNL     1      34.471 -15.190 -21.770  0.00  0.00    +0.059 C 
ATOM     15  C   UNL     1      34.049 -14.771 -23.028  0.00  0.00    +0.059 C 
ATOM     16  C   UNL     1      35.049 -16.438 -21.532  0.00  0.00    +0.019 C 
ATOM     17  C   UNL     1      34.204 -15.633 -24.126  0.00  0.00    +0.016 C 
ATOM     18  C   UNL     1      35.196 -17.285 -22.637  0.00  0.00    +0.073 C 
ATOM     19  C   UNL     1      34.781 -16.891 -23.911  0.00  0.00    +0.005 C 
ATOM     20  H   UNL     1      34.352 -14.094 -19.974  0.00  0.00    +0.148 HD
ATOM     21  H   UNL     1      33.150 -12.971 -23.711  0.00  0.00    +0.148 HD
BRANCH  18  25
ATOM     22  F   UNL     1      35.489 -19.210 -21.249  0.00  0.00    -0.166 F 
ATOM     23  F   UNL     1      35.424 -19.543 -23.390  0.00  0.00    -0.166 F 
ATOM     24  F   UNL     1      37.167 -18.604 -22.492  0.00  0.00    -0.166 F 
ATOM     25  C   UNL     1      35.804 -18.634 -22.446  0.00  0.00    +0.419 C 
ENDBRANCH  18  25
ENDBRANCH   3  13
BRANCH   9  26
ATOM     26  O   UNL     1      33.460  -5.791 -21.963  0.00  0.00    -0.454 OA
BRANCH  26  30
ATOM     27  O   UNL     1      34.049  -4.092 -28.041  0.00  0.00    -0.275 OA
ATOM     28  N   UNL     1      32.622  -3.796 -26.266  0.00  0.00    -0.270 N 
ATOM     29  N   UNL     1      31.158  -3.391 -24.452  0.00  0.00    -0.229 NA
ATOM     30  C   UNL     1      32.729  -4.991 -22.788  0.00  0.00    +0.146 C 
ATOM     31  C   UNL     1      33.097  -4.796 -24.121  0.00  0.00    +0.045 C 
ATOM     32  C   UNL     1      34.262  -5.518 -24.725  0.00  0.00    +0.042 C 
ATOM     33  C   UNL     1      31.589  -4.372 -22.287  0.00  0.00    +0.058 C 
ATOM     34  C   UNL     1      32.284  -3.986 -24.913  0.00  0.00    +0.133 C 
ATOM     35  C   UNL     1      34.858  -4.718 -25.872  0.00  0.00    +0.090 C 
ATOM     36  C   UNL     1      33.808  -4.210 -26.839  0.00  0.00    +0.227 C 
ATOM     37  C   UNL     1      30.844  -3.593 -23.154  0.00  0.00    +0.103 C 
ATOM     38  H   UNL     1      31.969  -3.337 -26.843  0.00  0.00    +0.156 HD
ENDBRANCH  26  30
ENDBRANCH   9  26
TORSDOF 4
ENDMDL
MODEL 9
REMARK VINA RESULT:     -11.6      2.348      3.589
REMARK  Name = 89670174
REMARK  4 active torsions:
REMARK  status: ('A' for Active; 'I' for Inactive)
REMARK    1  A    between atoms: C_3  and  C_13
REMARK    2  A    between atoms: C_9  and  O_26
REMARK    3  A    between atoms: C_18  and  C_25
REMARK    4  A    between atoms: O_26  and  C_30
REMARK                            x       y       z     vdW  Elec       q    Type
REMARK                         _______ _______ _______ _____ _____    ______ ____
ROOT
ATOM      1  O   UNL     1      34.897 -21.538 -21.036  0.00  0.00    -0.479 OA
ATOM      2  C   UNL     1      36.140 -20.517 -19.195  0.00  0.00    +0.072 C 
ATOM      3  C   UNL     1      35.081 -21.344 -18.483  0.00  0.00    +0.085 C 
ATOM      4  C   UNL     1      35.650 -21.828 -19.799  0.00  0.00    +0.174 C 
ATOM      5  C   UNL     1      35.749 -19.532 -20.234  0.00  0.00    +0.018 C 
ATOM      6  C   UNL     1      35.051 -20.179 -21.263  0.00  0.00    +0.135 C 
ATOM      7  C   UNL     1      35.966 -18.165 -20.314  0.00  0.00    +0.036 C 
ATOM      8  C   UNL     1      34.556 -19.515 -22.367  0.00  0.00    +0.040 C 
ATOM      9  C   UNL     1      35.477 -17.470 -21.426  0.00  0.00    +0.145 C 
ATOM     10  C   UNL     1      34.777 -18.140 -22.444  0.00  0.00    +0.041 C 
ENDROOT
BRANCH   3  13
ATOM     11  N   UNL     1      36.684 -22.083 -16.650  0.00  0.00    -0.318 N 
ATOM     12  N   UNL     1      34.568 -22.744 -16.480  0.00  0.00    -0.318 N 
ATOM     13  C   UNL     1      35.432 -22.063 -17.199  0.00  0.00    +0.148 C 
ATOM     14  C   UNL     1      36.624 -22.826 -15.499  0.00  0.00    +0.059 C 
ATOM     15  C   UNL     1      35.294 -23.227 -15.414  0.00  0.00    +0.059 C 
ATOM     16  C   UNL     1      37.591 -23.172 -14.553  0.00  0.00    +0.019 C 
ATOM     17  C   UNL     1      34.885 -24.019 -14.328  0.00  0.00    +0.016 C 
ATOM     18  C   UNL     1      37.166 -23.961 -13.479  0.00  0.00    +0.073 C 
ATOM     19  C   UNL     1      35.838 -24.378 -13.367  0.00  0.00    +0.005 C 
ATOM     20  H   UNL     1      37.485 -21.644 -17.016  0.00  0.00    +0.148 HD
ATOM     21  H   UNL     1      33.610 -22.878 -16.662  0.00  0.00    +0.148 HD
BRANCH  18  25
ATOM     22  F   UNL     1      37.721 -25.385 -11.639  0.00  0.00    -0.166 F 
ATOM     23  F   UNL     1      39.347 -24.783 -12.941  0.00  0.00    -0.166 F 
ATOM     24  F   UNL     1      38.455 -23.339 -11.582  0.00  0.00    -0.166 F 
ATOM     25  C   UNL     1      38.153 -24.361 -12.433  0.00  0.00    +0.419 C 
ENDBRANCH  18  25
ENDBRANCH   3  13
BRANCH   9  26
ATOM     26  O   UNL     1      35.682 -16.105 -21.523  0.00  0.00    -0.454 OA
BRANCH  26  30
ATOM     27  O   UNL     1      31.279 -11.620 -20.704  0.00  0.00    -0.275 OA
ATOM     28  N   UNL     1      32.332 -12.757 -22.399  0.00  0.00    -0.270 N 
ATOM     29  N   UNL     1      33.325 -13.953 -24.182  0.00  0.00    -0.229 NA
ATOM     30  C   UNL     1      34.886 -15.405 -22.379  0.00  0.00    +0.146 C 
ATOM     31  C   UNL     1      33.987 -14.445 -21.910  0.00  0.00    +0.045 C 
ATOM     32  C   UNL     1      33.913 -14.084 -20.458  0.00  0.00    +0.042 C 
ATOM     33  C   UNL     1      34.989 -15.649 -23.744  0.00  0.00    +0.058 C 
ATOM     34  C   UNL     1      33.226 -13.748 -22.847  0.00  0.00    +0.133 C 
ATOM     35  C   UNL     1      32.527 -13.576 -20.097  0.00  0.00    +0.090 C 
ATOM     36  C   UNL     1      32.012 -12.537 -21.074  0.00  0.00    +0.227 C 
ATOM     37  C   UNL     1      34.196 -14.900 -24.595  0.00  0.00    +0.103 C 
ATOM     38  H   UNL     1      31.905 -12.183 -23.075  0.00  0.00    +0.156 HD
ENDBRANCH  26  30
ENDBRANCH   9  26
TORSDOF 4
ENDMDL
