MODEL 1
REMARK VINA RESULT:     -11.9      0.000      0.000
REMARK  Name = 11659487
REMARK  5 active torsions:
REMARK  status: ('A' for Active; 'I' for Inactive)
REMARK    1  A    between atoms: C_1  and  C_15
REMARK    2  A    between atoms: C_2  and  C_7
REMARK    3  A    between atoms: C_10  and  O_13
REMARK    4  A    between atoms: C_15  and  C_16
REMARK    5  A    between atoms: C_16  and  C_18
REMARK                            x       y       z     vdW  Elec       q    Type
REMARK                         _______ _______ _______ _____ _____    ______ ____
ROOT
ATOM      1  C   UNL     1      34.489 -20.824 -19.610  0.00  0.00    -0.022 C 
ATOM      2  C   UNL     1      35.253 -19.127 -21.151  0.00  0.00    -0.000 C 
ATOM      3  C   UNL     1      34.222 -19.911 -20.630  0.00  0.00    -0.004 C 
ATOM      4  C   UNL     1      35.785 -20.955 -19.112  0.00  0.00    -0.004 C 
ATOM      5  C   UNL     1      36.549 -19.258 -20.653  0.00  0.00    -0.000 C 
ATOM      6  C   UNL     1      36.815 -20.172 -19.634  0.00  0.00    -0.000 C 
ENDROOT
BRANCH   2   7
ATOM      7  C   UNL     1      34.976 -18.179 -22.208  0.00  0.00    +0.003 C 
ATOM      8  C   UNL     1      35.269 -16.828 -22.027  0.00  0.00    +0.037 C 
ATOM      9  C   UNL     1      34.418 -18.616 -23.409  0.00  0.00    +0.000 C 
ATOM     10  C   UNL     1      35.003 -15.913 -23.046  0.00  0.00    +0.139 C 
ATOM     11  C   UNL     1      34.151 -17.703 -24.428  0.00  0.00    +0.003 C 
ATOM     12  C   UNL     1      34.444 -16.351 -24.247  0.00  0.00    +0.037 C 
BRANCH  10  13
ATOM     13  O   UNL     1      35.289 -14.594 -22.870  0.00  0.00    -0.471 OA
ATOM     14  C   UNL     1      34.184 -13.702 -22.730  0.00  0.00    +0.252 C 
ENDBRANCH  10  13
ENDBRANCH   2   7
BRANCH   1  15
ATOM     15  C   UNL     1      33.388 -21.662 -19.053  0.00  0.00    +0.034 C 
BRANCH  15  16
ATOM     16  C   UNL     1      33.863 -22.737 -18.054  0.00  0.00    +0.064 C 
BRANCH  16  18
ATOM     17  N   UNL     1      31.625 -22.694 -17.128  0.00  0.00    -0.396 NA
ATOM     18  C   UNL     1      32.929 -22.910 -16.880  0.00  0.00    +0.110 C 
ATOM     19  C   UNL     1      33.458 -23.269 -15.660  0.00  0.00    +0.023 C 
ATOM     20  C   UNL     1      32.571 -23.421 -14.600  0.00  0.00    -0.015 C 
ATOM     21  C   UNL     1      30.794 -22.850 -16.074  0.00  0.00    +0.158 C 
ATOM     22  C   UNL     1      31.212 -23.209 -14.802  0.00  0.00    +0.100 C 
ATOM     23  N   UNL     1      29.405 -22.639 -16.264  0.00  0.00    -0.336 N 
ATOM     24  H   UNL     1      29.064 -22.382 -17.151  0.00  0.00    +0.144 HD
ATOM     25  H   UNL     1      28.783 -22.747 -15.509  0.00  0.00    +0.144 HD
ENDBRANCH  16  18
ENDBRANCH  15  16
ENDBRANCH   1  15
TORSDOF 5
ENDMDL
MODEL 2
REMARK VINA RESULT:     -11.8      1.326      1.750
REMARK  Name = 11659487
REMARK  5 active torsions:
REMARK  status: ('A' for Active; 'I' for Inactive)
REMARK    1  A    between atoms: C_1  and  C_15
REMARK    2  A    between atoms: C_2  and  C_7
REMARK    3  A    between atoms: C_10  and  O_13
REMARK    4  A    between atoms: C_15  and  C_16
REMARK    5  A    between atoms: C_16  and  C_18
REMARK                            x       y       z     vdW  Elec       q    Type
REMARK                         _______ _______ _______ _____ _____    ______ ____
ROOT
ATOM      1  C   UNL     1      34.438 -20.836 -19.531  0.00  0.00    -0.022 C 
ATOM      2  C   UNL     1      35.215 -19.197 -21.127  0.00  0.00    -0.000 C 
ATOM      3  C   UNL     1      34.175 -19.943 -20.570  0.00  0.00    -0.004 C 
ATOM      4  C   UNL     1      35.739 -20.984 -19.050  0.00  0.00    -0.004 C 
ATOM      5  C   UNL     1      36.515 -19.345 -20.647  0.00  0.00    -0.000 C 
ATOM      6  C   UNL     1      36.778 -20.239 -19.608  0.00  0.00    -0.000 C 
ENDROOT
BRANCH   2   7
ATOM      7  C   UNL     1      34.943 -18.270 -22.204  0.00  0.00    +0.003 C 
ATOM      8  C   UNL     1      35.255 -16.919 -22.057  0.00  0.00    +0.037 C 
ATOM      9  C   UNL     1      34.369 -18.727 -23.390  0.00  0.00    +0.000 C 
ATOM     10  C   UNL     1      34.993 -16.025 -23.095  0.00  0.00    +0.139 C 
ATOM     11  C   UNL     1      34.106 -17.835 -24.428  0.00  0.00    +0.003 C 
ATOM     12  C   UNL     1      34.419 -16.483 -24.281  0.00  0.00    +0.037 C 
BRANCH  10  13
ATOM     13  O   UNL     1      35.298 -14.706 -22.952  0.00  0.00    -0.471 OA
ATOM     14  C   UNL     1      34.526 -13.959 -22.013  0.00  0.00    +0.252 C 
ENDBRANCH  10  13
ENDBRANCH   2   7
BRANCH   1  15
ATOM     15  C   UNL     1      33.328 -21.633 -18.934  0.00  0.00    +0.034 C 
BRANCH  15  16
ATOM     16  C   UNL     1      33.776 -22.982 -18.335  0.00  0.00    +0.064 C 
BRANCH  16  18
ATOM     17  N   UNL     1      34.414 -23.452 -16.046  0.00  0.00    -0.396 NA
ATOM     18  C   UNL     1      33.406 -23.137 -16.879  0.00  0.00    +0.110 C 
ATOM     19  C   UNL     1      32.093 -22.952 -16.506  0.00  0.00    +0.023 C 
ATOM     20  C   UNL     1      31.786 -23.102 -15.158  0.00  0.00    -0.015 C 
ATOM     21  C   UNL     1      34.078 -23.590 -14.745  0.00  0.00    +0.158 C 
ATOM     22  C   UNL     1      32.791 -23.427 -14.254  0.00  0.00    +0.100 C 
ATOM     23  N   UNL     1      35.091 -23.920 -13.810  0.00  0.00    -0.336 N 
ATOM     24  H   UNL     1      36.018 -24.046 -14.115  0.00  0.00    +0.144 HD
ATOM     25  H   UNL     1      34.866 -24.025 -12.857  0.00  0.00    +0.144 HD
ENDBRANCH  16  18
ENDBRANCH  15  16
ENDBRANCH   1  15
TORSDOF 5
ENDMDL
MODEL 3
REMARK VINA RESULT:     -11.6      4.299      8.574
REMARK  Name = 11659487
REMARK  5 active torsions:
REMARK  status: ('A' for Active; 'I' for Inactive)
REMARK    1  A    between atoms: C_1  and  C_15
REMARK    2  A    between atoms: C_2  and  C_7
REMARK    3  A    between atoms: C_10  and  O_13
REMARK    4  A    between atoms: C_15  and  C_16
REMARK    5  A    between atoms: C_16  and  C_18
REMARK                            x       y       z     vdW  Elec       q    Type
REMARK                         _______ _______ _______ _____ _____    ______ ____
ROOT
ATOM      1  C   UNL     1      35.086 -18.786 -22.237  0.00  0.00    -0.022 C 
ATOM      2  C   UNL     1      35.416 -20.079 -20.223  0.00  0.00    -0.000 C 
ATOM      3  C   UNL     1      34.592 -19.658 -21.268  0.00  0.00    -0.004 C 
ATOM      4  C   UNL     1      36.404 -18.332 -22.161  0.00  0.00    -0.004 C 
ATOM      5  C   UNL     1      36.733 -19.626 -20.146  0.00  0.00    -0.000 C 
ATOM      6  C   UNL     1      37.227 -18.752 -21.115  0.00  0.00    -0.000 C 
ENDROOT
BRANCH   2   7
ATOM      7  C   UNL     1      34.904 -20.985 -19.218  0.00  0.00    +0.003 C 
ATOM      8  C   UNL     1      35.762 -21.519 -18.257  0.00  0.00    +0.037 C 
ATOM      9  C   UNL     1      33.551 -21.324 -19.210  0.00  0.00    +0.000 C 
ATOM     10  C   UNL     1      35.267 -22.392 -17.289  0.00  0.00    +0.139 C 
ATOM     11  C   UNL     1      33.056 -22.198 -18.242  0.00  0.00    +0.003 C 
ATOM     12  C   UNL     1      33.915 -22.732 -17.280  0.00  0.00    +0.037 C 
BRANCH  10  13
ATOM     13  O   UNL     1      36.105 -22.914 -16.350  0.00  0.00    -0.471 OA
ATOM     14  C   UNL     1      37.141 -22.064 -15.860  0.00  0.00    +0.252 C 
ENDBRANCH  10  13
ENDBRANCH   2   7
BRANCH   1  15
ATOM     15  C   UNL     1      34.207 -18.336 -23.354  0.00  0.00    +0.034 C 
BRANCH  15  16
ATOM     16  C   UNL     1      34.861 -17.297 -24.288  0.00  0.00    +0.064 C 
BRANCH  16  18
ATOM     17  N   UNL     1      33.614 -15.321 -24.926  0.00  0.00    -0.396 NA
ATOM     18  C   UNL     1      34.418 -15.882 -24.005  0.00  0.00    +0.110 C 
ATOM     19  C   UNL     1      34.856 -15.269 -22.852  0.00  0.00    +0.023 C 
ATOM     20  C   UNL     1      34.429 -13.966 -22.621  0.00  0.00    -0.015 C 
ATOM     21  C   UNL     1      33.221 -14.055 -24.669  0.00  0.00    +0.158 C 
ATOM     22  C   UNL     1      33.597 -13.340 -23.542  0.00  0.00    +0.100 C 
ATOM     23  N   UNL     1      32.371 -13.403 -25.597  0.00  0.00    -0.336 N 
ATOM     24  H   UNL     1      32.080 -13.872 -26.411  0.00  0.00    +0.144 HD
ATOM     25  H   UNL     1      32.074 -12.479 -25.427  0.00  0.00    +0.144 HD
ENDBRANCH  16  18
ENDBRANCH  15  16
ENDBRANCH   1  15
TORSDOF 5
ENDMDL
MODEL 4
REMARK VINA RESULT:     -11.5      4.604      9.338
REMARK  Name = 11659487
REMARK  5 active torsions:
REMARK  status: ('A' for Active; 'I' for Inactive)
REMARK    1  A    between atoms: C_1  and  C_15
REMARK    2  A    between atoms: C_2  and  C_7
REMARK    3  A    between atoms: C_10  and  O_13
REMARK    4  A    between atoms: C_15  and  C_16
REMARK    5  A    between atoms: C_16  and  C_18
REMARK                            x       y       z     vdW  Elec       q    Type
REMARK                         _______ _______ _______ _____ _____    ______ ____
ROOT
ATOM      1  C   UNL     1      34.990 -16.686 -22.221  0.00  0.00    -0.022 C 
ATOM      2  C   UNL     1      34.929 -18.988 -21.488  0.00  0.00    -0.000 C 
ATOM      3  C   UNL     1      35.069 -17.630 -21.197  0.00  0.00    -0.004 C 
ATOM      4  C   UNL     1      34.773 -17.099 -23.535  0.00  0.00    -0.004 C 
ATOM      5  C   UNL     1      34.712 -19.401 -22.802  0.00  0.00    -0.000 C 
ATOM      6  C   UNL     1      34.634 -18.457 -23.826  0.00  0.00    -0.000 C 
ENDROOT
BRANCH   2   7
ATOM      7  C   UNL     1      35.009 -19.967 -20.426  0.00  0.00    +0.003 C 
ATOM      8  C   UNL     1      33.846 -20.555 -19.930  0.00  0.00    +0.037 C 
ATOM      9  C   UNL     1      36.250 -20.324 -19.899  0.00  0.00    +0.000 C 
ATOM     10  C   UNL     1      33.924 -21.499 -18.906  0.00  0.00    +0.139 C 
ATOM     11  C   UNL     1      36.328 -21.268 -18.875  0.00  0.00    +0.003 C 
ATOM     12  C   UNL     1      35.164 -21.856 -18.379  0.00  0.00    +0.037 C 
BRANCH  10  13
ATOM     13  O   UNL     1      32.788 -22.074 -18.422  0.00  0.00    -0.471 OA
ATOM     14  C   UNL     1      32.917 -22.886 -17.257  0.00  0.00    +0.252 C 
ENDBRANCH  10  13
ENDBRANCH   2   7
BRANCH   1  15
ATOM     15  C   UNL     1      35.139 -15.235 -21.911  0.00  0.00    +0.034 C 
BRANCH  15  16
ATOM     16  C   UNL     1      33.824 -14.436 -22.001  0.00  0.00    +0.064 C 
BRANCH  16  18
ATOM     17  N   UNL     1      34.309 -12.284 -23.002  0.00  0.00    -0.396 NA
ATOM     18  C   UNL     1      33.775 -13.504 -23.188  0.00  0.00    +0.110 C 
ATOM     19  C   UNL     1      33.200 -13.951 -24.358  0.00  0.00    +0.023 C 
ATOM     20  C   UNL     1      33.172 -13.069 -25.432  0.00  0.00    -0.015 C 
ATOM     21  C   UNL     1      34.262 -11.454 -24.067  0.00  0.00    +0.158 C 
ATOM     22  C   UNL     1      33.710 -11.795 -25.292  0.00  0.00    +0.100 C 
ATOM     23  N   UNL     1      34.808 -10.152 -23.941  0.00  0.00    -0.336 N 
ATOM     24  H   UNL     1      35.209  -9.868 -23.089  0.00  0.00    +0.144 HD
ATOM     25  H   UNL     1      34.784  -9.532 -24.706  0.00  0.00    +0.144 HD
ENDBRANCH  16  18
ENDBRANCH  15  16
ENDBRANCH   1  15
TORSDOF 5
ENDMDL
MODEL 5
REMARK VINA RESULT:     -11.4      4.573      8.716
REMARK  Name = 11659487
REMARK  5 active torsions:
REMARK  status: ('A' for Active; 'I' for Inactive)
REMARK    1  A    between atoms: C_1  and  C_15
REMARK    2  A    between atoms: C_2  and  C_7
REMARK    3  A    between atoms: C_10  and  O_13
REMARK    4  A    between atoms: C_15  and  C_16
REMARK    5  A    between atoms: C_16  and  C_18
REMARK                            x       y       z     vdW  Elec       q    Type
REMARK                         _______ _______ _______ _____ _____    ______ ____
ROOT
ATOM      1  C   UNL     1      34.938 -16.649 -21.876  0.00  0.00    -0.022 C 
ATOM      2  C   UNL     1      34.897 -18.992 -21.286  0.00  0.00    -0.000 C 
ATOM      3  C   UNL     1      34.988 -17.651 -20.908  0.00  0.00    -0.004 C 
ATOM      4  C   UNL     1      34.798 -16.987 -23.223  0.00  0.00    -0.004 C 
ATOM      5  C   UNL     1      34.757 -19.329 -22.631  0.00  0.00    -0.000 C 
ATOM      6  C   UNL     1      34.708 -18.327 -23.600  0.00  0.00    -0.000 C 
ENDROOT
BRANCH   2   7
ATOM      7  C   UNL     1      34.948 -20.031 -20.281  0.00  0.00    +0.003 C 
ATOM      8  C   UNL     1      33.767 -20.605 -19.811  0.00  0.00    +0.037 C 
ATOM      9  C   UNL     1      36.178 -20.461 -19.783  0.00  0.00    +0.000 C 
ATOM     10  C   UNL     1      33.816 -21.608 -18.842  0.00  0.00    +0.139 C 
ATOM     11  C   UNL     1      36.228 -21.463 -18.815  0.00  0.00    +0.003 C 
ATOM     12  C   UNL     1      35.046 -22.038 -18.344  0.00  0.00    +0.037 C 
BRANCH  10  13
ATOM     13  O   UNL     1      32.663 -22.169 -18.383  0.00  0.00    -0.471 OA
ATOM     14  C   UNL     1      32.712 -22.802 -17.106  0.00  0.00    +0.252 C 
ENDBRANCH  10  13
ENDBRANCH   2   7
BRANCH   1  15
ATOM     15  C   UNL     1      35.035 -15.217 -21.474  0.00  0.00    +0.034 C 
BRANCH  15  16
ATOM     16  C   UNL     1      34.442 -14.234 -22.503  0.00  0.00    +0.064 C 
BRANCH  16  18
ATOM     17  N   UNL     1      33.396 -12.050 -22.513  0.00  0.00    -0.396 NA
ATOM     18  C   UNL     1      33.485 -13.239 -21.892  0.00  0.00    +0.110 C 
ATOM     19  C   UNL     1      32.782 -13.604 -20.765  0.00  0.00    +0.023 C 
ATOM     20  C   UNL     1      31.908 -12.665 -20.227  0.00  0.00    -0.015 C 
ATOM     21  C   UNL     1      32.538 -11.163 -21.962  0.00  0.00    +0.158 C 
ATOM     22  C   UNL     1      31.778 -11.419 -20.830  0.00  0.00    +0.100 C 
ATOM     23  N   UNL     1      32.393  -9.889 -22.565  0.00  0.00    -0.336 N 
ATOM     24  H   UNL     1      32.913  -9.664 -23.369  0.00  0.00    +0.144 HD
ATOM     25  H   UNL     1      31.773  -9.229 -22.179  0.00  0.00    +0.144 HD
ENDBRANCH  16  18
ENDBRANCH  15  16
ENDBRANCH   1  15
TORSDOF 5
ENDMDL
MODEL 6
REMARK VINA RESULT:     -11.4      1.404      2.119
REMARK  Name = 11659487
REMARK  5 active torsions:
REMARK  status: ('A' for Active; 'I' for Inactive)
REMARK    1  A    between atoms: C_1  and  C_15
REMARK    2  A    between atoms: C_2  and  C_7
REMARK    3  A    between atoms: C_10  and  O_13
REMARK    4  A    between atoms: C_15  and  C_16
REMARK    5  A    between atoms: C_16  and  C_18
REMARK                            x       y       z     vdW  Elec       q    Type
REMARK                         _______ _______ _______ _____ _____    ______ ____
ROOT
ATOM      1  C   UNL     1      34.255 -21.512 -18.875  0.00  0.00    -0.022 C 
ATOM      2  C   UNL     1      35.261 -19.839 -20.298  0.00  0.00    -0.000 C 
ATOM      3  C   UNL     1      34.127 -20.500 -19.825  0.00  0.00    -0.004 C 
ATOM      4  C   UNL     1      35.518 -21.865 -18.397  0.00  0.00    -0.004 C 
ATOM      5  C   UNL     1      36.523 -20.191 -19.821  0.00  0.00    -0.000 C 
ATOM      6  C   UNL     1      36.652 -21.204 -18.871  0.00  0.00    -0.000 C 
ENDROOT
BRANCH   2   7
ATOM      7  C   UNL     1      35.128 -18.788 -21.283  0.00  0.00    +0.003 C 
ATOM      8  C   UNL     1      34.669 -19.087 -22.565  0.00  0.00    +0.037 C 
ATOM      9  C   UNL     1      35.456 -17.474 -20.950  0.00  0.00    +0.000 C 
ATOM     10  C   UNL     1      34.540 -18.073 -23.515  0.00  0.00    +0.139 C 
ATOM     11  C   UNL     1      35.327 -16.460 -21.898  0.00  0.00    +0.003 C 
ATOM     12  C   UNL     1      34.868 -16.760 -23.181  0.00  0.00    +0.037 C 
BRANCH  10  13
ATOM     13  O   UNL     1      34.092 -18.366 -24.767  0.00  0.00    -0.471 OA
ATOM     14  C   UNL     1      32.699 -18.639 -24.912  0.00  0.00    +0.252 C 
ENDBRANCH  10  13
ENDBRANCH   2   7
BRANCH   1  15
ATOM     15  C   UNL     1      33.044 -22.219 -18.369  0.00  0.00    +0.034 C 
BRANCH  15  16
ATOM     16  C   UNL     1      33.265 -22.973 -17.042  0.00  0.00    +0.064 C 
BRANCH  16  18
ATOM     17  N   UNL     1      30.863 -22.820 -16.775  0.00  0.00    -0.396 NA
ATOM     18  C   UNL     1      32.044 -22.985 -16.154  0.00  0.00    +0.110 C 
ATOM     19  C   UNL     1      32.214 -23.157 -14.798  0.00  0.00    +0.023 C 
ATOM     20  C   UNL     1      31.069 -23.163 -14.008  0.00  0.00    -0.015 C 
ATOM     21  C   UNL     1      29.774 -22.831 -15.976  0.00  0.00    +0.158 C 
ATOM     22  C   UNL     1      29.822 -22.997 -14.600  0.00  0.00    +0.100 C 
ATOM     23  N   UNL     1      28.495 -22.664 -16.564  0.00  0.00    -0.336 N 
ATOM     24  H   UNL     1      28.414 -22.543 -17.537  0.00  0.00    +0.144 HD
ATOM     25  H   UNL     1      27.689 -22.669 -15.999  0.00  0.00    +0.144 HD
ENDBRANCH  16  18
ENDBRANCH  15  16
ENDBRANCH   1  15
TORSDOF 5
ENDMDL
MODEL 7
REMARK VINA RESULT:     -11.4      2.806      5.053
REMARK  Name = 11659487
REMARK  5 active torsions:
REMARK  status: ('A' for Active; 'I' for Inactive)
REMARK    1  A    between atoms: C_1  and  C_15
REMARK    2  A    between atoms: C_2  and  C_7
REMARK    3  A    between atoms: C_10  and  O_13
REMARK    4  A    between atoms: C_15  and  C_16
REMARK    5  A    between atoms: C_16  and  C_18
REMARK                            x       y       z     vdW  Elec       q    Type
REMARK                         _______ _______ _______ _____ _____    ______ ____
ROOT
ATOM      1  C   UNL     1      35.285 -16.736 -21.727  0.00  0.00    -0.022 C 
ATOM      2  C   UNL     1      34.452 -14.569 -22.395  0.00  0.00    -0.000 C 
ATOM      3  C   UNL     1      34.925 -15.838 -22.732  0.00  0.00    -0.004 C 
ATOM      4  C   UNL     1      35.175 -16.365 -20.387  0.00  0.00    -0.004 C 
ATOM      5  C   UNL     1      34.341 -14.198 -21.056  0.00  0.00    -0.000 C 
ATOM      6  C   UNL     1      34.703 -15.096 -20.051  0.00  0.00    -0.000 C 
ENDROOT
BRANCH   2   7
ATOM      7  C   UNL     1      34.076 -13.638 -23.437  0.00  0.00    +0.003 C 
ATOM      8  C   UNL     1      34.220 -12.266 -23.232  0.00  0.00    +0.037 C 
ATOM      9  C   UNL     1      33.571 -14.112 -24.647  0.00  0.00    +0.000 C 
ATOM     10  C   UNL     1      33.858 -11.369 -24.237  0.00  0.00    +0.139 C 
ATOM     11  C   UNL     1      33.209 -13.216 -25.652  0.00  0.00    +0.003 C 
ATOM     12  C   UNL     1      33.353 -11.843 -25.447  0.00  0.00    +0.037 C 
BRANCH  10  13
ATOM     13  O   UNL     1      33.998 -10.029 -24.036  0.00  0.00    -0.471 OA
ATOM     14  C   UNL     1      33.184  -9.434 -23.028  0.00  0.00    +0.252 C 
ENDBRANCH  10  13
ENDBRANCH   2   7
BRANCH   1  15
ATOM     15  C   UNL     1      35.790 -18.093 -22.086  0.00  0.00    +0.034 C 
BRANCH  15  16
ATOM     16  C   UNL     1      36.590 -18.782 -20.961  0.00  0.00    +0.064 C 
BRANCH  16  18
ATOM     17  N   UNL     1      34.461 -19.788 -20.395  0.00  0.00    -0.396 NA
ATOM     18  C   UNL     1      35.794 -19.831 -20.223  0.00  0.00    +0.110 C 
ATOM     19  C   UNL     1      36.467 -20.742 -19.440  0.00  0.00    +0.023 C 
ATOM     20  C   UNL     1      35.704 -21.696 -18.773  0.00  0.00    -0.015 C 
ATOM     21  C   UNL     1      33.753 -20.728 -19.732  0.00  0.00    +0.158 C 
ATOM     22  C   UNL     1      34.321 -21.696 -18.917  0.00  0.00    +0.100 C 
ATOM     23  N   UNL     1      32.343 -20.743 -19.868  0.00  0.00    -0.336 N 
ATOM     24  H   UNL     1      31.897 -20.074 -20.436  0.00  0.00    +0.144 HD
ATOM     25  H   UNL     1      31.809 -21.420 -19.393  0.00  0.00    +0.144 HD
ENDBRANCH  16  18
ENDBRANCH  15  16
ENDBRANCH   1  15
TORSDOF 5
ENDMDL
MODEL 8
REMARK VINA RESULT:     -11.2      2.923      3.841
REMARK  Name = 11659487
REMARK  5 active torsions:
REMARK  status: ('A' for Active; 'I' for Inactive)
REMARK    1  A    between atoms: C_1  and  C_15
REMARK    2  A    between atoms: C_2  and  C_7
REMARK    3  A    between atoms: C_10  and  O_13
REMARK    4  A    between atoms: C_15  and  C_16
REMARK    5  A    between atoms: C_16  and  C_18
REMARK                            x       y       z     vdW  Elec       q    Type
REMARK                         _______ _______ _______ _____ _____    ______ ____
ROOT
ATOM      1  C   UNL     1      35.673 -21.349 -18.653  0.00  0.00    -0.022 C 
ATOM      2  C   UNL     1      34.636 -19.983 -20.355  0.00  0.00    -0.000 C 
ATOM      3  C   UNL     1      35.780 -20.415 -19.682  0.00  0.00    -0.004 C 
ATOM      4  C   UNL     1      34.421 -21.851 -18.294  0.00  0.00    -0.004 C 
ATOM      5  C   UNL     1      33.386 -20.484 -19.997  0.00  0.00    -0.000 C 
ATOM      6  C   UNL     1      33.277 -21.418 -18.966  0.00  0.00    -0.000 C 
ENDROOT
BRANCH   2   7
ATOM      7  C   UNL     1      34.749 -19.015 -21.424  0.00  0.00    +0.003 C 
ATOM      8  C   UNL     1      35.057 -17.687 -21.133  0.00  0.00    +0.037 C 
ATOM      9  C   UNL     1      34.550 -19.411 -22.747  0.00  0.00    +0.000 C 
ATOM     10  C   UNL     1      35.165 -16.754 -22.165  0.00  0.00    +0.139 C 
ATOM     11  C   UNL     1      34.659 -18.479 -23.778  0.00  0.00    +0.003 C 
ATOM     12  C   UNL     1      34.967 -17.150 -23.487  0.00  0.00    +0.037 C 
BRANCH  10  13
ATOM     13  O   UNL     1      35.466 -15.456 -21.881  0.00  0.00    -0.471 OA
ATOM     14  C   UNL     1      34.692 -14.452 -22.533  0.00  0.00    +0.252 C 
ENDBRANCH  10  13
ENDBRANCH   2   7
BRANCH   1  15
ATOM     15  C   UNL     1      36.894 -21.812 -17.933  0.00  0.00    +0.034 C 
BRANCH  15  16
ATOM     16  C   UNL     1      36.912 -21.456 -16.433  0.00  0.00    +0.064 C 
BRANCH  16  18
ATOM     17  N   UNL     1      37.931 -23.221 -15.124  0.00  0.00    -0.396 NA
ATOM     18  C   UNL     1      36.779 -22.662 -15.535  0.00  0.00    +0.110 C 
ATOM     19  C   UNL     1      35.517 -23.104 -15.201  0.00  0.00    +0.023 C 
ATOM     20  C   UNL     1      35.430 -24.217 -14.372  0.00  0.00    -0.015 C 
ATOM     21  C   UNL     1      37.807 -24.300 -14.321  0.00  0.00    +0.158 C 
ATOM     22  C   UNL     1      36.592 -24.832 -13.919  0.00  0.00    +0.100 C 
ATOM     23  N   UNL     1      38.982 -24.938 -13.850  0.00  0.00    -0.336 N 
ATOM     24  H   UNL     1      39.866 -24.594 -14.110  0.00  0.00    +0.144 HD
ATOM     25  H   UNL     1      38.912 -25.726 -13.264  0.00  0.00    +0.144 HD
ENDBRANCH  16  18
ENDBRANCH  15  16
ENDBRANCH   1  15
TORSDOF 5
ENDMDL
MODEL 9
REMARK VINA RESULT:     -11.1      4.557      8.623
REMARK  Name = 11659487
REMARK  5 active torsions:
REMARK  status: ('A' for Active; 'I' for Inactive)
REMARK    1  A    between atoms: C_1  and  C_15
REMARK    2  A    between atoms: C_2  and  C_7
REMARK    3  A    between atoms: C_10  and  O_13
REMARK    4  A    between atoms: C_15  and  C_16
REMARK    5  A    between atoms: C_16  and  C_18
REMARK                            x       y       z     vdW  Elec       q    Type
REMARK                         _______ _______ _______ _____ _____    ______ ____
ROOT
ATOM      1  C   UNL     1      34.998 -16.788 -21.928  0.00  0.00    -0.022 C 
ATOM      2  C   UNL     1      34.762 -19.105 -21.284  0.00  0.00    -0.000 C 
ATOM      3  C   UNL     1      34.898 -17.761 -20.934  0.00  0.00    -0.004 C 
ATOM      4  C   UNL     1      34.964 -17.159 -23.272  0.00  0.00    -0.004 C 
ATOM      5  C   UNL     1      34.728 -19.475 -22.628  0.00  0.00    -0.000 C 
ATOM      6  C   UNL     1      34.829 -18.502 -23.622  0.00  0.00    -0.000 C 
ENDROOT
BRANCH   2   7
ATOM      7  C   UNL     1      34.657 -20.114 -20.253  0.00  0.00    +0.003 C 
ATOM      8  C   UNL     1      35.805 -20.580 -19.613  0.00  0.00    +0.037 C 
ATOM      9  C   UNL     1      33.407 -20.620 -19.897  0.00  0.00    +0.000 C 
ATOM     10  C   UNL     1      35.703 -21.552 -18.618  0.00  0.00    +0.139 C 
ATOM     11  C   UNL     1      33.304 -21.592 -18.903  0.00  0.00    +0.003 C 
ATOM     12  C   UNL     1      34.453 -22.058 -18.262  0.00  0.00    +0.037 C 
BRANCH  10  13
ATOM     13  O   UNL     1      36.824 -22.007 -17.993  0.00  0.00    -0.471 OA
ATOM     14  C   UNL     1      36.845 -21.943 -16.568  0.00  0.00    +0.252 C 
ENDBRANCH  10  13
ENDBRANCH   2   7
BRANCH   1  15
ATOM     15  C   UNL     1      35.142 -15.351 -21.555  0.00  0.00    +0.034 C 
BRANCH  15  16
ATOM     16  C   UNL     1      34.515 -14.373 -22.568  0.00  0.00    +0.064 C 
BRANCH  16  18
ATOM     17  N   UNL     1      33.473 -12.187 -22.549  0.00  0.00    -0.396 NA
ATOM     18  C   UNL     1      33.578 -13.376 -21.930  0.00  0.00    +0.110 C 
ATOM     19  C   UNL     1      32.907 -13.739 -20.783  0.00  0.00    +0.023 C 
ATOM     20  C   UNL     1      32.051 -12.798 -20.221  0.00  0.00    -0.015 C 
ATOM     21  C   UNL     1      32.634 -11.298 -21.974  0.00  0.00    +0.158 C 
ATOM     22  C   UNL     1      31.906 -11.552 -20.821  0.00  0.00    +0.100 C 
ATOM     23  N   UNL     1      32.474 -10.024 -22.574  0.00  0.00    -0.336 N 
ATOM     24  H   UNL     1      32.971  -9.801 -23.393  0.00  0.00    +0.144 HD
ATOM     25  H   UNL     1      31.867  -9.363 -22.170  0.00  0.00    +0.144 HD
ENDBRANCH  16  18
ENDBRANCH  15  16
ENDBRANCH   1  15
TORSDOF 5
ENDMDL
