MODEL 1
REMARK VINA RESULT:     -11.5      0.000      0.000
REMARK  Name = 9896504
REMARK  6 active torsions:
REMARK  status: ('A' for Active; 'I' for Inactive)
REMARK    1  A    between atoms: N_4  and  C_22
REMARK    2  A    between atoms: C_11  and  C_13
REMARK    3  A    between atoms: C_13  and  O_14
REMARK    4  A    between atoms: O_14  and  C_15
REMARK    5  A    between atoms: C_15  and  C_16
REMARK    6  A    between atoms: C_22  and  C_23
REMARK                            x       y       z     vdW  Elec       q    Type
REMARK                         _______ _______ _______ _____ _____    ______ ____
ROOT
ATOM      1  S   UNL     1      33.810 -14.984 -24.074  0.00  0.00    -0.064 S 
ATOM      2  O   UNL     1      35.719 -16.807 -19.929  0.00  0.00    -0.251 OA
ATOM      3  O   UNL     1      35.241 -19.807 -23.494  0.00  0.00    -0.269 OA
ATOM      4  N   UNL     1      35.516 -18.355 -21.675  0.00  0.00    -0.206 N 
ATOM      5  N   UNL     1      34.840 -16.117 -21.950  0.00  0.00    -0.214 N 
ATOM      6  C   UNL     1      34.456 -16.376 -23.246  0.00  0.00    +0.094 C 
ATOM      7  C   UNL     1      35.386 -17.066 -21.087  0.00  0.00    +0.321 C 
ATOM      8  C   UNL     1      35.138 -18.690 -22.988  0.00  0.00    +0.258 C 
ATOM      9  C   UNL     1      34.573 -17.583 -23.799  0.00  0.00    +0.080 C 
ATOM     10  C   UNL     1      34.607 -14.796 -21.641  0.00  0.00    +0.087 C 
ATOM     11  C   UNL     1      34.077 -14.081 -22.634  0.00  0.00    +0.122 C 
ENDROOT
BRANCH  11  13
ATOM     12  O   UNL     1      33.984 -11.854 -23.438  0.00  0.00    -0.244 OA
ATOM     13  C   UNL     1      33.740 -12.670 -22.555  0.00  0.00    +0.349 C 
BRANCH  13  14
ATOM     14  O   UNL     1      33.125 -12.424 -21.365  0.00  0.00    -0.440 OA
BRANCH  14  15
ATOM     15  C   UNL     1      31.802 -11.886 -21.447  0.00  0.00    +0.235 C 
BRANCH  15  16
ATOM     16  C   UNL     1      31.828 -10.454 -20.999  0.00  0.00    +0.021 C 
ATOM     17  C   UNL     1      31.863 -10.157 -19.642  0.00  0.00    -0.001 C 
ATOM     18  C   UNL     1      31.815  -9.436 -21.947  0.00  0.00    -0.001 C 
ATOM     19  C   UNL     1      31.888  -8.825 -19.226  0.00  0.00    -0.000 C 
ATOM     20  C   UNL     1      31.840  -8.104 -21.531  0.00  0.00    -0.000 C 
ATOM     21  C   UNL     1      31.877  -7.800 -20.170  0.00  0.00    -0.000 C 
ENDBRANCH  15  16
ENDBRANCH  14  15
ENDBRANCH  13  14
ENDBRANCH  11  13
BRANCH   4  22
ATOM     22  C   UNL     1      36.078 -19.432 -20.866  0.00  0.00    +0.129 C 
BRANCH  22  23
ATOM     23  C   UNL     1      35.013 -20.211 -20.150  0.00  0.00    -0.002 C 
ATOM     24  C   UNL     1      35.375 -21.253 -19.305  0.00  0.00    -0.003 C 
ATOM     25  C   UNL     1      33.676 -19.881 -20.338  0.00  0.00    -0.003 C 
ATOM     26  C   UNL     1      34.386 -21.978 -18.639  0.00  0.00    -0.000 C 
ATOM     27  C   UNL     1      32.687 -20.605 -19.672  0.00  0.00    -0.000 C 
ATOM     28  C   UNL     1      33.042 -21.653 -18.823  0.00  0.00    -0.000 C 
ENDBRANCH  22  23
ENDBRANCH   4  22
TORSDOF 6
ENDMDL
MODEL 2
REMARK VINA RESULT:     -11.4      4.014      9.787
REMARK  Name = 9896504
REMARK  6 active torsions:
REMARK  status: ('A' for Active; 'I' for Inactive)
REMARK    1  A    between atoms: N_4  and  C_22
REMARK    2  A    between atoms: C_11  and  C_13
REMARK    3  A    between atoms: C_13  and  O_14
REMARK    4  A    between atoms: O_14  and  C_15
REMARK    5  A    between atoms: C_15  and  C_16
REMARK    6  A    between atoms: C_22  and  C_23
REMARK                            x       y       z     vdW  Elec       q    Type
REMARK                         _______ _______ _______ _____ _____    ______ ____
ROOT
ATOM      1  S   UNL     1      36.021 -21.840 -18.165  0.00  0.00    -0.064 S 
ATOM      2  O   UNL     1      33.481 -19.476 -21.646  0.00  0.00    -0.251 OA
ATOM      3  O   UNL     1      37.995 -18.306 -21.208  0.00  0.00    -0.269 OA
ATOM      4  N   UNL     1      35.733 -18.852 -21.485  0.00  0.00    -0.206 N 
ATOM      5  N   UNL     1      34.820 -20.490 -20.061  0.00  0.00    -0.214 N 
ATOM      6  C   UNL     1      36.038 -20.649 -19.438  0.00  0.00    +0.094 C 
ATOM      7  C   UNL     1      34.583 -19.600 -21.107  0.00  0.00    +0.321 C 
ATOM      8  C   UNL     1      37.003 -18.959 -20.888  0.00  0.00    +0.258 C 
ATOM      9  C   UNL     1      37.116 -19.948 -19.787  0.00  0.00    +0.080 C 
ATOM     10  C   UNL     1      33.888 -21.333 -19.501  0.00  0.00    +0.087 C 
ATOM     11  C   UNL     1      34.354 -22.094 -18.511  0.00  0.00    +0.122 C 
ENDROOT
BRANCH  11  13
ATOM     12  O   UNL     1      33.532 -24.261 -18.017  0.00  0.00    -0.244 OA
ATOM     13  C   UNL     1      33.567 -23.060 -17.764  0.00  0.00    +0.349 C 
BRANCH  13  14
ATOM     14  O   UNL     1      32.900 -22.417 -16.767  0.00  0.00    -0.440 OA
BRANCH  14  15
ATOM     15  C   UNL     1      32.709 -23.165 -15.561  0.00  0.00    +0.235 C 
BRANCH  15  16
ATOM     16  C   UNL     1      31.247 -23.461 -15.395  0.00  0.00    +0.021 C 
ATOM     17  C   UNL     1      30.844 -24.489 -14.551  0.00  0.00    -0.001 C 
ATOM     18  C   UNL     1      30.308 -22.704 -16.087  0.00  0.00    -0.001 C 
ATOM     19  C   UNL     1      29.485 -24.764 -14.396  0.00  0.00    -0.000 C 
ATOM     20  C   UNL     1      28.949 -22.979 -15.933  0.00  0.00    -0.000 C 
ATOM     21  C   UNL     1      28.539 -24.009 -15.087  0.00  0.00    -0.000 C 
ENDBRANCH  15  16
ENDBRANCH  14  15
ENDBRANCH  13  14
ENDBRANCH  11  13
BRANCH   4  22
ATOM     22  C   UNL     1      35.606 -17.888 -22.572  0.00  0.00    +0.129 C 
BRANCH  22  23
ATOM     23  C   UNL     1      35.217 -16.527 -22.074  0.00  0.00    -0.002 C 
ATOM     24  C   UNL     1      35.100 -16.303 -20.707  0.00  0.00    -0.003 C 
ATOM     25  C   UNL     1      34.979 -15.503 -22.983  0.00  0.00    -0.003 C 
ATOM     26  C   UNL     1      34.739 -15.038 -20.242  0.00  0.00    -0.000 C 
ATOM     27  C   UNL     1      34.619 -14.238 -22.519  0.00  0.00    -0.000 C 
ATOM     28  C   UNL     1      34.499 -14.006 -21.149  0.00  0.00    -0.000 C 
ENDBRANCH  22  23
ENDBRANCH   4  22
TORSDOF 6
ENDMDL
MODEL 3
REMARK VINA RESULT:     -11.4      4.013     10.372
REMARK  Name = 9896504
REMARK  6 active torsions:
REMARK  status: ('A' for Active; 'I' for Inactive)
REMARK    1  A    between atoms: N_4  and  C_22
REMARK    2  A    between atoms: C_11  and  C_13
REMARK    3  A    between atoms: C_13  and  O_14
REMARK    4  A    between atoms: O_14  and  C_15
REMARK    5  A    between atoms: C_15  and  C_16
REMARK    6  A    between atoms: C_22  and  C_23
REMARK                            x       y       z     vdW  Elec       q    Type
REMARK                         _______ _______ _______ _____ _____    ______ ____
ROOT
ATOM      1  S   UNL     1      36.029 -21.667 -18.102  0.00  0.00    -0.064 S 
ATOM      2  O   UNL     1      33.468 -19.318 -21.577  0.00  0.00    -0.251 OA
ATOM      3  O   UNL     1      38.048 -18.358 -21.361  0.00  0.00    -0.269 OA
ATOM      4  N   UNL     1      35.753 -18.801 -21.529  0.00  0.00    -0.206 N 
ATOM      5  N   UNL     1      34.820 -20.335 -20.005  0.00  0.00    -0.214 N 
ATOM      6  C   UNL     1      36.052 -20.529 -19.422  0.00  0.00    +0.094 C 
ATOM      7  C   UNL     1      34.584 -19.475 -21.077  0.00  0.00    +0.321 C 
ATOM      8  C   UNL     1      37.039 -18.948 -20.977  0.00  0.00    +0.258 C 
ATOM      9  C   UNL     1      37.148 -19.897 -19.841  0.00  0.00    +0.080 C 
ATOM     10  C   UNL     1      33.871 -21.107 -19.376  0.00  0.00    +0.087 C 
ATOM     11  C   UNL     1      34.340 -21.851 -18.373  0.00  0.00    +0.122 C 
ENDROOT
BRANCH  11  13
ATOM     12  O   UNL     1      32.310 -22.781 -17.576  0.00  0.00    -0.244 OA
ATOM     13  C   UNL     1      33.538 -22.747 -17.557  0.00  0.00    +0.349 C 
BRANCH  13  14
ATOM     14  O   UNL     1      34.363 -23.516 -16.795  0.00  0.00    -0.440 OA
BRANCH  14  15
ATOM     15  C   UNL     1      34.071 -23.543 -15.394  0.00  0.00    +0.235 C 
BRANCH  15  16
ATOM     16  C   UNL     1      35.306 -23.949 -14.645  0.00  0.00    +0.021 C 
ATOM     17  C   UNL     1      36.064 -22.985 -13.991  0.00  0.00    -0.001 C 
ATOM     18  C   UNL     1      35.683 -25.288 -14.613  0.00  0.00    -0.001 C 
ATOM     19  C   UNL     1      37.212 -23.363 -13.294  0.00  0.00    -0.000 C 
ATOM     20  C   UNL     1      36.831 -25.665 -13.916  0.00  0.00    -0.000 C 
ATOM     21  C   UNL     1      37.595 -24.703 -13.257  0.00  0.00    -0.000 C 
ENDBRANCH  15  16
ENDBRANCH  14  15
ENDBRANCH  13  14
ENDBRANCH  11  13
BRANCH   4  22
ATOM     22  C   UNL     1      35.629 -17.876 -22.649  0.00  0.00    +0.129 C 
BRANCH  22  23
ATOM     23  C   UNL     1      35.236 -16.499 -22.199  0.00  0.00    -0.002 C 
ATOM     24  C   UNL     1      34.984 -15.512 -23.145  0.00  0.00    -0.003 C 
ATOM     25  C   UNL     1      35.125 -16.225 -20.841  0.00  0.00    -0.003 C 
ATOM     26  C   UNL     1      34.619 -14.232 -22.728  0.00  0.00    -0.000 C 
ATOM     27  C   UNL     1      34.758 -14.945 -20.424  0.00  0.00    -0.000 C 
ATOM     28  C   UNL     1      34.505 -13.949 -21.367  0.00  0.00    -0.000 C 
ENDBRANCH  22  23
ENDBRANCH   4  22
TORSDOF 6
ENDMDL
MODEL 4
REMARK VINA RESULT:     -11.0      3.989     10.045
REMARK  Name = 9896504
REMARK  6 active torsions:
REMARK  status: ('A' for Active; 'I' for Inactive)
REMARK    1  A    between atoms: N_4  and  C_22
REMARK    2  A    between atoms: C_11  and  C_13
REMARK    3  A    between atoms: C_13  and  O_14
REMARK    4  A    between atoms: O_14  and  C_15
REMARK    5  A    between atoms: C_15  and  C_16
REMARK    6  A    between atoms: C_22  and  C_23
REMARK                            x       y       z     vdW  Elec       q    Type
REMARK                         _______ _______ _______ _____ _____    ______ ____
ROOT
ATOM      1  S   UNL     1      34.127 -22.018 -18.360  0.00  0.00    -0.064 S 
ATOM      2  O   UNL     1      37.580 -19.022 -20.163  0.00  0.00    -0.251 OA
ATOM      3  O   UNL     1      33.489 -19.091 -22.443  0.00  0.00    -0.269 OA
ATOM      4  N   UNL     1      35.556 -19.002 -21.343  0.00  0.00    -0.206 N 
ATOM      5  N   UNL     1      35.848 -20.373 -19.450  0.00  0.00    -0.214 N 
ATOM      6  C   UNL     1      34.564 -20.853 -19.581  0.00  0.00    +0.094 C 
ATOM      7  C   UNL     1      36.426 -19.433 -20.302  0.00  0.00    +0.321 C 
ATOM      8  C   UNL     1      34.239 -19.456 -21.538  0.00  0.00    +0.258 C 
ATOM      9  C   UNL     1      33.748 -20.454 -20.556  0.00  0.00    +0.080 C 
ATOM     10  C   UNL     1      36.463 -20.954 -18.365  0.00  0.00    +0.087 C 
ATOM     11  C   UNL     1      35.704 -21.826 -17.700  0.00  0.00    +0.122 C 
ENDROOT
BRANCH  11  13
ATOM     12  O   UNL     1      37.256 -22.513 -16.045  0.00  0.00    -0.244 OA
ATOM     13  C   UNL     1      36.126 -22.567 -16.524  0.00  0.00    +0.349 C 
BRANCH  13  14
ATOM     14  O   UNL     1      35.080 -23.307 -16.064  0.00  0.00    -0.440 OA
BRANCH  14  15
ATOM     15  C   UNL     1      34.727 -23.102 -14.692  0.00  0.00    +0.235 C 
BRANCH  15  16
ATOM     16  C   UNL     1      33.332 -23.605 -14.466  0.00  0.00    +0.021 C 
ATOM     17  C   UNL     1      33.065 -24.429 -13.378  0.00  0.00    -0.001 C 
ATOM     18  C   UNL     1      32.318 -23.245 -15.346  0.00  0.00    -0.001 C 
ATOM     19  C   UNL     1      31.767 -24.896 -13.167  0.00  0.00    -0.000 C 
ATOM     20  C   UNL     1      31.021 -23.712 -15.135  0.00  0.00    -0.000 C 
ATOM     21  C   UNL     1      30.746 -24.538 -14.045  0.00  0.00    -0.000 C 
ENDBRANCH  15  16
ENDBRANCH  14  15
ENDBRANCH  13  14
ENDBRANCH  11  13
BRANCH   4  22
ATOM     22  C   UNL     1      36.052 -18.017 -22.297  0.00  0.00    +0.129 C 
BRANCH  22  23
ATOM     23  C   UNL     1      35.477 -16.653 -22.046  0.00  0.00    -0.002 C 
ATOM     24  C   UNL     1      35.198 -15.817 -23.120  0.00  0.00    -0.003 C 
ATOM     25  C   UNL     1      35.226 -16.242 -20.742  0.00  0.00    -0.003 C 
ATOM     26  C   UNL     1      34.662 -14.550 -22.888  0.00  0.00    -0.000 C 
ATOM     27  C   UNL     1      34.690 -14.975 -20.510  0.00  0.00    -0.000 C 
ATOM     28  C   UNL     1      34.409 -14.129 -21.583  0.00  0.00    -0.000 C 
ENDBRANCH  22  23
ENDBRANCH   4  22
TORSDOF 6
ENDMDL
MODEL 5
REMARK VINA RESULT:     -10.9      1.477      2.572
REMARK  Name = 9896504
REMARK  6 active torsions:
REMARK  status: ('A' for Active; 'I' for Inactive)
REMARK    1  A    between atoms: N_4  and  C_22
REMARK    2  A    between atoms: C_11  and  C_13
REMARK    3  A    between atoms: C_13  and  O_14
REMARK    4  A    between atoms: O_14  and  C_15
REMARK    5  A    between atoms: C_15  and  C_16
REMARK    6  A    between atoms: C_22  and  C_23
REMARK                            x       y       z     vdW  Elec       q    Type
REMARK                         _______ _______ _______ _____ _____    ______ ____
ROOT
ATOM      1  S   UNL     1      34.256 -13.263 -22.116  0.00  0.00    -0.064 S 
ATOM      2  O   UNL     1      34.486 -17.645 -24.328  0.00  0.00    -0.251 OA
ATOM      3  O   UNL     1      35.873 -17.497 -19.856  0.00  0.00    -0.269 OA
ATOM      4  N   UNL     1      35.184 -17.641 -22.092  0.00  0.00    -0.206 N 
ATOM      5  N   UNL     1      34.442 -15.667 -23.138  0.00  0.00    -0.214 N 
ATOM      6  C   UNL     1      34.656 -14.954 -21.979  0.00  0.00    +0.094 C 
ATOM      7  C   UNL     1      34.685 -17.032 -23.277  0.00  0.00    +0.321 C 
ATOM      8  C   UNL     1      35.432 -16.973 -20.879  0.00  0.00    +0.258 C 
ATOM      9  C   UNL     1      35.127 -15.521 -20.868  0.00  0.00    +0.080 C 
ATOM     10  C   UNL     1      33.958 -14.836 -24.122  0.00  0.00    +0.087 C 
ATOM     11  C   UNL     1      33.807 -13.565 -23.749  0.00  0.00    +0.122 C 
ENDROOT
BRANCH  11  13
ATOM     12  O   UNL     1      33.288 -12.559 -25.832  0.00  0.00    -0.244 OA
ATOM     13  C   UNL     1      33.314 -12.500 -24.605  0.00  0.00    +0.349 C 
BRANCH  13  14
ATOM     14  O   UNL     1      32.900 -11.459 -23.831  0.00  0.00    -0.440 OA
BRANCH  14  15
ATOM     15  C   UNL     1      33.661 -10.253 -23.949  0.00  0.00    +0.235 C 
BRANCH  15  16
ATOM     16  C   UNL     1      33.264  -9.315 -22.847  0.00  0.00    +0.021 C 
ATOM     17  C   UNL     1      33.899  -8.084 -22.727  0.00  0.00    -0.001 C 
ATOM     18  C   UNL     1      32.263  -9.685 -21.954  0.00  0.00    -0.001 C 
ATOM     19  C   UNL     1      33.529  -7.212 -21.703  0.00  0.00    -0.000 C 
ATOM     20  C   UNL     1      31.894  -8.812 -20.930  0.00  0.00    -0.000 C 
ATOM     21  C   UNL     1      32.527  -7.576 -20.806  0.00  0.00    -0.000 C 
ENDBRANCH  15  16
ENDBRANCH  14  15
ENDBRANCH  13  14
ENDBRANCH  11  13
BRANCH   4  22
ATOM     22  C   UNL     1      35.474 -19.070 -22.117  0.00  0.00    +0.129 C 
BRANCH  22  23
ATOM     23  C   UNL     1      34.724 -19.815 -21.051  0.00  0.00    -0.002 C 
ATOM     24  C   UNL     1      33.343 -19.684 -20.963  0.00  0.00    -0.003 C 
ATOM     25  C   UNL     1      35.417 -20.629 -20.164  0.00  0.00    -0.003 C 
ATOM     26  C   UNL     1      32.645 -20.375 -19.973  0.00  0.00    -0.000 C 
ATOM     27  C   UNL     1      34.720 -21.322 -19.174  0.00  0.00    -0.000 C 
ATOM     28  C   UNL     1      33.334 -21.194 -19.078  0.00  0.00    -0.000 C 
ENDBRANCH  22  23
ENDBRANCH   4  22
TORSDOF 6
ENDMDL
MODEL 6
REMARK VINA RESULT:     -10.8      4.466     10.893
REMARK  Name = 9896504
REMARK  6 active torsions:
REMARK  status: ('A' for Active; 'I' for Inactive)
REMARK    1  A    between atoms: N_4  and  C_22
REMARK    2  A    between atoms: C_11  and  C_13
REMARK    3  A    between atoms: C_13  and  O_14
REMARK    4  A    between atoms: O_14  and  C_15
REMARK    5  A    between atoms: C_15  and  C_16
REMARK    6  A    between atoms: C_22  and  C_23
REMARK                            x       y       z     vdW  Elec       q    Type
REMARK                         _______ _______ _______ _____ _____    ______ ____
ROOT
ATOM      1  S   UNL     1      34.427 -22.075 -18.137  0.00  0.00    -0.064 S 
ATOM      2  O   UNL     1      37.636 -18.989 -20.215  0.00  0.00    -0.251 OA
ATOM      3  O   UNL     1      33.414 -19.264 -22.225  0.00  0.00    -0.269 OA
ATOM      4  N   UNL     1      35.542 -19.072 -21.262  0.00  0.00    -0.206 N 
ATOM      5  N   UNL     1      36.008 -20.389 -19.366  0.00  0.00    -0.214 N 
ATOM      6  C   UNL     1      34.739 -20.921 -19.405  0.00  0.00    +0.094 C 
ATOM      7  C   UNL     1      36.493 -19.446 -20.272  0.00  0.00    +0.321 C 
ATOM      8  C   UNL     1      34.234 -19.580 -21.363  0.00  0.00    +0.258 C 
ATOM      9  C   UNL     1      33.847 -20.575 -20.333  0.00  0.00    +0.080 C 
ATOM     10  C   UNL     1      36.714 -20.922 -18.313  0.00  0.00    +0.087 C 
ATOM     11  C   UNL     1      36.034 -21.808 -17.583  0.00  0.00    +0.122 C 
ENDROOT
BRANCH  11  13
ATOM     12  O   UNL     1      37.663 -22.290 -15.930  0.00  0.00    -0.244 OA
ATOM     13  C   UNL     1      36.559 -22.507 -16.423  0.00  0.00    +0.349 C 
BRANCH  13  14
ATOM     14  O   UNL     1      35.640 -23.415 -15.994  0.00  0.00    -0.440 OA
BRANCH  14  15
ATOM     15  C   UNL     1      35.258 -23.313 -14.619  0.00  0.00    +0.235 C 
BRANCH  15  16
ATOM     16  C   UNL     1      35.999 -24.351 -13.828  0.00  0.00    +0.021 C 
ATOM     17  C   UNL     1      36.421 -25.520 -14.450  0.00  0.00    -0.001 C 
ATOM     18  C   UNL     1      36.257 -24.135 -12.479  0.00  0.00    -0.001 C 
ATOM     19  C   UNL     1      37.111 -26.485 -13.715  0.00  0.00    -0.000 C 
ATOM     20  C   UNL     1      36.947 -25.099 -11.743  0.00  0.00    -0.000 C 
ATOM     21  C   UNL     1      37.373 -26.274 -12.362  0.00  0.00    -0.000 C 
ENDBRANCH  15  16
ENDBRANCH  14  15
ENDBRANCH  13  14
ENDBRANCH  11  13
BRANCH   4  22
ATOM     22  C   UNL     1      35.936 -18.089 -22.265  0.00  0.00    +0.129 C 
BRANCH  22  23
ATOM     23  C   UNL     1      35.414 -16.719 -21.944  0.00  0.00    -0.002 C 
ATOM     24  C   UNL     1      35.201 -16.357 -20.619  0.00  0.00    -0.003 C 
ATOM     25  C   UNL     1      35.150 -15.825 -22.975  0.00  0.00    -0.003 C 
ATOM     26  C   UNL     1      34.716 -15.084 -20.320  0.00  0.00    -0.000 C 
ATOM     27  C   UNL     1      34.666 -14.551 -22.676  0.00  0.00    -0.000 C 
ATOM     28  C   UNL     1      34.448 -14.181 -21.349  0.00  0.00    -0.000 C 
ENDBRANCH  22  23
ENDBRANCH   4  22
TORSDOF 6
ENDMDL
MODEL 7
REMARK VINA RESULT:     -10.3      2.077      9.663
REMARK  Name = 9896504
REMARK  6 active torsions:
REMARK  status: ('A' for Active; 'I' for Inactive)
REMARK    1  A    between atoms: N_4  and  C_22
REMARK    2  A    between atoms: C_11  and  C_13
REMARK    3  A    between atoms: C_13  and  O_14
REMARK    4  A    between atoms: O_14  and  C_15
REMARK    5  A    between atoms: C_15  and  C_16
REMARK    6  A    between atoms: C_22  and  C_23
REMARK                            x       y       z     vdW  Elec       q    Type
REMARK                         _______ _______ _______ _____ _____    ______ ____
ROOT
ATOM      1  S   UNL     1      34.016 -15.074 -20.182  0.00  0.00    -0.064 S 
ATOM      2  O   UNL     1      33.064 -11.721 -23.647  0.00  0.00    -0.251 OA
ATOM      3  O   UNL     1      31.246 -10.906 -19.408  0.00  0.00    -0.269 OA
ATOM      4  N   UNL     1      32.135 -11.249 -21.549  0.00  0.00    -0.206 N 
ATOM      5  N   UNL     1      33.415 -13.194 -21.903  0.00  0.00    -0.214 N 
ATOM      6  C   UNL     1      33.235 -13.570 -20.591  0.00  0.00    +0.094 C 
ATOM      7  C   UNL     1      32.890 -12.032 -22.467  0.00  0.00    +0.321 C 
ATOM      8  C   UNL     1      31.907 -11.577 -20.200  0.00  0.00    +0.258 C 
ATOM      9  C   UNL     1      32.526 -12.841 -19.729  0.00  0.00    +0.080 C 
ATOM     10  C   UNL     1      34.181 -14.127 -22.563  0.00  0.00    +0.087 C 
ATOM     11  C   UNL     1      34.569 -15.157 -21.810  0.00  0.00    +0.122 C 
ENDROOT
BRANCH  11  13
ATOM     12  O   UNL     1      35.697 -16.445 -23.449  0.00  0.00    -0.244 OA
ATOM     13  C   UNL     1      35.382 -16.267 -22.275  0.00  0.00    +0.349 C 
BRANCH  13  14
ATOM     14  O   UNL     1      35.722 -17.048 -21.213  0.00  0.00    -0.440 OA
BRANCH  14  15
ATOM     15  C   UNL     1      36.313 -18.312 -21.532  0.00  0.00    +0.235 C 
BRANCH  15  16
ATOM     16  C   UNL     1      35.675 -19.377 -20.689  0.00  0.00    +0.021 C 
ATOM     17  C   UNL     1      34.292 -19.519 -20.688  0.00  0.00    -0.001 C 
ATOM     18  C   UNL     1      36.473 -20.212 -19.915  0.00  0.00    -0.001 C 
ATOM     19  C   UNL     1      33.699 -20.509 -19.905  0.00  0.00    -0.000 C 
ATOM     20  C   UNL     1      35.880 -21.203 -19.132  0.00  0.00    -0.000 C 
ATOM     21  C   UNL     1      34.493 -21.351 -19.128  0.00  0.00    -0.000 C 
ENDBRANCH  15  16
ENDBRANCH  14  15
ENDBRANCH  13  14
ENDBRANCH  11  13
BRANCH   4  22
ATOM     22  C   UNL     1      31.537 -10.007 -22.026  0.00  0.00    +0.129 C 
BRANCH  22  23
ATOM     23  C   UNL     1      32.396  -8.816 -21.716  0.00  0.00    -0.002 C 
ATOM     24  C   UNL     1      33.380  -8.425 -22.615  0.00  0.00    -0.003 C 
ATOM     25  C   UNL     1      32.196  -8.113 -20.533  0.00  0.00    -0.003 C 
ATOM     26  C   UNL     1      34.179  -7.317 -22.328  0.00  0.00    -0.000 C 
ATOM     27  C   UNL     1      32.993  -7.004 -20.246  0.00  0.00    -0.000 C 
ATOM     28  C   UNL     1      33.984  -6.607 -21.144  0.00  0.00    -0.000 C 
ENDBRANCH  22  23
ENDBRANCH   4  22
TORSDOF 6
ENDMDL
MODEL 8
REMARK VINA RESULT:     -10.2      1.292      1.681
REMARK  Name = 9896504
REMARK  6 active torsions:
REMARK  status: ('A' for Active; 'I' for Inactive)
REMARK    1  A    between atoms: N_4  and  C_22
REMARK    2  A    between atoms: C_11  and  C_13
REMARK    3  A    between atoms: C_13  and  O_14
REMARK    4  A    between atoms: O_14  and  C_15
REMARK    5  A    between atoms: C_15  and  C_16
REMARK    6  A    between atoms: C_22  and  C_23
REMARK                            x       y       z     vdW  Elec       q    Type
REMARK                         _______ _______ _______ _____ _____    ______ ____
ROOT
ATOM      1  S   UNL     1      33.178 -13.839 -23.824  0.00  0.00    -0.064 S 
ATOM      2  O   UNL     1      35.247 -15.946 -19.896  0.00  0.00    -0.251 OA
ATOM      3  O   UNL     1      35.403 -18.388 -23.890  0.00  0.00    -0.269 OA
ATOM      4  N   UNL     1      35.368 -17.214 -21.862  0.00  0.00    -0.206 N 
ATOM      5  N   UNL     1      34.324 -15.103 -21.837  0.00  0.00    -0.214 N 
ATOM      6  C   UNL     1      34.029 -15.216 -23.178  0.00  0.00    +0.094 C 
ATOM      7  C   UNL     1      34.999 -16.072 -21.097  0.00  0.00    +0.321 C 
ATOM      8  C   UNL     1      35.093 -17.397 -23.230  0.00  0.00    +0.258 C 
ATOM      9  C   UNL     1      34.370 -16.286 -23.897  0.00  0.00    +0.080 C 
ATOM     10  C   UNL     1      33.856 -13.905 -21.349  0.00  0.00    +0.087 C 
ATOM     11  C   UNL     1      33.241 -13.141 -22.252  0.00  0.00    +0.122 C 
ENDROOT
BRANCH  11  13
ATOM     12  O   UNL     1      32.053 -11.553 -20.955  0.00  0.00    -0.244 OA
ATOM     13  C   UNL     1      32.663 -11.836 -21.982  0.00  0.00    +0.349 C 
BRANCH  13  14
ATOM     14  O   UNL     1      32.912 -11.011 -23.036  0.00  0.00    -0.440 OA
BRANCH  14  15
ATOM     15  C   UNL     1      33.718  -9.863 -22.752  0.00  0.00    +0.235 C 
BRANCH  15  16
ATOM     16  C   UNL     1      32.827  -8.729 -22.337  0.00  0.00    +0.021 C 
ATOM     17  C   UNL     1      33.058  -8.077 -21.132  0.00  0.00    -0.001 C 
ATOM     18  C   UNL     1      31.776  -8.342 -23.162  0.00  0.00    -0.001 C 
ATOM     19  C   UNL     1      32.230  -7.022 -20.747  0.00  0.00    -0.000 C 
ATOM     20  C   UNL     1      30.948  -7.287 -22.777  0.00  0.00    -0.000 C 
ATOM     21  C   UNL     1      31.176  -6.628 -21.569  0.00  0.00    -0.000 C 
ENDBRANCH  15  16
ENDBRANCH  14  15
ENDBRANCH  13  14
ENDBRANCH  11  13
BRANCH   4  22
ATOM     22  C   UNL     1      36.082 -18.295 -21.193  0.00  0.00    +0.129 C 
BRANCH  22  23
ATOM     23  C   UNL     1      35.144 -19.295 -20.582  0.00  0.00    -0.002 C 
ATOM     24  C   UNL     1      35.653 -20.333 -19.810  0.00  0.00    -0.003 C 
ATOM     25  C   UNL     1      33.776 -19.172 -20.794  0.00  0.00    -0.003 C 
ATOM     26  C   UNL     1      34.782 -21.263 -19.242  0.00  0.00    -0.000 C 
ATOM     27  C   UNL     1      32.904 -20.101 -20.225  0.00  0.00    -0.000 C 
ATOM     28  C   UNL     1      33.407 -21.146 -19.450  0.00  0.00    -0.000 C 
ENDBRANCH  22  23
ENDBRANCH   4  22
TORSDOF 6
ENDMDL
MODEL 9
REMARK VINA RESULT:     -10.2      3.005     10.350
REMARK  Name = 9896504
REMARK  6 active torsions:
REMARK  status: ('A' for Active; 'I' for Inactive)
REMARK    1  A    between atoms: N_4  and  C_22
REMARK    2  A    between atoms: C_11  and  C_13
REMARK    3  A    between atoms: C_13  and  O_14
REMARK    4  A    between atoms: O_14  and  C_15
REMARK    5  A    between atoms: C_15  and  C_16
REMARK    6  A    between atoms: C_22  and  C_23
REMARK                            x       y       z     vdW  Elec       q    Type
REMARK                         _______ _______ _______ _____ _____    ______ ____
ROOT
ATOM      1  S   UNL     1      32.153 -13.027 -22.134  0.00  0.00    -0.064 S 
ATOM      2  O   UNL     1      34.580  -9.019 -23.618  0.00  0.00    -0.251 OA
ATOM      3  O   UNL     1      31.669  -8.464 -19.990  0.00  0.00    -0.269 OA
ATOM      4  N   UNL     1      33.149  -8.677 -21.794  0.00  0.00    -0.206 N 
ATOM      5  N   UNL     1      33.362 -10.799 -22.791  0.00  0.00    -0.214 N 
ATOM      6  C   UNL     1      32.455 -11.326 -21.900  0.00  0.00    +0.094 C 
ATOM      7  C   UNL     1      33.767  -9.465 -22.804  0.00  0.00    +0.321 C 
ATOM      8  C   UNL     1      32.211  -9.148 -20.858  0.00  0.00    +0.258 C 
ATOM      9  C   UNL     1      31.872 -10.589 -20.954  0.00  0.00    +0.080 C 
ATOM     10  C   UNL     1      33.801 -11.777 -23.654  0.00  0.00    +0.087 C 
ATOM     11  C   UNL     1      33.269 -12.981 -23.442  0.00  0.00    +0.122 C 
ENDROOT
BRANCH  11  13
ATOM     12  O   UNL     1      33.010 -14.471 -25.268  0.00  0.00    -0.244 OA
ATOM     13  C   UNL     1      33.572 -14.172 -24.218  0.00  0.00    +0.349 C 
BRANCH  13  14
ATOM     14  O   UNL     1      34.559 -14.872 -23.594  0.00  0.00    -0.440 OA
BRANCH  14  15
ATOM     15  C   UNL     1      34.839 -16.168 -24.132  0.00  0.00    +0.235 C 
BRANCH  15  16
ATOM     16  C   UNL     1      34.964 -17.149 -23.003  0.00  0.00    +0.021 C 
ATOM     17  C   UNL     1      34.648 -18.486 -23.214  0.00  0.00    -0.001 C 
ATOM     18  C   UNL     1      35.395 -16.712 -21.755  0.00  0.00    -0.001 C 
ATOM     19  C   UNL     1      34.765 -19.398 -22.164  0.00  0.00    -0.000 C 
ATOM     20  C   UNL     1      35.512 -17.624 -20.706  0.00  0.00    -0.000 C 
ATOM     21  C   UNL     1      35.197 -18.966 -20.911  0.00  0.00    -0.000 C 
ENDBRANCH  15  16
ENDBRANCH  14  15
ENDBRANCH  13  14
ENDBRANCH  11  13
BRANCH   4  22
ATOM     22  C   UNL     1      33.497  -7.263 -21.710  0.00  0.00    +0.129 C 
BRANCH  22  23
ATOM     23  C   UNL     1      32.972  -6.484 -22.881  0.00  0.00    -0.002 C 
ATOM     24  C   UNL     1      31.624  -6.559 -23.208  0.00  0.00    -0.003 C 
ATOM     25  C   UNL     1      33.840  -5.694 -23.626  0.00  0.00    -0.003 C 
ATOM     26  C   UNL     1      31.135  -5.835 -24.296  0.00  0.00    -0.000 C 
ATOM     27  C   UNL     1      33.352  -4.970 -24.714  0.00  0.00    -0.000 C 
ATOM     28  C   UNL     1      32.000  -5.041 -25.049  0.00  0.00    -0.000 C 
ENDBRANCH  22  23
ENDBRANCH   4  22
TORSDOF 6
ENDMDL
