MODEL 1
REMARK VINA RESULT:     -11.3      0.000      0.000
REMARK  Name = 135565554
REMARK  0 active torsions:
REMARK  status: ('A' for Active; 'I' for Inactive)
REMARK                            x       y       z     vdW  Elec       q    Type
REMARK                         _______ _______ _______ _____ _____    ______ ____
ROOT
ATOM      1  F   UNL     1      29.456 -24.259 -14.241  0.00  0.00    -0.204 F 
ATOM      2  O   UNL     1      32.404 -22.563 -17.847  0.00  0.00    -0.268 OA
ATOM      3  N   UNL     1      37.584 -24.105 -13.751  0.00  0.00    +0.397 N 
ATOM      4  N   UNL     1      34.034 -24.436 -12.591  0.00  0.00    -0.358 N 
ATOM      5  N   UNL     1      35.726 -22.651 -16.510  0.00  0.00    -0.185 NA
ATOM      6  N   UNL     1      34.566 -22.554 -17.197  0.00  0.00    -0.203 N 
ATOM      7  C   UNL     1      36.591 -24.195 -12.647  0.00  0.00    -0.007 C 
ATOM      8  C   UNL     1      36.901 -25.584 -12.083  0.00  0.00    -0.016 C 
ATOM      9  C   UNL     1      35.204 -24.081 -13.204  0.00  0.00    +0.017 A 
ATOM     10  C   UNL     1      37.731 -25.437 -14.352  0.00  0.00    -0.076 C 
ATOM     11  C   UNL     1      37.241 -26.428 -13.303  0.00  0.00    -0.024 C 
ATOM     12  C   UNL     1      37.338 -23.046 -14.746  0.00  0.00    -0.028 C 
ATOM     13  C   UNL     1      34.893 -23.577 -14.445  0.00  0.00    +0.024 A 
ATOM     14  C   UNL     1      36.835 -23.109 -11.594  0.00  0.00    -0.015 C 
ATOM     15  C   UNL     1      35.916 -23.094 -15.313  0.00  0.00    +0.056 C 
ATOM     16  C   UNL     1      33.514 -23.666 -14.626  0.00  0.00    +0.022 A 
ATOM     17  C   UNL     1      32.980 -24.199 -13.450  0.00  0.00    +0.059 A 
ATOM     18  C   UNL     1      32.684 -23.336 -15.691  0.00  0.00    +0.059 C 
ATOM     19  C   UNL     1      31.609 -24.413 -13.282  0.00  0.00    +0.047 C 
ATOM     20  C   UNL     1      33.225 -22.799 -16.952  0.00  0.00    +0.265 C 
ATOM     21  C   UNL     1      31.301 -23.546 -15.535  0.00  0.00    +0.034 C 
ATOM     22  C   UNL     1      30.778 -24.072 -14.351  0.00  0.00    +0.142 C 
ATOM     23  H   UNL     1      38.468 -23.805 -13.338  0.00  0.00    -0.078 HD
ATOM     24  H   UNL     1      33.957 -24.804 -11.681  0.00  0.00    +0.166 HD
ATOM     25  H   UNL     1      34.712 -22.222 -18.112  0.00  0.00    +0.178 HD
ENDROOT
TORSDOF 0
ENDMDL
MODEL 2
REMARK VINA RESULT:      -9.7      3.006      5.829
REMARK  Name = 135565554
REMARK  0 active torsions:
REMARK  status: ('A' for Active; 'I' for Inactive)
REMARK                            x       y       z     vdW  Elec       q    Type
REMARK                         _______ _______ _______ _____ _____    ______ ____
ROOT
ATOM      1  F   UNL     1      35.558 -22.016 -19.245  0.00  0.00    -0.204 F 
ATOM      2  O   UNL     1      36.671 -23.103 -14.538  0.00  0.00    -0.268 OA
ATOM      3  N   UNL     1      30.026 -24.127 -13.652  0.00  0.00    +0.397 N 
ATOM      4  N   UNL     1      31.366 -22.809 -16.896  0.00  0.00    -0.358 N 
ATOM      5  N   UNL     1      33.531 -23.582 -12.881  0.00  0.00    -0.185 NA
ATOM      6  N   UNL     1      34.804 -23.458 -13.320  0.00  0.00    -0.203 N 
ATOM      7  C   UNL     1      29.816 -23.406 -14.937  0.00  0.00    -0.007 C 
ATOM      8  C   UNL     1      28.957 -24.414 -15.705  0.00  0.00    -0.016 C 
ATOM      9  C   UNL     1      31.140 -23.140 -15.589  0.00  0.00    +0.017 A 
ATOM     10  C   UNL     1      30.155 -25.561 -13.942  0.00  0.00    -0.076 C 
ATOM     11  C   UNL     1      29.511 -25.774 -15.306  0.00  0.00    -0.024 C 
ATOM     12  C   UNL     1      31.110 -23.609 -12.800  0.00  0.00    -0.028 C 
ATOM     13  C   UNL     1      32.355 -23.181 -14.948  0.00  0.00    +0.024 A 
ATOM     14  C   UNL     1      29.056 -22.094 -14.716  0.00  0.00    -0.015 C 
ATOM     15  C   UNL     1      32.436 -23.475 -13.555  0.00  0.00    +0.056 C 
ATOM     16  C   UNL     1      33.356 -22.919 -15.882  0.00  0.00    +0.022 A 
ATOM     17  C   UNL     1      32.724 -22.676 -17.104  0.00  0.00    +0.059 A 
ATOM     18  C   UNL     1      34.743 -22.869 -15.783  0.00  0.00    +0.059 C 
ATOM     19  C   UNL     1      33.436 -22.366 -18.265  0.00  0.00    +0.047 C 
ATOM     20  C   UNL     1      35.435 -23.149 -14.513  0.00  0.00    +0.265 C 
ATOM     21  C   UNL     1      35.472 -22.557 -16.945  0.00  0.00    +0.034 C 
ATOM     22  C   UNL     1      34.828 -22.309 -18.160  0.00  0.00    +0.142 C 
ATOM     23  H   UNL     1      29.203 -23.957 -13.073  0.00  0.00    -0.078 HD
ATOM     24  H   UNL     1      30.670 -22.686 -17.582  0.00  0.00    +0.166 HD
ATOM     25  H   UNL     1      35.454 -23.635 -12.601  0.00  0.00    +0.178 HD
ENDROOT
TORSDOF 0
ENDMDL
MODEL 3
REMARK VINA RESULT:      -9.1     14.512     17.046
REMARK  Name = 135565554
REMARK  0 active torsions:
REMARK  status: ('A' for Active; 'I' for Inactive)
REMARK                            x       y       z     vdW  Elec       q    Type
REMARK                         _______ _______ _______ _____ _____    ______ ____
ROOT
ATOM      1  F   UNL     1      33.992 -14.019 -24.626  0.00  0.00    -0.204 F 
ATOM      2  O   UNL     1      31.725 -13.379 -20.265  0.00  0.00    -0.268 OA
ATOM      3  N   UNL     1      31.898  -6.739 -21.634  0.00  0.00    +0.397 N 
ATOM      4  N   UNL     1      33.579  -9.224 -23.882  0.00  0.00    -0.358 N 
ATOM      5  N   UNL     1      31.547  -9.835 -19.771  0.00  0.00    -0.185 NA
ATOM      6  N   UNL     1      31.502 -11.187 -19.775  0.00  0.00    -0.203 N 
ATOM      7  C   UNL     1      32.903  -7.055 -22.684  0.00  0.00    -0.007 C 
ATOM      8  C   UNL     1      32.276  -6.378 -23.906  0.00  0.00    -0.016 C 
ATOM      9  C   UNL     1      33.030  -8.541 -22.833  0.00  0.00    +0.017 A 
ATOM     10  C   UNL     1      30.563  -6.777 -22.245  0.00  0.00    -0.076 C 
ATOM     11  C   UNL     1      30.780  -6.596 -23.741  0.00  0.00    -0.024 C 
ATOM     12  C   UNL     1      31.992  -7.538 -20.400  0.00  0.00    -0.028 C 
ATOM     13  C   UNL     1      32.609  -9.464 -21.904  0.00  0.00    +0.024 A 
ATOM     14  C   UNL     1      34.264  -6.433 -22.351  0.00  0.00    -0.015 C 
ATOM     15  C   UNL     1      32.015  -9.045 -20.678  0.00  0.00    +0.056 C 
ATOM     16  C   UNL     1      32.856 -10.740 -22.405  0.00  0.00    +0.022 A 
ATOM     17  C   UNL     1      33.476 -10.580 -23.648  0.00  0.00    +0.059 A 
ATOM     18  C   UNL     1      32.603 -12.012 -21.902  0.00  0.00    +0.059 C 
ATOM     19  C   UNL     1      33.877 -11.667 -24.428  0.00  0.00    +0.047 C 
ATOM     20  C   UNL     1      31.926 -12.208 -20.609  0.00  0.00    +0.265 C 
ATOM     21  C   UNL     1      33.002 -13.116 -22.679  0.00  0.00    +0.034 C 
ATOM     22  C   UNL     1      33.628 -12.942 -23.916  0.00  0.00    +0.142 C 
ATOM     23  H   UNL     1      32.103  -5.800 -21.292  0.00  0.00    -0.078 HD
ATOM     24  H   UNL     1      33.983  -8.813 -24.680  0.00  0.00    +0.166 HD
ATOM     25  H   UNL     1      31.049 -11.537 -18.974  0.00  0.00    +0.178 HD
ENDROOT
TORSDOF 0
ENDMDL
MODEL 4
REMARK VINA RESULT:      -8.8      9.404     11.637
REMARK  Name = 135565554
REMARK  0 active torsions:
REMARK  status: ('A' for Active; 'I' for Inactive)
REMARK                            x       y       z     vdW  Elec       q    Type
REMARK                         _______ _______ _______ _____ _____    ______ ____
ROOT
ATOM      1  F   UNL     1      33.101 -11.556 -20.896  0.00  0.00    -0.204 F 
ATOM      2  O   UNL     1      32.723 -13.522 -25.430  0.00  0.00    -0.268 OA
ATOM      3  N   UNL     1      35.374 -19.156 -22.741  0.00  0.00    +0.397 N 
ATOM      4  N   UNL     1      35.062 -16.010 -20.726  0.00  0.00    -0.358 N 
ATOM      5  N   UNL     1      34.265 -16.750 -25.223  0.00  0.00    -0.185 NA
ATOM      6  N   UNL     1      33.635 -15.586 -25.503  0.00  0.00    -0.203 N 
ATOM      7  C   UNL     1      35.785 -18.322 -21.580  0.00  0.00    -0.007 C 
ATOM      8  C   UNL     1      35.191 -19.122 -20.417  0.00  0.00    -0.016 C 
ATOM      9  C   UNL     1      35.199 -16.948 -21.711  0.00  0.00    +0.017 A 
ATOM     10  C   UNL     1      34.043 -19.712 -22.464  0.00  0.00    -0.076 C 
ATOM     11  C   UNL     1      33.870 -19.655 -20.952  0.00  0.00    -0.024 C 
ATOM     12  C   UNL     1      35.464 -18.504 -24.059  0.00  0.00    -0.028 C 
ATOM     13  C   UNL     1      34.708 -16.410 -22.877  0.00  0.00    +0.024 A 
ATOM     14  C   UNL     1      37.311 -18.244 -21.469  0.00  0.00    -0.015 C 
ATOM     15  C   UNL     1      34.744 -17.152 -24.094  0.00  0.00    +0.056 C 
ATOM     16  C   UNL     1      34.215 -15.136 -22.603  0.00  0.00    +0.022 A 
ATOM     17  C   UNL     1      34.450 -14.889 -21.247  0.00  0.00    +0.059 A 
ATOM     18  C   UNL     1      33.591 -14.180 -23.396  0.00  0.00    +0.059 C 
ATOM     19  C   UNL     1      34.088 -13.686 -20.634  0.00  0.00    +0.047 C 
ATOM     20  C   UNL     1      33.305 -14.427 -24.820  0.00  0.00    +0.265 C 
ATOM     21  C   UNL     1      33.221 -12.964 -22.790  0.00  0.00    +0.034 C 
ATOM     22  C   UNL     1      33.469 -12.725 -21.436  0.00  0.00    +0.142 C 
ATOM     23  H   UNL     1      36.058 -19.908 -22.831  0.00  0.00    -0.078 HD
ATOM     24  H   UNL     1      35.353 -16.118 -19.791  0.00  0.00    +0.166 HD
ATOM     25  H   UNL     1      33.330 -15.555 -26.438  0.00  0.00    +0.178 HD
ENDROOT
TORSDOF 0
ENDMDL
MODEL 5
REMARK VINA RESULT:      -8.7      2.546      4.086
REMARK  Name = 135565554
REMARK  0 active torsions:
REMARK  status: ('A' for Active; 'I' for Inactive)
REMARK                            x       y       z     vdW  Elec       q    Type
REMARK                         _______ _______ _______ _____ _____    ______ ____
ROOT
ATOM      1  F   UNL     1      36.283 -20.993 -19.154  0.00  0.00    -0.204 F 
ATOM      2  O   UNL     1      32.223 -22.738 -16.909  0.00  0.00    -0.268 OA
ATOM      3  N   UNL     1      36.332 -24.550 -11.828  0.00  0.00    +0.397 N 
ATOM      4  N   UNL     1      37.704 -23.123 -15.012  0.00  0.00    -0.358 N 
ATOM      5  N   UNL     1      33.378 -24.355 -13.928  0.00  0.00    -0.185 NA
ATOM      6  N   UNL     1      32.745 -23.790 -14.981  0.00  0.00    -0.203 N 
ATOM      7  C   UNL     1      37.467 -24.356 -12.771  0.00  0.00    -0.007 C 
ATOM      8  C   UNL     1      38.362 -23.410 -11.965  0.00  0.00    -0.016 C 
ATOM      9  C   UNL     1      36.965 -23.749 -14.047  0.00  0.00    +0.017 A 
ATOM     10  C   UNL     1      36.098 -23.286 -11.118  0.00  0.00    -0.076 C 
ATOM     11  C   UNL     1      37.393 -22.492 -11.235  0.00  0.00    -0.024 C 
ATOM     12  C   UNL     1      35.106 -25.120 -12.413  0.00  0.00    -0.028 C 
ATOM     13  C   UNL     1      35.651 -23.741 -14.451  0.00  0.00    +0.024 A 
ATOM     14  C   UNL     1      38.183 -25.680 -13.054  0.00  0.00    -0.015 C 
ATOM     15  C   UNL     1      34.639 -24.354 -13.655  0.00  0.00    +0.056 C 
ATOM     16  C   UNL     1      35.565 -23.058 -15.663  0.00  0.00    +0.022 A 
ATOM     17  C   UNL     1      36.864 -22.680 -16.013  0.00  0.00    +0.059 A 
ATOM     18  C   UNL     1      34.490 -22.734 -16.484  0.00  0.00    +0.059 C 
ATOM     19  C   UNL     1      37.147 -21.981 -17.189  0.00  0.00    +0.047 C 
ATOM     20  C   UNL     1      33.109 -23.095 -16.123  0.00  0.00    +0.265 C 
ATOM     21  C   UNL     1      34.762 -22.029 -17.672  0.00  0.00    +0.034 C 
ATOM     22  C   UNL     1      36.066 -21.664 -18.015  0.00  0.00    +0.142 C 
ATOM     23  H   UNL     1      36.609 -25.278 -11.169  0.00  0.00    -0.078 HD
ATOM     24  H   UNL     1      38.681 -23.006 -14.994  0.00  0.00    +0.166 HD
ATOM     25  H   UNL     1      31.769 -23.903 -14.921  0.00  0.00    +0.178 HD
ENDROOT
TORSDOF 0
ENDMDL
MODEL 6
REMARK VINA RESULT:      -8.7     13.896     16.219
REMARK  Name = 135565554
REMARK  0 active torsions:
REMARK  status: ('A' for Active; 'I' for Inactive)
REMARK                            x       y       z     vdW  Elec       q    Type
REMARK                         _______ _______ _______ _____ _____    ______ ____
ROOT
ATOM      1  F   UNL     1      31.659 -14.480 -19.488  0.00  0.00    -0.204 F 
ATOM      2  O   UNL     1      34.738 -13.662 -23.285  0.00  0.00    -0.268 OA
ATOM      3  N   UNL     1      32.972  -7.136 -22.754  0.00  0.00    +0.397 N 
ATOM      4  N   UNL     1      31.310  -9.768 -20.663  0.00  0.00    -0.358 N 
ATOM      5  N   UNL     1      34.345 -10.202 -24.128  0.00  0.00    -0.185 NA
ATOM      6  N   UNL     1      34.647 -11.510 -23.960  0.00  0.00    -0.203 N 
ATOM      7  C   UNL     1      31.824  -7.588 -21.922  0.00  0.00    -0.007 C 
ATOM      8  C   UNL     1      31.999  -6.714 -20.678  0.00  0.00    -0.016 C 
ATOM      9  C   UNL     1      31.953  -9.054 -21.636  0.00  0.00    +0.017 A 
ATOM     10  C   UNL     1      34.104  -6.848 -21.863  0.00  0.00    -0.076 C 
ATOM     11  C   UNL     1      33.505  -6.619 -20.482  0.00  0.00    -0.024 C 
ATOM     12  C   UNL     1      33.331  -8.017 -23.879  0.00  0.00    -0.028 C 
ATOM     13  C   UNL     1      32.754  -9.925 -22.338  0.00  0.00    +0.024 A 
ATOM     14  C   UNL     1      30.490  -7.295 -22.616  0.00  0.00    -0.015 C 
ATOM     15  C   UNL     1      33.532  -9.472 -23.443  0.00  0.00    +0.056 C 
ATOM     16  C   UNL     1      32.643 -11.189 -21.762  0.00  0.00    +0.022 A 
ATOM     17  C   UNL     1      31.725 -11.083 -20.714  0.00  0.00    +0.059 A 
ATOM     18  C   UNL     1      33.248 -12.408 -22.049  0.00  0.00    +0.059 C 
ATOM     19  C   UNL     1      31.365 -12.177 -19.922  0.00  0.00    +0.047 C 
ATOM     20  C   UNL     1      34.240 -12.540 -23.129  0.00  0.00    +0.265 C 
ATOM     21  C   UNL     1      32.894 -13.518 -21.258  0.00  0.00    +0.034 C 
ATOM     22  C   UNL     1      31.969 -13.401 -20.218  0.00  0.00    +0.142 C 
ATOM     23  H   UNL     1      32.678  -6.286 -23.237  0.00  0.00    -0.078 HD
ATOM     24  H   UNL     1      30.656  -9.400 -20.026  0.00  0.00    +0.166 HD
ATOM     25  H   UNL     1      35.336 -11.807 -24.596  0.00  0.00    +0.178 HD
ENDROOT
TORSDOF 0
ENDMDL
MODEL 7
REMARK VINA RESULT:      -8.5      2.344      3.893
REMARK  Name = 135565554
REMARK  0 active torsions:
REMARK  status: ('A' for Active; 'I' for Inactive)
REMARK                            x       y       z     vdW  Elec       q    Type
REMARK                         _______ _______ _______ _____ _____    ______ ____
ROOT
ATOM      1  F   UNL     1      33.974 -20.965 -19.830  0.00  0.00    -0.204 F 
ATOM      2  O   UNL     1      30.334 -22.347 -16.764  0.00  0.00    -0.268 OA
ATOM      3  N   UNL     1      35.226 -24.725 -12.715  0.00  0.00    +0.397 N 
ATOM      4  N   UNL     1      36.021 -23.353 -16.112  0.00  0.00    -0.358 N 
ATOM      5  N   UNL     1      31.926 -24.163 -14.117  0.00  0.00    -0.185 NA
ATOM      6  N   UNL     1      31.144 -23.505 -15.003  0.00  0.00    -0.203 N 
ATOM      7  C   UNL     1      36.144 -24.620 -13.882  0.00  0.00    -0.007 C 
ATOM      8  C   UNL     1      37.288 -23.797 -13.285  0.00  0.00    -0.016 C 
ATOM      9  C   UNL     1      35.446 -23.928 -15.013  0.00  0.00    +0.017 A 
ATOM     10  C   UNL     1      35.289 -23.465 -11.963  0.00  0.00    -0.076 C 
ATOM     11  C   UNL     1      36.605 -22.806 -12.354  0.00  0.00    -0.024 C 
ATOM     12  C   UNL     1      33.849 -25.147 -13.022  0.00  0.00    -0.028 C 
ATOM     13  C   UNL     1      34.084 -23.772 -15.121  0.00  0.00    +0.024 A 
ATOM     14  C   UNL     1      36.635 -26.003 -14.323  0.00  0.00    -0.015 C 
ATOM     15  C   UNL     1      33.209 -24.300 -14.126  0.00  0.00    +0.056 C 
ATOM     16  C   UNL     1      33.812 -23.048 -16.280  0.00  0.00    +0.022 A 
ATOM     17  C   UNL     1      35.037 -22.796 -16.903  0.00  0.00    +0.059 A 
ATOM     18  C   UNL     1      32.626 -22.590 -16.844  0.00  0.00    +0.059 C 
ATOM     19  C   UNL     1      35.132 -22.095 -18.108  0.00  0.00    +0.047 C 
ATOM     20  C   UNL     1      31.324 -22.817 -16.192  0.00  0.00    +0.265 C 
ATOM     21  C   UNL     1      32.708 -21.882 -18.058  0.00  0.00    +0.034 C 
ATOM     22  C   UNL     1      33.938 -21.644 -18.675  0.00  0.00    +0.142 C 
ATOM     23  H   UNL     1      35.560 -25.497 -12.137  0.00  0.00    -0.078 HD
ATOM     24  H   UNL     1      36.986 -23.338 -16.308  0.00  0.00    +0.166 HD
ATOM     25  H   UNL     1      30.198 -23.518 -14.732  0.00  0.00    +0.178 HD
ENDROOT
TORSDOF 0
ENDMDL
