MODEL 1
REMARK VINA RESULT:     -11.2      0.000      0.000
REMARK  Name = 91617630
REMARK  6 active torsions:
REMARK  status: ('A' for Active; 'I' for Inactive)
REMARK    1  A    between atoms: N_4  and  C_10
REMARK    2  A    between atoms: N_5  and  C_16
REMARK    3  A    between atoms: C_7  and  C_24
REMARK    4  A    between atoms: N_23  and  C_26
REMARK    5  A    between atoms: C_26  and  C_28
REMARK    6  A    between atoms: C_28  and  O_29
REMARK                            x       y       z     vdW  Elec       q    Type
REMARK                         _______ _______ _______ _____ _____    ______ ____
ROOT
ATOM      1  O   UNL     1      31.764 -23.026 -17.227  0.00  0.00    -0.252 OA
ATOM      2  O   UNL     1      36.241 -22.828 -16.000  0.00  0.00    -0.273 OA
ATOM      3  O   UNL     1      33.067 -23.793 -12.831  0.00  0.00    -0.273 OA
ATOM      4  N   UNL     1      34.022 -23.012 -16.687  0.00  0.00    -0.215 N 
ATOM      5  N   UNL     1      32.371 -23.504 -15.036  0.00  0.00    -0.215 N 
ATOM      6  C   UNL     1      32.653 -23.187 -16.384  0.00  0.00    +0.319 C 
ATOM      7  C   UNL     1      34.719 -23.969 -14.552  0.00  0.00    +0.229 C 
ATOM      8  C   UNL     1      35.085 -23.198 -15.795  0.00  0.00    +0.250 C 
ATOM      9  C   UNL     1      33.321 -23.730 -14.035  0.00  0.00    +0.250 C 
ENDROOT
BRANCH   4  10
ATOM     10  C   UNL     1      34.331 -22.509 -18.004  0.00  0.00    +0.084 C 
ATOM     11  C   UNL     1      35.701 -21.827 -18.010  0.00  0.00    +0.020 C 
ATOM     12  C   UNL     1      33.234 -21.560 -18.492  0.00  0.00    +0.020 C 
ATOM     13  C   UNL     1      33.568 -20.973 -19.862  0.00  0.00    +0.002 C 
ATOM     14  C   UNL     1      36.031 -21.238 -19.379  0.00  0.00    +0.002 C 
ATOM     15  C   UNL     1      34.934 -20.295 -19.866  0.00  0.00    +0.000 C 
ENDBRANCH   4  10
BRANCH   5  16
ATOM     16  C   UNL     1      30.978 -23.507 -14.657  0.00  0.00    +0.084 C 
ATOM     17  C   UNL     1      30.207 -22.421 -15.414  0.00  0.00    +0.020 C 
ATOM     18  C   UNL     1      30.363 -24.889 -14.886  0.00  0.00    +0.020 C 
ATOM     19  C   UNL     1      28.875 -24.908 -14.544  0.00  0.00    +0.002 C 
ATOM     20  C   UNL     1      28.721 -22.443 -15.069  0.00  0.00    +0.002 C 
ATOM     21  C   UNL     1      28.110 -23.822 -15.296  0.00  0.00    +0.000 C 
ENDBRANCH   5  16
BRANCH   7  24
ATOM     22  O   UNL     1      36.474 -22.815 -13.412  0.00  0.00    -0.274 OA
ATOM     23  N   UNL     1      35.783 -24.888 -12.610  0.00  0.00    -0.294 N 
ATOM     24  C   UNL     1      35.750 -23.806 -13.472  0.00  0.00    +0.240 C 
ATOM     25  H   UNL     1      35.149 -25.627 -12.761  0.00  0.00    +0.150 HD
BRANCH  23  26
ATOM     26  C   UNL     1      36.702 -24.989 -11.500  0.00  0.00    +0.200 C 
BRANCH  26  28
ATOM     27  O   UNL     1      35.499 -24.360  -9.513  0.00  0.00    -0.248 OA
ATOM     28  C   UNL     1      36.342 -24.078 -10.355  0.00  0.00    +0.334 C 
BRANCH  28  29
ATOM     29  O   UNL     1      37.039 -22.917 -10.347  0.00  0.00    -0.479 OA
ATOM     30  H   UNL     1      37.792 -22.827  -9.797  0.00  0.00    +0.295 HD
ENDBRANCH  28  29
ENDBRANCH  26  28
ENDBRANCH  23  26
ENDBRANCH   7  24
TORSDOF 6
ENDMDL
MODEL 2
REMARK VINA RESULT:     -11.2      1.495      5.331
REMARK  Name = 91617630
REMARK  6 active torsions:
REMARK  status: ('A' for Active; 'I' for Inactive)
REMARK    1  A    between atoms: N_4  and  C_10
REMARK    2  A    between atoms: N_5  and  C_16
REMARK    3  A    between atoms: C_7  and  C_24
REMARK    4  A    between atoms: N_23  and  C_26
REMARK    5  A    between atoms: C_26  and  C_28
REMARK    6  A    between atoms: C_28  and  O_29
REMARK                            x       y       z     vdW  Elec       q    Type
REMARK                         _______ _______ _______ _____ _____    ______ ____
ROOT
ATOM      1  O   UNL     1      31.673 -22.527 -16.967  0.00  0.00    -0.252 OA
ATOM      2  O   UNL     1      33.030 -24.333 -12.906  0.00  0.00    -0.273 OA
ATOM      3  O   UNL     1      36.180 -23.199 -16.044  0.00  0.00    -0.273 OA
ATOM      4  N   UNL     1      32.303 -23.341 -14.885  0.00  0.00    -0.215 N 
ATOM      5  N   UNL     1      33.941 -22.761 -16.521  0.00  0.00    -0.215 N 
ATOM      6  C   UNL     1      32.573 -22.835 -16.177  0.00  0.00    +0.319 C 
ATOM      7  C   UNL     1      34.642 -23.144 -14.213  0.00  0.00    +0.229 C 
ATOM      8  C   UNL     1      33.264 -23.689 -13.929  0.00  0.00    +0.250 C 
ATOM      9  C   UNL     1      35.013 -23.063 -15.673  0.00  0.00    +0.250 C 
ENDROOT
BRANCH   4  10
ATOM     10  C   UNL     1      30.919 -23.602 -14.572  0.00  0.00    +0.084 C 
ATOM     11  C   UNL     1      30.527 -25.015 -15.014  0.00  0.00    +0.020 C 
ATOM     12  C   UNL     1      30.011 -22.548 -15.209  0.00  0.00    +0.020 C 
ATOM     13  C   UNL     1      28.536 -22.837 -14.936  0.00  0.00    +0.002 C 
ATOM     14  C   UNL     1      29.052 -25.300 -14.743  0.00  0.00    +0.002 C 
ATOM     15  C   UNL     1      28.148 -24.245 -15.375  0.00  0.00    +0.000 C 
ENDBRANCH   4  10
BRANCH   5  16
ATOM     16  C   UNL     1      34.241 -22.425 -17.893  0.00  0.00    +0.084 C 
ATOM     17  C   UNL     1      33.161 -21.507 -18.473  0.00  0.00    +0.020 C 
ATOM     18  C   UNL     1      35.628 -21.790 -17.998  0.00  0.00    +0.020 C 
ATOM     19  C   UNL     1      35.950 -21.375 -19.432  0.00  0.00    +0.002 C 
ATOM     20  C   UNL     1      33.486 -21.094 -19.907  0.00  0.00    +0.002 C 
ATOM     21  C   UNL     1      34.871 -20.463 -20.010  0.00  0.00    +0.000 C 
ENDBRANCH   5  16
BRANCH   7  24
ATOM     22  O   UNL     1      36.305 -23.283 -12.502  0.00  0.00    -0.274 OA
ATOM     23  N   UNL     1      35.887 -25.155 -13.822  0.00  0.00    -0.294 N 
ATOM     24  C   UNL     1      35.695 -23.849 -13.406  0.00  0.00    +0.240 C 
ATOM     25  H   UNL     1      35.335 -25.498 -14.562  0.00  0.00    +0.150 HD
BRANCH  23  26
ATOM     26  C   UNL     1      36.860 -26.041 -13.224  0.00  0.00    +0.200 C 
BRANCH  26  28
ATOM     27  O   UNL     1      38.962 -26.912 -14.011  0.00  0.00    -0.248 OA
ATOM     28  C   UNL     1      37.782 -26.669 -14.237  0.00  0.00    +0.334 C 
BRANCH  28  29
ATOM     29  O   UNL     1      37.184 -26.937 -15.421  0.00  0.00    -0.479 OA
ATOM     30  H   UNL     1      37.701 -27.022 -16.198  0.00  0.00    +0.295 HD
ENDBRANCH  28  29
ENDBRANCH  26  28
ENDBRANCH  23  26
ENDBRANCH   7  24
TORSDOF 6
ENDMDL
MODEL 3
REMARK VINA RESULT:     -10.9      1.703      6.833
REMARK  Name = 91617630
REMARK  6 active torsions:
REMARK  status: ('A' for Active; 'I' for Inactive)
REMARK    1  A    between atoms: N_4  and  C_10
REMARK    2  A    between atoms: N_5  and  C_16
REMARK    3  A    between atoms: C_7  and  C_24
REMARK    4  A    between atoms: N_23  and  C_26
REMARK    5  A    between atoms: C_26  and  C_28
REMARK    6  A    between atoms: C_28  and  O_29
REMARK                            x       y       z     vdW  Elec       q    Type
REMARK                         _______ _______ _______ _____ _____    ______ ____
ROOT
ATOM      1  O   UNL     1      36.262 -23.534 -15.711  0.00  0.00    -0.252 OA
ATOM      2  O   UNL     1      32.636 -23.818 -12.819  0.00  0.00    -0.273 OA
ATOM      3  O   UNL     1      31.963 -22.540 -17.175  0.00  0.00    -0.273 OA
ATOM      4  N   UNL     1      34.473 -23.787 -14.253  0.00  0.00    -0.215 N 
ATOM      5  N   UNL     1      34.123 -23.112 -16.515  0.00  0.00    -0.215 N 
ATOM      6  C   UNL     1      35.042 -23.499 -15.514  0.00  0.00    +0.319 C 
ATOM      7  C   UNL     1      32.211 -23.825 -15.173  0.00  0.00    +0.229 C 
ATOM      8  C   UNL     1      33.104 -23.790 -13.958  0.00  0.00    +0.250 C 
ATOM      9  C   UNL     1      32.731 -23.076 -16.375  0.00  0.00    +0.250 C 
ENDROOT
BRANCH   4  10
ATOM     10  C   UNL     1      35.395 -24.004 -13.164  0.00  0.00    +0.084 C 
ATOM     11  C   UNL     1      36.370 -22.830 -13.045  0.00  0.00    +0.020 C 
ATOM     12  C   UNL     1      36.139 -25.330 -13.341  0.00  0.00    +0.020 C 
ATOM     13  C   UNL     1      37.160 -25.554 -12.228  0.00  0.00    +0.002 C 
ATOM     14  C   UNL     1      37.392 -23.058 -11.934  0.00  0.00    +0.002 C 
ATOM     15  C   UNL     1      38.129 -24.382 -12.109  0.00  0.00    +0.000 C 
ENDBRANCH   4  10
BRANCH   5  16
ATOM     16  C   UNL     1      34.689 -22.635 -17.755  0.00  0.00    +0.084 C 
ATOM     17  C   UNL     1      33.659 -21.818 -18.541  0.00  0.00    +0.020 C 
ATOM     18  C   UNL     1      35.957 -21.824 -17.488  0.00  0.00    +0.020 C 
ATOM     19  C   UNL     1      36.548 -21.261 -18.779  0.00  0.00    +0.002 C 
ATOM     20  C   UNL     1      34.253 -21.258 -19.830  0.00  0.00    +0.002 C 
ATOM     21  C   UNL     1      35.519 -20.451 -19.562  0.00  0.00    +0.000 C 
ENDBRANCH   5  16
BRANCH   7  24
ATOM     22  O   UNL     1      30.548 -22.463 -14.129  0.00  0.00    -0.274 OA
ATOM     23  N   UNL     1      29.872 -24.297 -15.395  0.00  0.00    -0.294 N 
ATOM     24  C   UNL     1      30.800 -23.435 -14.838  0.00  0.00    +0.240 C 
ATOM     25  H   UNL     1      30.197 -25.044 -15.947  0.00  0.00    +0.150 HD
BRANCH  23  26
ATOM     26  C   UNL     1      28.446 -24.155 -15.203  0.00  0.00    +0.200 C 
BRANCH  26  28
ATOM     27  O   UNL     1      27.441 -23.380 -17.248  0.00  0.00    -0.248 OA
ATOM     28  C   UNL     1      27.831 -23.125 -16.115  0.00  0.00    +0.334 C 
BRANCH  28  29
ATOM     29  O   UNL     1      27.751 -21.892 -15.564  0.00  0.00    -0.479 OA
ATOM     30  H   UNL     1      27.824 -21.789 -14.635  0.00  0.00    +0.295 HD
ENDBRANCH  28  29
ENDBRANCH  26  28
ENDBRANCH  23  26
ENDBRANCH   7  24
TORSDOF 6
ENDMDL
MODEL 4
REMARK VINA RESULT:     -10.9      0.996      5.279
REMARK  Name = 91617630
REMARK  6 active torsions:
REMARK  status: ('A' for Active; 'I' for Inactive)
REMARK    1  A    between atoms: N_4  and  C_10
REMARK    2  A    between atoms: N_5  and  C_16
REMARK    3  A    between atoms: C_7  and  C_24
REMARK    4  A    between atoms: N_23  and  C_26
REMARK    5  A    between atoms: C_26  and  C_28
REMARK    6  A    between atoms: C_28  and  O_29
REMARK                            x       y       z     vdW  Elec       q    Type
REMARK                         _______ _______ _______ _____ _____    ______ ____
ROOT
ATOM      1  O   UNL     1      32.185 -22.465 -17.841  0.00  0.00    -0.252 OA
ATOM      2  O   UNL     1      33.056 -24.369 -13.693  0.00  0.00    -0.273 OA
ATOM      3  O   UNL     1      36.536 -22.800 -16.238  0.00  0.00    -0.273 OA
ATOM      4  N   UNL     1      32.556 -23.335 -15.720  0.00  0.00    -0.215 N 
ATOM      5  N   UNL     1      34.368 -22.528 -17.048  0.00  0.00    -0.215 N 
ATOM      6  C   UNL     1      32.976 -22.738 -16.930  0.00  0.00    +0.319 C 
ATOM      7  C   UNL     1      34.734 -22.977 -14.675  0.00  0.00    +0.229 C 
ATOM      8  C   UNL     1      33.386 -23.652 -14.638  0.00  0.00    +0.250 C 
ATOM      9  C   UNL     1      35.319 -22.784 -16.053  0.00  0.00    +0.250 C 
ENDROOT
BRANCH   4  10
ATOM     10  C   UNL     1      31.171 -23.731 -15.643  0.00  0.00    +0.084 C 
ATOM     11  C   UNL     1      30.354 -22.678 -14.890  0.00  0.00    +0.020 C 
ATOM     12  C   UNL     1      31.037 -25.110 -14.994  0.00  0.00    +0.020 C 
ATOM     13  C   UNL     1      29.573 -25.524 -14.853  0.00  0.00    +0.002 C 
ATOM     14  C   UNL     1      28.892 -23.096 -14.747  0.00  0.00    +0.002 C 
ATOM     15  C   UNL     1      28.761 -24.473 -14.103  0.00  0.00    +0.000 C 
ENDBRANCH   4  10
BRANCH   5  16
ATOM     16  C   UNL     1      34.845 -22.093 -18.339  0.00  0.00    +0.084 C 
ATOM     17  C   UNL     1      33.833 -21.152 -19.001  0.00  0.00    +0.020 C 
ATOM     18  C   UNL     1      36.218 -21.431 -18.209  0.00  0.00    +0.020 C 
ATOM     19  C   UNL     1      36.723 -20.912 -19.553  0.00  0.00    +0.002 C 
ATOM     20  C   UNL     1      34.342 -20.636 -20.344  0.00  0.00    +0.002 C 
ATOM     21  C   UNL     1      35.712 -19.979 -20.212  0.00  0.00    +0.000 C 
ENDBRANCH   5  16
BRANCH   7  24
ATOM     22  O   UNL     1      36.272 -24.688 -14.026  0.00  0.00    -0.274 OA
ATOM     23  N   UNL     1      35.862 -22.926 -12.560  0.00  0.00    -0.294 N 
ATOM     24  C   UNL     1      35.710 -23.633 -13.740  0.00  0.00    +0.240 C 
ATOM     25  H   UNL     1      35.356 -22.089 -12.447  0.00  0.00    +0.150 HD
BRANCH  23  26
ATOM     26  C   UNL     1      36.726 -23.357 -11.485  0.00  0.00    +0.200 C 
BRANCH  26  28
ATOM     27  O   UNL     1      36.183 -24.069  -9.251  0.00  0.00    -0.248 OA
ATOM     28  C   UNL     1      36.011 -24.195 -10.457  0.00  0.00    +0.334 C 
BRANCH  28  29
ATOM     29  O   UNL     1      35.159 -25.100 -10.994  0.00  0.00    -0.479 OA
ATOM     30  H   UNL     1      35.131 -25.223 -11.922  0.00  0.00    +0.295 HD
ENDBRANCH  28  29
ENDBRANCH  26  28
ENDBRANCH  23  26
ENDBRANCH   7  24
TORSDOF 6
ENDMDL
MODEL 5
REMARK VINA RESULT:     -10.4      1.584      6.892
REMARK  Name = 91617630
REMARK  6 active torsions:
REMARK  status: ('A' for Active; 'I' for Inactive)
REMARK    1  A    between atoms: N_4  and  C_10
REMARK    2  A    between atoms: N_5  and  C_16
REMARK    3  A    between atoms: C_7  and  C_24
REMARK    4  A    between atoms: N_23  and  C_26
REMARK    5  A    between atoms: C_26  and  C_28
REMARK    6  A    between atoms: C_28  and  O_29
REMARK                            x       y       z     vdW  Elec       q    Type
REMARK                         _______ _______ _______ _____ _____    ______ ____
ROOT
ATOM      1  O   UNL     1      32.785 -24.808 -12.607  0.00  0.00    -0.252 OA
ATOM      2  O   UNL     1      32.179 -22.566 -16.632  0.00  0.00    -0.273 OA
ATOM      3  O   UNL     1      36.429 -23.265 -15.048  0.00  0.00    -0.273 OA
ATOM      4  N   UNL     1      32.431 -23.781 -14.660  0.00  0.00    -0.215 N 
ATOM      5  N   UNL     1      34.641 -24.135 -13.831  0.00  0.00    -0.215 N 
ATOM      6  C   UNL     1      33.252 -24.297 -13.631  0.00  0.00    +0.319 C 
ATOM      7  C   UNL     1      34.330 -23.505 -16.170  0.00  0.00    +0.229 C 
ATOM      8  C   UNL     1      32.885 -23.210 -15.855  0.00  0.00    +0.250 C 
ATOM      9  C   UNL     1      35.244 -23.595 -14.973  0.00  0.00    +0.250 C 
ENDROOT
BRANCH   4  10
ATOM     10  C   UNL     1      31.011 -23.764 -14.403  0.00  0.00    +0.084 C 
ATOM     11  C   UNL     1      30.314 -24.888 -15.173  0.00  0.00    +0.020 C 
ATOM     12  C   UNL     1      30.415 -22.398 -14.750  0.00  0.00    +0.020 C 
ATOM     13  C   UNL     1      28.903 -22.374 -14.537  0.00  0.00    +0.002 C 
ATOM     14  C   UNL     1      28.802 -24.861 -14.962  0.00  0.00    +0.002 C 
ATOM     15  C   UNL     1      28.210 -23.496 -15.304  0.00  0.00    +0.000 C 
ENDBRANCH   4  10
BRANCH   5  16
ATOM     16  C   UNL     1      35.494 -24.483 -12.720  0.00  0.00    +0.084 C 
ATOM     17  C   UNL     1      36.595 -25.451 -13.164  0.00  0.00    +0.020 C 
ATOM     18  C   UNL     1      36.084 -23.224 -12.082  0.00  0.00    +0.020 C 
ATOM     19  C   UNL     1      37.033 -23.565 -10.936  0.00  0.00    +0.002 C 
ATOM     20  C   UNL     1      37.542 -25.790 -12.016  0.00  0.00    +0.002 C 
ATOM     21  C   UNL     1      38.127 -24.533 -11.379  0.00  0.00    +0.000 C 
ENDBRANCH   5  16
BRANCH   7  24
ATOM     22  O   UNL     1      35.848 -21.860 -17.008  0.00  0.00    -0.274 OA
ATOM     23  N   UNL     1      34.135 -22.621 -18.390  0.00  0.00    -0.294 N 
ATOM     24  C   UNL     1      34.871 -22.575 -17.218  0.00  0.00    +0.240 C 
ATOM     25  H   UNL     1      33.369 -23.237 -18.439  0.00  0.00    +0.150 HD
BRANCH  23  26
ATOM     26  C   UNL     1      34.434 -21.805 -19.544  0.00  0.00    +0.200 C 
BRANCH  26  28
ATOM     27  O   UNL     1      33.600 -19.787 -20.558  0.00  0.00    -0.248 OA
ATOM     28  C   UNL     1      33.432 -20.700 -19.758  0.00  0.00    +0.334 C 
BRANCH  28  29
ATOM     29  O   UNL     1      32.329 -20.811 -18.981  0.00  0.00    -0.479 OA
ATOM     30  H   UNL     1      32.210 -21.570 -18.444  0.00  0.00    +0.295 HD
ENDBRANCH  28  29
ENDBRANCH  26  28
ENDBRANCH  23  26
ENDBRANCH   7  24
TORSDOF 6
ENDMDL
MODEL 6
REMARK VINA RESULT:     -10.4      2.119      2.737
REMARK  Name = 91617630
REMARK  6 active torsions:
REMARK  status: ('A' for Active; 'I' for Inactive)
REMARK    1  A    between atoms: N_4  and  C_10
REMARK    2  A    between atoms: N_5  and  C_16
REMARK    3  A    between atoms: C_7  and  C_24
REMARK    4  A    between atoms: N_23  and  C_26
REMARK    5  A    between atoms: C_26  and  C_28
REMARK    6  A    between atoms: C_28  and  O_29
REMARK                            x       y       z     vdW  Elec       q    Type
REMARK                         _______ _______ _______ _____ _____    ______ ____
ROOT
ATOM      1  O   UNL     1      32.153 -22.806 -17.571  0.00  0.00    -0.252 OA
ATOM      2  O   UNL     1      36.737 -22.091 -17.312  0.00  0.00    -0.273 OA
ATOM      3  O   UNL     1      34.495 -23.746 -13.667  0.00  0.00    -0.273 OA
ATOM      4  N   UNL     1      34.457 -22.523 -17.527  0.00  0.00    -0.215 N 
ATOM      5  N   UNL     1      33.290 -23.374 -15.627  0.00  0.00    -0.215 N 
ATOM      6  C   UNL     1      33.222 -22.912 -16.961  0.00  0.00    +0.319 C 
ATOM      7  C   UNL     1      35.725 -23.548 -15.709  0.00  0.00    +0.229 C 
ATOM      8  C   UNL     1      35.708 -22.633 -16.908  0.00  0.00    +0.250 C 
ATOM      9  C   UNL     1      34.462 -23.548 -14.882  0.00  0.00    +0.250 C 
ENDROOT
BRANCH   4  10
ATOM     10  C   UNL     1      34.400 -21.875 -18.815  0.00  0.00    +0.084 C 
ATOM     11  C   UNL     1      35.655 -21.031 -19.047  0.00  0.00    +0.020 C 
ATOM     12  C   UNL     1      33.130 -21.031 -18.940  0.00  0.00    +0.020 C 
ATOM     13  C   UNL     1      33.075 -20.293 -20.276  0.00  0.00    +0.002 C 
ATOM     14  C   UNL     1      35.597 -20.291 -20.381  0.00  0.00    +0.002 C 
ATOM     15  C   UNL     1      34.328 -19.453 -20.506  0.00  0.00    +0.000 C 
ENDBRANCH   4  10
BRANCH   5  16
ATOM     16  C   UNL     1      32.029 -23.602 -14.962  0.00  0.00    +0.084 C 
ATOM     17  C   UNL     1      32.000 -24.991 -14.317  0.00  0.00    +0.020 C 
ATOM     18  C   UNL     1      31.761 -22.504 -13.931  0.00  0.00    +0.020 C 
ATOM     19  C   UNL     1      30.458 -22.749 -13.174  0.00  0.00    +0.002 C 
ATOM     20  C   UNL     1      30.696 -25.232 -13.561  0.00  0.00    +0.002 C 
ATOM     21  C   UNL     1      30.429 -24.135 -12.536  0.00  0.00    +0.000 C 
ENDBRANCH   5  16
BRANCH   7  24
ATOM     22  O   UNL     1      37.275 -22.216 -14.470  0.00  0.00    -0.274 OA
ATOM     23  N   UNL     1      37.630 -24.512 -14.619  0.00  0.00    -0.294 N 
ATOM     24  C   UNL     1      36.947 -23.333 -14.863  0.00  0.00    +0.240 C 
ATOM     25  H   UNL     1      37.267 -25.349 -14.989  0.00  0.00    +0.150 HD
BRANCH  23  26
ATOM     26  C   UNL     1      38.852 -24.574 -13.850  0.00  0.00    +0.200 C 
BRANCH  26  28
ATOM     27  O   UNL     1      39.084 -26.943 -14.209  0.00  0.00    -0.248 OA
ATOM     28  C   UNL     1      39.621 -25.851 -14.072  0.00  0.00    +0.334 C 
BRANCH  28  29
ATOM     29  O   UNL     1      40.964 -25.676 -14.106  0.00  0.00    -0.479 OA
ATOM     30  H   UNL     1      41.533 -26.419 -14.072  0.00  0.00    +0.295 HD
ENDBRANCH  28  29
ENDBRANCH  26  28
ENDBRANCH  23  26
ENDBRANCH   7  24
TORSDOF 6
ENDMDL
MODEL 7
REMARK VINA RESULT:      -8.9      2.120      6.331
REMARK  Name = 91617630
REMARK  6 active torsions:
REMARK  status: ('A' for Active; 'I' for Inactive)
REMARK    1  A    between atoms: N_4  and  C_10
REMARK    2  A    between atoms: N_5  and  C_16
REMARK    3  A    between atoms: C_7  and  C_24
REMARK    4  A    between atoms: N_23  and  C_26
REMARK    5  A    between atoms: C_26  and  C_28
REMARK    6  A    between atoms: C_28  and  O_29
REMARK                            x       y       z     vdW  Elec       q    Type
REMARK                         _______ _______ _______ _____ _____    ______ ____
ROOT
ATOM      1  O   UNL     1      37.132 -22.188 -17.315  0.00  0.00    -0.252 OA
ATOM      2  O   UNL     1      34.012 -23.619 -14.183  0.00  0.00    -0.273 OA
ATOM      3  O   UNL     1      32.583 -22.101 -18.271  0.00  0.00    -0.273 OA
ATOM      4  N   UNL     1      35.621 -23.006 -15.752  0.00  0.00    -0.215 N 
ATOM      5  N   UNL     1      34.877 -22.207 -17.874  0.00  0.00    -0.215 N 
ATOM      6  C   UNL     1      35.966 -22.464 -17.011  0.00  0.00    +0.319 C 
ATOM      7  C   UNL     1      33.339 -23.487 -16.474  0.00  0.00    +0.229 C 
ATOM      8  C   UNL     1      34.331 -23.364 -15.344  0.00  0.00    +0.250 C 
ATOM      9  C   UNL     1      33.538 -22.518 -17.613  0.00  0.00    +0.250 C 
ENDROOT
BRANCH   4  10
ATOM     10  C   UNL     1      36.685 -23.107 -14.782  0.00  0.00    +0.084 C 
ATOM     11  C   UNL     1      37.288 -24.514 -14.792  0.00  0.00    +0.020 C 
ATOM     12  C   UNL     1      36.183 -22.726 -13.387  0.00  0.00    +0.020 C 
ATOM     13  C   UNL     1      37.280 -22.879 -12.335  0.00  0.00    +0.002 C 
ATOM     14  C   UNL     1      38.381 -24.665 -13.737  0.00  0.00    +0.002 C 
ATOM     15  C   UNL     1      37.880 -24.281 -12.348  0.00  0.00    +0.000 C 
ENDBRANCH   4  10
BRANCH   5  16
ATOM     16  C   UNL     1      35.177 -21.486 -19.088  0.00  0.00    +0.084 C 
ATOM     17  C   UNL     1      33.960 -20.680 -19.554  0.00  0.00    +0.020 C 
ATOM     18  C   UNL     1      36.397 -20.586 -18.889  0.00  0.00    +0.020 C 
ATOM     19  C   UNL     1      36.706 -19.770 -20.142  0.00  0.00    +0.002 C 
ATOM     20  C   UNL     1      34.273 -19.866 -20.807  0.00  0.00    +0.002 C 
ATOM     21  C   UNL     1      35.492 -18.971 -20.607  0.00  0.00    +0.000 C 
ENDBRANCH   5  16
BRANCH   7  24
ATOM     22  O   UNL     1      31.152 -22.557 -16.223  0.00  0.00    -0.274 OA
ATOM     23  N   UNL     1      31.631 -24.597 -15.210  0.00  0.00    -0.294 N 
ATOM     24  C   UNL     1      31.923 -23.480 -15.973  0.00  0.00    +0.240 C 
ATOM     25  H   UNL     1      32.335 -25.273 -15.080  0.00  0.00    +0.150 HD
BRANCH  23  26
ATOM     26  C   UNL     1      30.344 -24.819 -14.592  0.00  0.00    +0.200 C 
BRANCH  26  28
ATOM     27  O   UNL     1      30.420 -24.293 -12.244  0.00  0.00    -0.248 OA
ATOM     28  C   UNL     1      30.117 -23.952 -13.381  0.00  0.00    +0.334 C 
BRANCH  28  29
ATOM     29  O   UNL     1      29.544 -22.759 -13.668  0.00  0.00    -0.479 OA
ATOM     30  H   UNL     1      28.805 -22.722 -14.244  0.00  0.00    +0.295 HD
ENDBRANCH  28  29
ENDBRANCH  26  28
ENDBRANCH  23  26
ENDBRANCH   7  24
TORSDOF 6
ENDMDL
MODEL 8
REMARK VINA RESULT:      -8.3     11.203     14.443
REMARK  Name = 91617630
REMARK  6 active torsions:
REMARK  status: ('A' for Active; 'I' for Inactive)
REMARK    1  A    between atoms: N_4  and  C_10
REMARK    2  A    between atoms: N_5  and  C_16
REMARK    3  A    between atoms: C_7  and  C_24
REMARK    4  A    between atoms: N_23  and  C_26
REMARK    5  A    between atoms: C_26  and  C_28
REMARK    6  A    between atoms: C_28  and  O_29
REMARK                            x       y       z     vdW  Elec       q    Type
REMARK                         _______ _______ _______ _____ _____    ______ ____
ROOT
ATOM      1  O   UNL     1      32.533  -8.819 -23.563  0.00  0.00    -0.252 OA
ATOM      2  O   UNL     1      33.561 -13.324 -23.070  0.00  0.00    -0.273 OA
ATOM      3  O   UNL     1      32.168 -10.907 -19.426  0.00  0.00    -0.273 OA
ATOM      4  N   UNL     1      32.964 -11.094 -23.392  0.00  0.00    -0.215 N 
ATOM      5  N   UNL     1      32.249  -9.836 -21.494  0.00  0.00    -0.215 N 
ATOM      6  C   UNL     1      32.561  -9.843 -22.872  0.00  0.00    +0.319 C 
ATOM      7  C   UNL     1      32.223 -12.276 -21.387  0.00  0.00    +0.229 C 
ATOM      8  C   UNL     1      33.001 -12.299 -22.679  0.00  0.00    +0.250 C 
ATOM      9  C   UNL     1      32.231 -10.956 -20.655  0.00  0.00    +0.250 C 
ENDROOT
BRANCH   4  10
ATOM     10  C   UNL     1      33.465 -11.098 -24.745  0.00  0.00    +0.084 C 
ATOM     11  C   UNL     1      33.349 -12.497 -25.355  0.00  0.00    +0.020 C 
ATOM     12  C   UNL     1      34.907 -10.589 -24.790  0.00  0.00    +0.020 C 
ATOM     13  C   UNL     1      35.476 -10.636 -26.207  0.00  0.00    +0.002 C 
ATOM     14  C   UNL     1      33.921 -12.543 -26.770  0.00  0.00    +0.002 C 
ATOM     15  C   UNL     1      35.358 -12.031 -26.814  0.00  0.00    +0.000 C 
ENDBRANCH   4  10
BRANCH   5  16
ATOM     16  C   UNL     1      32.015  -8.543 -20.896  0.00  0.00    +0.084 C 
ATOM     17  C   UNL     1      33.340  -7.829 -20.612  0.00  0.00    +0.020 C 
ATOM     18  C   UNL     1      31.107  -7.696 -21.790  0.00  0.00    +0.020 C 
ATOM     19  C   UNL     1      30.885  -6.302 -21.208  0.00  0.00    +0.002 C 
ATOM     20  C   UNL     1      33.114  -6.436 -20.030  0.00  0.00    +0.002 C 
ATOM     21  C   UNL     1      32.206  -5.594 -20.922  0.00  0.00    +0.000 C 
ENDBRANCH   5  16
BRANCH   7  24
ATOM     22  O   UNL     1      31.803 -13.919 -19.704  0.00  0.00    -0.274 OA
ATOM     23  N   UNL     1      33.928 -13.789 -20.646  0.00  0.00    -0.294 N 
ATOM     24  C   UNL     1      32.604 -13.416 -20.488  0.00  0.00    +0.240 C 
ATOM     25  H   UNL     1      34.473 -13.309 -21.311  0.00  0.00    +0.150 HD
BRANCH  23  26
ATOM     26  C   UNL     1      34.549 -14.846 -19.882  0.00  0.00    +0.200 C 
BRANCH  26  28
ATOM     27  O   UNL     1      35.382 -17.067 -20.287  0.00  0.00    -0.248 OA
ATOM     28  C   UNL     1      35.035 -15.984 -20.741  0.00  0.00    +0.334 C 
BRANCH  28  29
ATOM     29  O   UNL     1      35.051 -15.696 -22.064  0.00  0.00    -0.479 OA
ATOM     30  H   UNL     1      35.332 -16.343 -22.681  0.00  0.00    +0.295 HD
ENDBRANCH  28  29
ENDBRANCH  26  28
ENDBRANCH  23  26
ENDBRANCH   7  24
TORSDOF 6
ENDMDL
MODEL 9
REMARK VINA RESULT:      -8.3      2.326      7.153
REMARK  Name = 91617630
REMARK  6 active torsions:
REMARK  status: ('A' for Active; 'I' for Inactive)
REMARK    1  A    between atoms: N_4  and  C_10
REMARK    2  A    between atoms: N_5  and  C_16
REMARK    3  A    between atoms: C_7  and  C_24
REMARK    4  A    between atoms: N_23  and  C_26
REMARK    5  A    between atoms: C_26  and  C_28
REMARK    6  A    between atoms: C_28  and  O_29
REMARK                            x       y       z     vdW  Elec       q    Type
REMARK                         _______ _______ _______ _____ _____    ______ ____
ROOT
ATOM      1  O   UNL     1      34.085 -24.095 -14.051  0.00  0.00    -0.252 OA
ATOM      2  O   UNL     1      32.299 -22.216 -17.907  0.00  0.00    -0.273 OA
ATOM      3  O   UNL     1      36.819 -21.967 -17.152  0.00  0.00    -0.273 OA
ATOM      4  N   UNL     1      33.156 -23.259 -16.008  0.00  0.00    -0.215 N 
ATOM      5  N   UNL     1      35.505 -23.120 -15.611  0.00  0.00    -0.215 N 
ATOM      6  C   UNL     1      34.240 -23.550 -15.149  0.00  0.00    +0.319 C 
ATOM      7  C   UNL     1      34.645 -22.678 -17.854  0.00  0.00    +0.229 C 
ATOM      8  C   UNL     1      33.253 -22.666 -17.272  0.00  0.00    +0.250 C 
ATOM      9  C   UNL     1      35.762 -22.525 -16.851  0.00  0.00    +0.250 C 
ENDROOT
BRANCH   4  10
ATOM     10  C   UNL     1      31.835 -23.516 -15.487  0.00  0.00    +0.084 C 
ATOM     11  C   UNL     1      30.767 -23.013 -16.461  0.00  0.00    +0.020 C 
ATOM     12  C   UNL     1      31.667 -22.887 -14.102  0.00  0.00    +0.020 C 
ATOM     13  C   UNL     1      30.258 -23.101 -13.555  0.00  0.00    +0.002 C 
ATOM     14  C   UNL     1      29.359 -23.224 -15.910  0.00  0.00    +0.002 C 
ATOM     15  C   UNL     1      29.195 -22.600 -14.527  0.00  0.00    +0.000 C 
ENDBRANCH   4  10
BRANCH   5  16
ATOM     16  C   UNL     1      36.601 -23.236 -14.678  0.00  0.00    +0.084 C 
ATOM     17  C   UNL     1      36.142 -22.891 -13.258  0.00  0.00    +0.020 C 
ATOM     18  C   UNL     1      37.212 -24.636 -14.741  0.00  0.00    +0.020 C 
ATOM     19  C   UNL     1      38.340 -24.804 -13.725  0.00  0.00    +0.002 C 
ATOM     20  C   UNL     1      37.272 -23.060 -12.246  0.00  0.00    +0.002 C 
ATOM     21  C   UNL     1      37.883 -24.456 -12.312  0.00  0.00    +0.000 C 
ENDBRANCH   5  16
BRANCH   7  24
ATOM     22  O   UNL     1      35.802 -21.646 -19.672  0.00  0.00    -0.274 OA
ATOM     23  N   UNL     1      33.652 -20.922 -19.149  0.00  0.00    -0.294 N 
ATOM     24  C   UNL     1      34.780 -21.709 -18.994  0.00  0.00    +0.240 C 
ATOM     25  H   UNL     1      32.892 -21.068 -18.540  0.00  0.00    +0.150 HD
BRANCH  23  26
ATOM     26  C   UNL     1      33.536 -19.896 -20.159  0.00  0.00    +0.200 C 
BRANCH  26  28
ATOM     27  O   UNL     1      35.142 -19.793 -21.949  0.00  0.00    -0.248 OA
ATOM     28  C   UNL     1      34.859 -19.536 -20.785  0.00  0.00    +0.334 C 
BRANCH  28  29
ATOM     29  O   UNL     1      35.705 -18.904 -19.938  0.00  0.00    -0.479 OA
ATOM     30  H   UNL     1      35.962 -18.019 -20.108  0.00  0.00    +0.295 HD
ENDBRANCH  28  29
ENDBRANCH  26  28
ENDBRANCH  23  26
ENDBRANCH   7  24
TORSDOF 6
ENDMDL
