MODEL 1
REMARK VINA RESULT:     -11.5      0.000      0.000
REMARK  Name = 18376177
REMARK  11 active torsions:
REMARK  status: ('A' for Active; 'I' for Inactive)
REMARK    1  A    between atoms: N_1  and  S_2
REMARK    2  A    between atoms: N_1  and  C_11
REMARK    3  A    between atoms: N_1  and  C_23
REMARK    4  A    between atoms: S_2  and  C_6
REMARK    5  A    between atoms: C_11  and  C_12
REMARK    6  A    between atoms: C_15  and  N_18
REMARK    7  A    between atoms: C_23  and  C_24
REMARK    8  A    between atoms: C_27  and  O_30
REMARK    9  A    between atoms: O_30  and  C_31
REMARK   10  A    between atoms: C_31  and  C_33
REMARK   11  A    between atoms: C_33  and  O_34
REMARK                            x       y       z     vdW  Elec       q    Type
REMARK                         _______ _______ _______ _____ _____    ______ ____
ROOT
ATOM      1  N   UNL     1      33.313 -23.130 -14.939  0.00  0.00    -0.147 NA
ENDROOT
BRANCH   1   2
ATOM      2  S   UNL     1      32.117 -23.892 -13.958  0.00  0.00    +0.065 S 
ATOM      3  O   UNL     1      31.917 -23.114 -12.749  0.00  0.00    -0.153 OA
ATOM      4  O   UNL     1      32.408 -25.310 -13.854  0.00  0.00    -0.153 OA
BRANCH   2   6
ATOM      5  N   UNL     1      29.354 -22.427 -16.510  0.00  0.00    -0.241 NA
ATOM      6  C   UNL     1      30.651 -23.727 -14.938  0.00  0.00    +0.141 C 
ATOM      7  C   UNL     1      29.669 -24.710 -14.928  0.00  0.00    +0.023 C 
ATOM      8  C   UNL     1      30.448 -22.615 -15.739  0.00  0.00    +0.119 C 
ATOM      9  C   UNL     1      28.529 -24.554 -15.708  0.00  0.00    +0.022 C 
ATOM     10  C   UNL     1      28.420 -23.404 -16.475  0.00  0.00    +0.099 C 
ENDBRANCH   2   6
ENDBRANCH   1   2
BRANCH   1  11
ATOM     11  C   UNL     1      33.681 -23.787 -16.219  0.00  0.00    +0.122 C 
BRANCH  11  12
ATOM     12  C   UNL     1      34.101 -22.795 -17.268  0.00  0.00    -0.004 C 
ATOM     13  C   UNL     1      33.149 -22.235 -18.119  0.00  0.00    -0.002 C 
ATOM     14  C   UNL     1      35.443 -22.435 -17.390  0.00  0.00    -0.002 C 
ATOM     15  C   UNL     1      34.881 -20.957 -19.216  0.00  0.00    +0.074 C 
ATOM     16  C   UNL     1      33.539 -21.316 -19.093  0.00  0.00    +0.016 C 
ATOM     17  C   UNL     1      35.833 -21.516 -18.364  0.00  0.00    +0.016 C 
BRANCH  15  18
ATOM     18  N   UNL     1      35.267 -20.044 -20.180  0.00  0.00    -0.189 N 
ATOM     19  N   UNL     1      36.424 -19.372 -20.057  0.00  0.00    -0.172 NA
ATOM     20  C   UNL     1      34.567 -19.735 -21.309  0.00  0.00    +0.091 C 
ATOM     21  C   UNL     1      35.317 -18.794 -21.970  0.00  0.00    +0.040 C 
ATOM     22  C   UNL     1      36.449 -18.609 -21.154  0.00  0.00    +0.120 C 
ENDBRANCH  15  18
ENDBRANCH  11  12
ENDBRANCH   1  11
BRANCH   1  23
ATOM     23  C   UNL     1      34.494 -22.539 -14.259  0.00  0.00    +0.123 C 
BRANCH  23  24
ATOM     24  C   UNL     1      35.336 -23.579 -13.574  0.00  0.00    -0.001 C 
ATOM     25  C   UNL     1      36.283 -24.300 -14.301  0.00  0.00    +0.034 C 
ATOM     26  C   UNL     1      35.170 -23.822 -12.210  0.00  0.00    -0.003 C 
ATOM     27  C   UNL     1      37.064 -25.265 -13.665  0.00  0.00    +0.139 C 
ATOM     28  C   UNL     1      35.951 -24.787 -11.574  0.00  0.00    +0.003 C 
ATOM     29  C   UNL     1      36.899 -25.508 -12.301  0.00  0.00    +0.037 C 
BRANCH  27  30
ATOM     30  O   UNL     1      37.986 -25.970 -14.374  0.00  0.00    -0.464 OA
BRANCH  30  31
ATOM     31  C   UNL     1      39.243 -26.216 -13.744  0.00  0.00    +0.314 C 
BRANCH  31  33
ATOM     32  O   UNL     1      41.053 -24.612 -13.967  0.00  0.00    -0.246 OA
ATOM     33  C   UNL     1      40.327 -25.461 -14.461  0.00  0.00    +0.359 C 
BRANCH  33  34
ATOM     34  O   UNL     1      40.394 -25.856 -15.757  0.00  0.00    -0.478 OA
ATOM     35  H   UNL     1      41.073 -25.527 -16.313  0.00  0.00    +0.295 HD
ENDBRANCH  33  34
ENDBRANCH  31  33
ENDBRANCH  30  31
ENDBRANCH  27  30
ENDBRANCH  23  24
ENDBRANCH   1  23
TORSDOF 11
ENDMDL
MODEL 2
REMARK VINA RESULT:     -11.0      2.548      7.004
REMARK  Name = 18376177
REMARK  11 active torsions:
REMARK  status: ('A' for Active; 'I' for Inactive)
REMARK    1  A    between atoms: N_1  and  S_2
REMARK    2  A    between atoms: N_1  and  C_11
REMARK    3  A    between atoms: N_1  and  C_23
REMARK    4  A    between atoms: S_2  and  C_6
REMARK    5  A    between atoms: C_11  and  C_12
REMARK    6  A    between atoms: C_15  and  N_18
REMARK    7  A    between atoms: C_23  and  C_24
REMARK    8  A    between atoms: C_27  and  O_30
REMARK    9  A    between atoms: O_30  and  C_31
REMARK   10  A    between atoms: C_31  and  C_33
REMARK   11  A    between atoms: C_33  and  O_34
REMARK                            x       y       z     vdW  Elec       q    Type
REMARK                         _______ _______ _______ _____ _____    ______ ____
ROOT
ATOM      1  N   UNL     1      34.155 -23.563 -15.137  0.00  0.00    -0.147 NA
ENDROOT
BRANCH   1   2
ATOM      2  S   UNL     1      35.814 -23.345 -14.721  0.00  0.00    +0.065 S 
ATOM      3  O   UNL     1      36.186 -21.958 -14.926  0.00  0.00    -0.153 OA
ATOM      4  O   UNL     1      36.607 -24.395 -15.333  0.00  0.00    -0.153 OA
BRANCH   2   6
ATOM      5  N   UNL     1      34.844 -24.765 -11.068  0.00  0.00    -0.241 NA
ATOM      6  C   UNL     1      35.815 -23.638 -12.974  0.00  0.00    +0.141 C 
ATOM      7  C   UNL     1      36.738 -23.012 -12.143  0.00  0.00    +0.023 C 
ATOM      8  C   UNL     1      34.897 -24.498 -12.392  0.00  0.00    +0.119 C 
ATOM      9  C   UNL     1      36.715 -23.261 -10.776  0.00  0.00    +0.022 C 
ATOM     10  C   UNL     1      35.757 -24.138 -10.292  0.00  0.00    +0.099 C 
ENDBRANCH   2   6
ENDBRANCH   1   2
BRANCH   1  11
ATOM     11  C   UNL     1      33.835 -23.953 -16.534  0.00  0.00    +0.122 C 
BRANCH  11  12
ATOM     12  C   UNL     1      34.168 -22.868 -17.518  0.00  0.00    -0.004 C 
ATOM     13  C   UNL     1      35.489 -22.451 -17.676  0.00  0.00    -0.002 C 
ATOM     14  C   UNL     1      33.156 -22.277 -18.275  0.00  0.00    -0.002 C 
ATOM     15  C   UNL     1      34.786 -20.851 -19.345  0.00  0.00    +0.074 C 
ATOM     16  C   UNL     1      35.798 -21.442 -18.589  0.00  0.00    +0.016 C 
ATOM     17  C   UNL     1      33.464 -21.269 -19.188  0.00  0.00    +0.016 C 
BRANCH  15  18
ATOM     18  N   UNL     1      35.093 -19.853 -20.251  0.00  0.00    -0.189 N 
ATOM     19  N   UNL     1      36.232 -19.149 -20.128  0.00  0.00    -0.172 NA
ATOM     20  C   UNL     1      34.328 -19.484 -21.318  0.00  0.00    +0.091 C 
ATOM     21  C   UNL     1      35.013 -18.467 -21.936  0.00  0.00    +0.040 C 
ATOM     22  C   UNL     1      36.176 -18.303 -21.162  0.00  0.00    +0.120 C 
ENDBRANCH  15  18
ENDBRANCH  11  12
ENDBRANCH   1  11
BRANCH   1  23
ATOM     23  C   UNL     1      33.171 -22.592 -14.593  0.00  0.00    +0.123 C 
BRANCH  23  24
ATOM     24  C   UNL     1      31.755 -23.076 -14.736  0.00  0.00    -0.001 C 
ATOM     25  C   UNL     1      30.876 -22.419 -15.595  0.00  0.00    +0.034 C 
ATOM     26  C   UNL     1      31.320 -24.185 -14.008  0.00  0.00    -0.003 C 
ATOM     27  C   UNL     1      29.563 -22.868 -15.728  0.00  0.00    +0.139 C 
ATOM     28  C   UNL     1      30.007 -24.634 -14.140  0.00  0.00    +0.003 C 
ATOM     29  C   UNL     1      29.128 -23.976 -15.001  0.00  0.00    +0.037 C 
BRANCH  27  30
ATOM     30  O   UNL     1      28.704 -22.225 -16.565  0.00  0.00    -0.464 OA
BRANCH  30  31
ATOM     31  C   UNL     1      27.410 -22.801 -16.738  0.00  0.00    +0.314 C 
BRANCH  31  33
ATOM     32  O   UNL     1      26.207 -20.756 -17.260  0.00  0.00    -0.246 OA
ATOM     33  C   UNL     1      26.355 -21.747 -16.560  0.00  0.00    +0.359 C 
BRANCH  33  34
ATOM     34  O   UNL     1      25.569 -22.046 -15.495  0.00  0.00    -0.478 OA
ATOM     35  H   UNL     1      24.860 -21.481 -15.262  0.00  0.00    +0.295 HD
ENDBRANCH  33  34
ENDBRANCH  31  33
ENDBRANCH  30  31
ENDBRANCH  27  30
ENDBRANCH  23  24
ENDBRANCH   1  23
TORSDOF 11
ENDMDL
MODEL 3
REMARK VINA RESULT:     -10.7      2.631      7.133
REMARK  Name = 18376177
REMARK  11 active torsions:
REMARK  status: ('A' for Active; 'I' for Inactive)
REMARK    1  A    between atoms: N_1  and  S_2
REMARK    2  A    between atoms: N_1  and  C_11
REMARK    3  A    between atoms: N_1  and  C_23
REMARK    4  A    between atoms: S_2  and  C_6
REMARK    5  A    between atoms: C_11  and  C_12
REMARK    6  A    between atoms: C_15  and  N_18
REMARK    7  A    between atoms: C_23  and  C_24
REMARK    8  A    between atoms: C_27  and  O_30
REMARK    9  A    between atoms: O_30  and  C_31
REMARK   10  A    between atoms: C_31  and  C_33
REMARK   11  A    between atoms: C_33  and  O_34
REMARK                            x       y       z     vdW  Elec       q    Type
REMARK                         _______ _______ _______ _____ _____    ______ ____
ROOT
ATOM      1  N   UNL     1      34.231 -24.208 -13.704  0.00  0.00    -0.147 NA
ENDROOT
BRANCH   1   2
ATOM      2  S   UNL     1      35.395 -24.117 -12.435  0.00  0.00    +0.065 S 
ATOM      3  O   UNL     1      34.956 -24.933 -11.318  0.00  0.00    -0.153 OA
ATOM      4  O   UNL     1      35.754 -22.729 -12.208  0.00  0.00    -0.153 OA
BRANCH   2   6
ATOM      5  N   UNL     1      37.916 -26.967 -13.782  0.00  0.00    -0.241 NA
ATOM      6  C   UNL     1      36.807 -24.915 -13.147  0.00  0.00    +0.141 C 
ATOM      7  C   UNL     1      37.885 -24.176 -13.618  0.00  0.00    +0.023 C 
ATOM      8  C   UNL     1      36.871 -26.295 -13.251  0.00  0.00    +0.119 C 
ATOM      9  C   UNL     1      38.980 -24.830 -14.172  0.00  0.00    +0.022 C 
ATOM     10  C   UNL     1      38.947 -26.214 -14.231  0.00  0.00    +0.099 C 
ENDBRANCH   2   6
ENDBRANCH   1   2
BRANCH   1  11
ATOM     11  C   UNL     1      34.659 -24.802 -14.996  0.00  0.00    +0.122 C 
BRANCH  11  12
ATOM     12  C   UNL     1      34.722 -23.783 -16.099  0.00  0.00    -0.004 C 
ATOM     13  C   UNL     1      35.773 -22.868 -16.143  0.00  0.00    -0.002 C 
ATOM     14  C   UNL     1      33.728 -23.752 -17.078  0.00  0.00    -0.002 C 
ATOM     15  C   UNL     1      34.837 -21.889 -18.144  0.00  0.00    +0.074 C 
ATOM     16  C   UNL     1      35.831 -21.921 -17.166  0.00  0.00    +0.016 C 
ATOM     17  C   UNL     1      33.786 -22.805 -18.100  0.00  0.00    +0.016 C 
BRANCH  15  18
ATOM     18  N   UNL     1      34.896 -20.951 -19.158  0.00  0.00    -0.189 N 
ATOM     19  N   UNL     1      36.068 -20.386 -19.496  0.00  0.00    -0.172 NA
ATOM     20  C   UNL     1      33.838 -20.513 -19.900  0.00  0.00    +0.091 C 
ATOM     21  C   UNL     1      34.354 -19.596 -20.783  0.00  0.00    +0.040 C 
ATOM     22  C   UNL     1      35.729 -19.558 -20.489  0.00  0.00    +0.120 C 
ENDBRANCH  15  18
ENDBRANCH  11  12
ENDBRANCH   1  11
BRANCH   1  23
ATOM     23  C   UNL     1      33.327 -23.046 -13.900  0.00  0.00    +0.123 C 
BRANCH  23  24
ATOM     24  C   UNL     1      31.917 -23.468 -14.204  0.00  0.00    -0.001 C 
ATOM     25  C   UNL     1      31.172 -22.776 -15.159  0.00  0.00    +0.034 C 
ATOM     26  C   UNL     1      31.352 -24.552 -13.530  0.00  0.00    -0.003 C 
ATOM     27  C   UNL     1      29.863 -23.168 -15.440  0.00  0.00    +0.139 C 
ATOM     28  C   UNL     1      30.044 -24.943 -13.812  0.00  0.00    +0.003 C 
ATOM     29  C   UNL     1      29.299 -24.251 -14.767  0.00  0.00    +0.037 C 
BRANCH  27  30
ATOM     30  O   UNL     1      29.135 -22.491 -16.370  0.00  0.00    -0.464 OA
BRANCH  30  31
ATOM     31  C   UNL     1      27.860 -23.030 -16.716  0.00  0.00    +0.314 C 
BRANCH  31  33
ATOM     32  O   UNL     1      26.510 -21.080 -17.239  0.00  0.00    -0.246 OA
ATOM     33  C   UNL     1      26.791 -21.999 -16.485  0.00  0.00    +0.359 C 
BRANCH  33  34
ATOM     34  O   UNL     1      26.167 -22.228 -15.303  0.00  0.00    -0.478 OA
ATOM     35  H   UNL     1      25.339 -22.667 -15.287  0.00  0.00    +0.295 HD
ENDBRANCH  33  34
ENDBRANCH  31  33
ENDBRANCH  30  31
ENDBRANCH  27  30
ENDBRANCH  23  24
ENDBRANCH   1  23
TORSDOF 11
ENDMDL
MODEL 4
REMARK VINA RESULT:     -10.2      2.601      6.755
REMARK  Name = 18376177
REMARK  11 active torsions:
REMARK  status: ('A' for Active; 'I' for Inactive)
REMARK    1  A    between atoms: N_1  and  S_2
REMARK    2  A    between atoms: N_1  and  C_11
REMARK    3  A    between atoms: N_1  and  C_23
REMARK    4  A    between atoms: S_2  and  C_6
REMARK    5  A    between atoms: C_11  and  C_12
REMARK    6  A    between atoms: C_15  and  N_18
REMARK    7  A    between atoms: C_23  and  C_24
REMARK    8  A    between atoms: C_27  and  O_30
REMARK    9  A    between atoms: O_30  and  C_31
REMARK   10  A    between atoms: C_31  and  C_33
REMARK   11  A    between atoms: C_33  and  O_34
REMARK                            x       y       z     vdW  Elec       q    Type
REMARK                         _______ _______ _______ _____ _____    ______ ____
ROOT
ATOM      1  N   UNL     1      34.271 -23.287 -16.142  0.00  0.00    -0.147 NA
ENDROOT
BRANCH   1   2
ATOM      2  S   UNL     1      35.812 -22.869 -15.494  0.00  0.00    +0.065 S 
ATOM      3  O   UNL     1      35.638 -21.946 -14.387  0.00  0.00    -0.153 OA
ATOM      4  O   UNL     1      36.714 -22.522 -16.577  0.00  0.00    -0.153 OA
BRANCH   2   6
ATOM      5  N   UNL     1      36.142 -26.806 -14.667  0.00  0.00    -0.241 NA
ATOM      6  C   UNL     1      36.376 -24.404 -14.814  0.00  0.00    +0.141 C 
ATOM      7  C   UNL     1      37.447 -24.446 -13.929  0.00  0.00    +0.023 C 
ATOM      8  C   UNL     1      35.763 -25.602 -15.148  0.00  0.00    +0.119 C 
ATOM      9  C   UNL     1      37.867 -25.667 -13.412  0.00  0.00    +0.022 C 
ATOM     10  C   UNL     1      37.187 -26.808 -13.809  0.00  0.00    +0.099 C 
ENDBRANCH   2   6
ENDBRANCH   1   2
BRANCH   1  11
ATOM     11  C   UNL     1      34.195 -23.635 -17.583  0.00  0.00    +0.122 C 
BRANCH  11  12
ATOM     12  C   UNL     1      34.358 -22.431 -18.469  0.00  0.00    -0.004 C 
ATOM     13  C   UNL     1      33.237 -21.711 -18.878  0.00  0.00    -0.002 C 
ATOM     14  C   UNL     1      35.631 -22.036 -18.881  0.00  0.00    -0.002 C 
ATOM     15  C   UNL     1      34.661 -20.199 -20.115  0.00  0.00    +0.074 C 
ATOM     16  C   UNL     1      33.388 -20.594 -19.702  0.00  0.00    +0.016 C 
ATOM     17  C   UNL     1      35.782 -20.920 -19.704  0.00  0.00    +0.016 C 
BRANCH  15  18
ATOM     18  N   UNL     1      34.810 -19.092 -20.929  0.00  0.00    -0.189 N 
ATOM     19  N   UNL     1      34.430 -19.139 -22.218  0.00  0.00    -0.172 NA
ATOM     20  C   UNL     1      35.325 -17.888 -20.550  0.00  0.00    +0.091 C 
ATOM     21  C   UNL     1      35.281 -17.091 -21.667  0.00  0.00    +0.040 C 
ATOM     22  C   UNL     1      34.722 -17.912 -22.664  0.00  0.00    +0.120 C 
ENDBRANCH  15  18
ENDBRANCH  11  12
ENDBRANCH   1  11
BRANCH   1  23
ATOM     23  C   UNL     1      33.095 -22.495 -15.699  0.00  0.00    +0.123 C 
BRANCH  23  24
ATOM     24  C   UNL     1      32.034 -23.353 -15.071  0.00  0.00    -0.001 C 
ATOM     25  C   UNL     1      30.713 -23.263 -15.508  0.00  0.00    +0.034 C 
ATOM     26  C   UNL     1      32.370 -24.242 -14.048  0.00  0.00    -0.003 C 
ATOM     27  C   UNL     1      29.728 -24.060 -14.925  0.00  0.00    +0.139 C 
ATOM     28  C   UNL     1      31.386 -25.038 -13.464  0.00  0.00    +0.003 C 
ATOM     29  C   UNL     1      30.065 -24.948 -13.903  0.00  0.00    +0.037 C 
BRANCH  27  30
ATOM     30  O   UNL     1      28.439 -23.971 -15.350  0.00  0.00    -0.464 OA
BRANCH  30  31
ATOM     31  C   UNL     1      28.166 -23.054 -16.409  0.00  0.00    +0.314 C 
BRANCH  31  33
ATOM     32  O   UNL     1      26.252 -22.366 -15.080  0.00  0.00    -0.246 OA
ATOM     33  C   UNL     1      26.959 -22.226 -16.067  0.00  0.00    +0.359 C 
BRANCH  33  34
ATOM     34  O   UNL     1      26.754 -21.281 -17.019  0.00  0.00    -0.478 OA
ATOM     35  H   UNL     1      26.052 -21.377 -17.632  0.00  0.00    +0.295 HD
ENDBRANCH  33  34
ENDBRANCH  31  33
ENDBRANCH  30  31
ENDBRANCH  27  30
ENDBRANCH  23  24
ENDBRANCH   1  23
TORSDOF 11
ENDMDL
MODEL 5
REMARK VINA RESULT:     -10.0      1.829      2.817
REMARK  Name = 18376177
REMARK  11 active torsions:
REMARK  status: ('A' for Active; 'I' for Inactive)
REMARK    1  A    between atoms: N_1  and  S_2
REMARK    2  A    between atoms: N_1  and  C_11
REMARK    3  A    between atoms: N_1  and  C_23
REMARK    4  A    between atoms: S_2  and  C_6
REMARK    5  A    between atoms: C_11  and  C_12
REMARK    6  A    between atoms: C_15  and  N_18
REMARK    7  A    between atoms: C_23  and  C_24
REMARK    8  A    between atoms: C_27  and  O_30
REMARK    9  A    between atoms: O_30  and  C_31
REMARK   10  A    between atoms: C_31  and  C_33
REMARK   11  A    between atoms: C_33  and  O_34
REMARK                            x       y       z     vdW  Elec       q    Type
REMARK                         _______ _______ _______ _____ _____    ______ ____
ROOT
ATOM      1  N   UNL     1      34.025 -22.889 -15.460  0.00  0.00    -0.147 NA
ENDROOT
BRANCH   1   2
ATOM      2  S   UNL     1      33.111 -23.751 -14.279  0.00  0.00    +0.065 S 
ATOM      3  O   UNL     1      33.113 -23.010 -13.031  0.00  0.00    -0.153 OA
ATOM      4  O   UNL     1      33.512 -25.146 -14.282  0.00  0.00    -0.153 OA
BRANCH   2   6
ATOM      5  N   UNL     1      29.884 -22.620 -16.423  0.00  0.00    -0.241 NA
ATOM      6  C   UNL     1      31.467 -23.676 -14.932  0.00  0.00    +0.141 C 
ATOM      7  C   UNL     1      30.485 -24.563 -14.505  0.00  0.00    +0.023 C 
ATOM      8  C   UNL     1      31.118 -22.731 -15.885  0.00  0.00    +0.119 C 
ATOM      9  C   UNL     1      29.203 -24.480 -15.036  0.00  0.00    +0.022 C 
ATOM     10  C   UNL     1      28.956 -23.499 -15.985  0.00  0.00    +0.099 C 
ENDBRANCH   2   6
ENDBRANCH   1   2
BRANCH   1  11
ATOM     11  C   UNL     1      34.137 -23.480 -16.818  0.00  0.00    +0.122 C 
BRANCH  11  12
ATOM     12  C   UNL     1      34.416 -22.443 -17.869  0.00  0.00    -0.004 C 
ATOM     13  C   UNL     1      33.362 -21.867 -18.578  0.00  0.00    -0.002 C 
ATOM     14  C   UNL     1      35.730 -22.056 -18.135  0.00  0.00    -0.002 C 
ATOM     15  C   UNL     1      34.935 -20.519 -19.822  0.00  0.00    +0.074 C 
ATOM     16  C   UNL     1      33.622 -20.905 -19.555  0.00  0.00    +0.016 C 
ATOM     17  C   UNL     1      35.989 -21.094 -19.112  0.00  0.00    +0.016 C 
BRANCH  15  18
ATOM     18  N   UNL     1      35.192 -19.565 -20.789  0.00  0.00    -0.189 N 
ATOM     19  N   UNL     1      34.357 -19.411 -21.832  0.00  0.00    -0.172 NA
ATOM     20  C   UNL     1      36.255 -18.711 -20.803  0.00  0.00    +0.091 C 
ATOM     21  C   UNL     1      36.107 -17.946 -21.934  0.00  0.00    +0.040 C 
ATOM     22  C   UNL     1      34.923 -18.420 -22.528  0.00  0.00    +0.120 C 
ENDBRANCH  15  18
ENDBRANCH  11  12
ENDBRANCH   1  11
BRANCH   1  23
ATOM     23  C   UNL     1      35.295 -22.253 -15.025  0.00  0.00    +0.123 C 
BRANCH  23  24
ATOM     24  C   UNL     1      36.210 -23.224 -14.334  0.00  0.00    -0.001 C 
ATOM     25  C   UNL     1      36.446 -23.109 -12.964  0.00  0.00    +0.034 C 
ATOM     26  C   UNL     1      36.825 -24.243 -15.064  0.00  0.00    -0.003 C 
ATOM     27  C   UNL     1      37.296 -24.010 -12.324  0.00  0.00    +0.139 C 
ATOM     28  C   UNL     1      37.675 -25.144 -14.423  0.00  0.00    +0.003 C 
ATOM     29  C   UNL     1      37.910 -25.028 -13.053  0.00  0.00    +0.037 C 
BRANCH  27  30
ATOM     30  O   UNL     1      37.527 -23.896 -10.988  0.00  0.00    -0.464 OA
BRANCH  30  31
ATOM     31  C   UNL     1      36.473 -23.360 -10.188  0.00  0.00    +0.314 C 
BRANCH  31  33
ATOM     32  O   UNL     1      35.310 -24.907  -8.721  0.00  0.00    -0.246 OA
ATOM     33  C   UNL     1      35.498 -24.448  -9.837  0.00  0.00    +0.359 C 
BRANCH  33  34
ATOM     34  O   UNL     1      34.838 -24.861 -10.948  0.00  0.00    -0.478 OA
ATOM     35  H   UNL     1      34.124 -25.464 -10.873  0.00  0.00    +0.295 HD
ENDBRANCH  33  34
ENDBRANCH  31  33
ENDBRANCH  30  31
ENDBRANCH  27  30
ENDBRANCH  23  24
ENDBRANCH   1  23
TORSDOF 11
ENDMDL
MODEL 6
REMARK VINA RESULT:      -9.8      3.192      7.442
REMARK  Name = 18376177
REMARK  11 active torsions:
REMARK  status: ('A' for Active; 'I' for Inactive)
REMARK    1  A    between atoms: N_1  and  S_2
REMARK    2  A    between atoms: N_1  and  C_11
REMARK    3  A    between atoms: N_1  and  C_23
REMARK    4  A    between atoms: S_2  and  C_6
REMARK    5  A    between atoms: C_11  and  C_12
REMARK    6  A    between atoms: C_15  and  N_18
REMARK    7  A    between atoms: C_23  and  C_24
REMARK    8  A    between atoms: C_27  and  O_30
REMARK    9  A    between atoms: O_30  and  C_31
REMARK   10  A    between atoms: C_31  and  C_33
REMARK   11  A    between atoms: C_33  and  O_34
REMARK                            x       y       z     vdW  Elec       q    Type
REMARK                         _______ _______ _______ _____ _____    ______ ____
ROOT
ATOM      1  N   UNL     1      34.418 -23.768 -13.965  0.00  0.00    -0.147 NA
ENDROOT
BRANCH   1   2
ATOM      2  S   UNL     1      35.771 -23.338 -12.988  0.00  0.00    +0.065 S 
ATOM      3  O   UNL     1      35.427 -23.500 -11.587  0.00  0.00    -0.153 OA
ATOM      4  O   UNL     1      36.317 -22.074 -13.447  0.00  0.00    -0.153 OA
BRANCH   2   6
ATOM      5  N   UNL     1      37.647 -26.906 -13.216  0.00  0.00    -0.241 NA
ATOM      6  C   UNL     1      36.952 -24.596 -13.388  0.00  0.00    +0.141 C 
ATOM      7  C   UNL     1      38.075 -24.307 -14.154  0.00  0.00    +0.023 C 
ATOM      8  C   UNL     1      36.786 -25.900 -12.947  0.00  0.00    +0.119 C 
ATOM      9  C   UNL     1      38.985 -25.315 -14.452  0.00  0.00    +0.022 C 
ATOM     10  C   UNL     1      38.727 -26.587 -13.964  0.00  0.00    +0.099 C 
ENDBRANCH   2   6
ENDBRANCH   1   2
BRANCH   1  11
ATOM     11  C   UNL     1      33.251 -24.397 -13.296  0.00  0.00    +0.122 C 
BRANCH  11  12
ATOM     12  C   UNL     1      31.945 -23.960 -13.899  0.00  0.00    -0.004 C 
ATOM     13  C   UNL     1      31.055 -24.911 -14.396  0.00  0.00    -0.002 C 
ATOM     14  C   UNL     1      31.625 -22.604 -13.963  0.00  0.00    -0.002 C 
ATOM     15  C   UNL     1      29.523 -23.149 -15.022  0.00  0.00    +0.074 C 
ATOM     16  C   UNL     1      29.843 -24.505 -14.958  0.00  0.00    +0.016 C 
ATOM     17  C   UNL     1      30.414 -22.199 -14.524  0.00  0.00    +0.016 C 
BRANCH  15  18
ATOM     18  N   UNL     1      28.322 -22.748 -15.577  0.00  0.00    -0.189 N 
ATOM     19  N   UNL     1      28.165 -22.718 -16.912  0.00  0.00    -0.172 NA
ATOM     20  C   UNL     1      27.214 -22.361 -14.883  0.00  0.00    +0.091 C 
ATOM     21  C   UNL     1      26.266 -22.055 -15.828  0.00  0.00    +0.040 C 
ATOM     22  C   UNL     1      26.906 -22.293 -17.059  0.00  0.00    +0.120 C 
ENDBRANCH  15  18
ENDBRANCH  11  12
ENDBRANCH   1  11
BRANCH   1  23
ATOM     23  C   UNL     1      34.688 -24.373 -15.295  0.00  0.00    +0.123 C 
BRANCH  23  24
ATOM     24  C   UNL     1      34.451 -23.404 -16.419  0.00  0.00    -0.001 C 
ATOM     25  C   UNL     1      35.495 -22.604 -16.882  0.00  0.00    +0.034 C 
ATOM     26  C   UNL     1      33.186 -23.305 -17.000  0.00  0.00    -0.003 C 
ATOM     27  C   UNL     1      35.276 -21.705 -17.925  0.00  0.00    +0.139 C 
ATOM     28  C   UNL     1      32.967 -22.406 -18.043  0.00  0.00    +0.003 C 
ATOM     29  C   UNL     1      34.012 -21.606 -18.507  0.00  0.00    +0.037 C 
BRANCH  27  30
ATOM     30  O   UNL     1      36.294 -20.922 -18.375  0.00  0.00    -0.464 OA
BRANCH  30  31
ATOM     31  C   UNL     1      36.486 -20.854 -19.788  0.00  0.00    +0.314 C 
BRANCH  31  33
ATOM     32  O   UNL     1      37.701 -18.888 -20.537  0.00  0.00    -0.246 OA
ATOM     33  C   UNL     1      36.651 -19.421 -20.211  0.00  0.00    +0.359 C 
BRANCH  33  34
ATOM     34  O   UNL     1      35.454 -18.784 -20.181  0.00  0.00    -0.478 OA
ATOM     35  H   UNL     1      35.010 -18.581 -20.982  0.00  0.00    +0.295 HD
ENDBRANCH  33  34
ENDBRANCH  31  33
ENDBRANCH  30  31
ENDBRANCH  27  30
ENDBRANCH  23  24
ENDBRANCH   1  23
TORSDOF 11
ENDMDL
MODEL 7
REMARK VINA RESULT:      -9.7      3.338      7.665
REMARK  Name = 18376177
REMARK  11 active torsions:
REMARK  status: ('A' for Active; 'I' for Inactive)
REMARK    1  A    between atoms: N_1  and  S_2
REMARK    2  A    between atoms: N_1  and  C_11
REMARK    3  A    between atoms: N_1  and  C_23
REMARK    4  A    between atoms: S_2  and  C_6
REMARK    5  A    between atoms: C_11  and  C_12
REMARK    6  A    between atoms: C_15  and  N_18
REMARK    7  A    between atoms: C_23  and  C_24
REMARK    8  A    between atoms: C_27  and  O_30
REMARK    9  A    between atoms: O_30  and  C_31
REMARK   10  A    between atoms: C_31  and  C_33
REMARK   11  A    between atoms: C_33  and  O_34
REMARK                            x       y       z     vdW  Elec       q    Type
REMARK                         _______ _______ _______ _____ _____    ______ ____
ROOT
ATOM      1  N   UNL     1      35.526 -23.943 -12.774  0.00  0.00    -0.147 NA
ENDROOT
BRANCH   1   2
ATOM      2  S   UNL     1      37.003 -23.854 -11.890  0.00  0.00    +0.065 S 
ATOM      3  O   UNL     1      36.820 -24.451 -10.580  0.00  0.00    -0.153 OA
ATOM      4  O   UNL     1      37.549 -22.513 -11.993  0.00  0.00    -0.153 OA
BRANCH   2   6
ATOM      5  N   UNL     1      38.395 -27.035 -13.950  0.00  0.00    -0.241 NA
ATOM      6  C   UNL     1      38.070 -24.927 -12.812  0.00  0.00    +0.141 C 
ATOM      7  C   UNL     1      39.371 -24.548 -13.123  0.00  0.00    +0.023 C 
ATOM      8  C   UNL     1      37.634 -26.169 -13.245  0.00  0.00    +0.119 C 
ATOM      9  C   UNL     1      40.185 -25.411 -13.849  0.00  0.00    +0.022 C 
ATOM     10  C   UNL     1      39.654 -26.632 -14.235  0.00  0.00    +0.099 C 
ENDBRANCH   2   6
ENDBRANCH   1   2
BRANCH   1  11
ATOM     11  C   UNL     1      34.292 -24.303 -12.030  0.00  0.00    +0.122 C 
BRANCH  11  12
ATOM     12  C   UNL     1      33.049 -24.070 -12.842  0.00  0.00    -0.004 C 
ATOM     13  C   UNL     1      32.724 -22.781 -13.264  0.00  0.00    -0.002 C 
ATOM     14  C   UNL     1      32.220 -25.142 -13.172  0.00  0.00    -0.002 C 
ATOM     15  C   UNL     1      30.740 -23.637 -14.346  0.00  0.00    +0.074 C 
ATOM     16  C   UNL     1      31.569 -22.565 -14.016  0.00  0.00    +0.016 C 
ATOM     17  C   UNL     1      31.066 -24.925 -13.924  0.00  0.00    +0.016 C 
BRANCH  15  18
ATOM     18  N   UNL     1      29.596 -23.421 -15.092  0.00  0.00    -0.189 N 
ATOM     19  N   UNL     1      28.902 -22.278 -14.960  0.00  0.00    -0.172 NA
ATOM     20  C   UNL     1      29.065 -24.287 -16.003  0.00  0.00    +0.091 C 
ATOM     21  C   UNL     1      27.945 -23.668 -16.500  0.00  0.00    +0.040 C 
ATOM     22  C   UNL     1      27.893 -22.435 -15.823  0.00  0.00    +0.120 C 
ENDBRANCH  15  18
ENDBRANCH  11  12
ENDBRANCH   1  11
BRANCH   1  23
ATOM     23  C   UNL     1      35.562 -24.563 -14.123  0.00  0.00    +0.123 C 
BRANCH  23  24
ATOM     24  C   UNL     1      35.806 -23.553 -15.208  0.00  0.00    -0.001 C 
ATOM     25  C   UNL     1      34.818 -23.296 -16.158  0.00  0.00    +0.034 C 
ATOM     26  C   UNL     1      37.022 -22.870 -15.265  0.00  0.00    -0.003 C 
ATOM     27  C   UNL     1      35.045 -22.358 -17.165  0.00  0.00    +0.139 C 
ATOM     28  C   UNL     1      37.249 -21.933 -16.272  0.00  0.00    +0.003 C 
ATOM     29  C   UNL     1      36.260 -21.676 -17.222  0.00  0.00    +0.037 C 
BRANCH  27  30
ATOM     30  O   UNL     1      34.082 -22.109 -18.094  0.00  0.00    -0.464 OA
BRANCH  30  31
ATOM     31  C   UNL     1      34.490 -21.455 -19.295  0.00  0.00    +0.314 C 
BRANCH  31  33
ATOM     32  O   UNL     1      32.242 -20.537 -19.368  0.00  0.00    -0.246 OA
ATOM     33  C   UNL     1      33.392 -20.551 -19.781  0.00  0.00    +0.359 C 
BRANCH  33  34
ATOM     34  O   UNL     1      33.857 -19.734 -20.759  0.00  0.00    -0.478 OA
ATOM     35  H   UNL     1      33.281 -19.440 -21.437  0.00  0.00    +0.295 HD
ENDBRANCH  33  34
ENDBRANCH  31  33
ENDBRANCH  30  31
ENDBRANCH  27  30
ENDBRANCH  23  24
ENDBRANCH   1  23
TORSDOF 11
ENDMDL
MODEL 8
REMARK VINA RESULT:      -9.7      2.484      6.566
REMARK  Name = 18376177
REMARK  11 active torsions:
REMARK  status: ('A' for Active; 'I' for Inactive)
REMARK    1  A    between atoms: N_1  and  S_2
REMARK    2  A    between atoms: N_1  and  C_11
REMARK    3  A    between atoms: N_1  and  C_23
REMARK    4  A    between atoms: S_2  and  C_6
REMARK    5  A    between atoms: C_11  and  C_12
REMARK    6  A    between atoms: C_15  and  N_18
REMARK    7  A    between atoms: C_23  and  C_24
REMARK    8  A    between atoms: C_27  and  O_30
REMARK    9  A    between atoms: O_30  and  C_31
REMARK   10  A    between atoms: C_31  and  C_33
REMARK   11  A    between atoms: C_33  and  O_34
REMARK                            x       y       z     vdW  Elec       q    Type
REMARK                         _______ _______ _______ _____ _____    ______ ____
ROOT
ATOM      1  N   UNL     1      36.037 -24.091 -15.335  0.00  0.00    -0.147 NA
ENDROOT
BRANCH   1   2
ATOM      2  S   UNL     1      37.421 -24.689 -14.499  0.00  0.00    +0.065 S 
ATOM      3  O   UNL     1      38.572 -23.864 -14.816  0.00  0.00    -0.153 OA
ATOM      4  O   UNL     1      37.505 -26.128 -14.671  0.00  0.00    -0.153 OA
BRANCH   2   6
ATOM      5  N   UNL     1      36.134 -25.225 -10.711  0.00  0.00    -0.241 NA
ATOM      6  C   UNL     1      37.008 -24.387 -12.803  0.00  0.00    +0.141 C 
ATOM      7  C   UNL     1      37.215 -23.140 -12.227  0.00  0.00    +0.023 C 
ATOM      8  C   UNL     1      36.470 -25.388 -12.009  0.00  0.00    +0.119 C 
ATOM      9  C   UNL     1      36.882 -22.932 -10.893  0.00  0.00    +0.022 C 
ATOM     10  C   UNL     1      36.349 -23.998 -10.184  0.00  0.00    +0.099 C 
ENDBRANCH   2   6
ENDBRANCH   1   2
BRANCH   1  11
ATOM     11  C   UNL     1      35.718 -22.647 -15.204  0.00  0.00    +0.122 C 
BRANCH  11  12
ATOM     12  C   UNL     1      35.872 -21.909 -16.504  0.00  0.00    -0.004 C 
ATOM     13  C   UNL     1      36.974 -21.078 -16.708  0.00  0.00    -0.002 C 
ATOM     14  C   UNL     1      34.914 -22.055 -17.508  0.00  0.00    -0.002 C 
ATOM     15  C   UNL     1      36.158 -20.537 -18.917  0.00  0.00    +0.074 C 
ATOM     16  C   UNL     1      37.117 -20.392 -17.914  0.00  0.00    +0.016 C 
ATOM     17  C   UNL     1      35.057 -21.369 -18.714  0.00  0.00    +0.016 C 
BRANCH  15  18
ATOM     18  N   UNL     1      36.301 -19.859 -20.113  0.00  0.00    -0.189 N 
ATOM     19  N   UNL     1      37.431 -19.182 -20.381  0.00  0.00    -0.172 NA
ATOM     20  C   UNL     1      35.373 -19.798 -21.111  0.00  0.00    +0.091 C 
ATOM     21  C   UNL     1      35.934 -19.028 -22.099  0.00  0.00    +0.040 C 
ATOM     22  C   UNL     1      37.200 -18.676 -21.596  0.00  0.00    +0.120 C 
ENDBRANCH  15  18
ENDBRANCH  11  12
ENDBRANCH   1  11
BRANCH   1  23
ATOM     23  C   UNL     1      34.812 -24.932 -15.339  0.00  0.00    +0.123 C 
BRANCH  23  24
ATOM     24  C   UNL     1      33.616 -24.197 -14.804  0.00  0.00    -0.001 C 
ATOM     25  C   UNL     1      32.557 -23.875 -15.653  0.00  0.00    +0.034 C 
ATOM     26  C   UNL     1      33.563 -23.836 -13.457  0.00  0.00    -0.003 C 
ATOM     27  C   UNL     1      31.447 -23.193 -15.157  0.00  0.00    +0.139 C 
ATOM     28  C   UNL     1      32.453 -23.154 -12.961  0.00  0.00    +0.003 C 
ATOM     29  C   UNL     1      31.394 -22.833 -13.810  0.00  0.00    +0.037 C 
BRANCH  27  30
ATOM     30  O   UNL     1      30.415 -22.878 -15.986  0.00  0.00    -0.464 OA
BRANCH  30  31
ATOM     31  C   UNL     1      29.111 -22.820 -15.408  0.00  0.00    +0.314 C 
BRANCH  31  33
ATOM     32  O   UNL     1      27.789 -23.939 -17.112  0.00  0.00    -0.246 OA
ATOM     33  C   UNL     1      28.071 -22.927 -16.488  0.00  0.00    +0.359 C 
BRANCH  33  34
ATOM     34  O   UNL     1      27.473 -21.725 -16.683  0.00  0.00    -0.478 OA
ATOM     35  H   UNL     1      27.529 -21.303 -17.518  0.00  0.00    +0.295 HD
ENDBRANCH  33  34
ENDBRANCH  31  33
ENDBRANCH  30  31
ENDBRANCH  27  30
ENDBRANCH  23  24
ENDBRANCH   1  23
TORSDOF 11
ENDMDL
MODEL 9
REMARK VINA RESULT:      -9.5      1.481      2.281
REMARK  Name = 18376177
REMARK  11 active torsions:
REMARK  status: ('A' for Active; 'I' for Inactive)
REMARK    1  A    between atoms: N_1  and  S_2
REMARK    2  A    between atoms: N_1  and  C_11
REMARK    3  A    between atoms: N_1  and  C_23
REMARK    4  A    between atoms: S_2  and  C_6
REMARK    5  A    between atoms: C_11  and  C_12
REMARK    6  A    between atoms: C_15  and  N_18
REMARK    7  A    between atoms: C_23  and  C_24
REMARK    8  A    between atoms: C_27  and  O_30
REMARK    9  A    between atoms: O_30  and  C_31
REMARK   10  A    between atoms: C_31  and  C_33
REMARK   11  A    between atoms: C_33  and  O_34
REMARK                            x       y       z     vdW  Elec       q    Type
REMARK                         _______ _______ _______ _____ _____    ______ ____
ROOT
ATOM      1  N   UNL     1      33.577 -22.790 -15.580  0.00  0.00    -0.147 NA
ENDROOT
BRANCH   1   2
ATOM      2  S   UNL     1      32.676 -23.774 -14.488  0.00  0.00    +0.065 S 
ATOM      3  O   UNL     1      32.656 -23.149 -13.178  0.00  0.00    -0.153 OA
ATOM      4  O   UNL     1      33.105 -25.154 -14.615  0.00  0.00    -0.153 OA
BRANCH   2   6
ATOM      5  N   UNL     1      29.442 -22.531 -16.560  0.00  0.00    -0.241 NA
ATOM      6  C   UNL     1      31.033 -23.673 -15.143  0.00  0.00    +0.141 C 
ATOM      7  C   UNL     1      30.063 -24.603 -14.789  0.00  0.00    +0.023 C 
ATOM      8  C   UNL     1      30.675 -22.665 -16.024  0.00  0.00    +0.119 C 
ATOM      9  C   UNL     1      28.782 -24.499 -15.319  0.00  0.00    +0.022 C 
ATOM     10  C   UNL     1      28.524 -23.454 -16.193  0.00  0.00    +0.099 C 
ENDBRANCH   2   6
ENDBRANCH   1   2
BRANCH   1  11
ATOM     11  C   UNL     1      33.965 -23.379 -16.887  0.00  0.00    +0.122 C 
BRANCH  11  12
ATOM     12  C   UNL     1      34.196 -22.331 -17.939  0.00  0.00    -0.004 C 
ATOM     13  C   UNL     1      35.497 -21.988 -18.306  0.00  0.00    -0.002 C 
ATOM     14  C   UNL     1      33.110 -21.701 -18.547  0.00  0.00    -0.002 C 
ATOM     15  C   UNL     1      34.626 -20.383 -19.889  0.00  0.00    +0.074 C 
ATOM     16  C   UNL     1      35.712 -21.013 -19.281  0.00  0.00    +0.016 C 
ATOM     17  C   UNL     1      33.325 -20.728 -19.522  0.00  0.00    +0.016 C 
BRANCH  15  18
ATOM     18  N   UNL     1      34.840 -19.418 -20.856  0.00  0.00    -0.189 N 
ATOM     19  N   UNL     1      35.518 -18.296 -20.560  0.00  0.00    -0.172 NA
ATOM     20  C   UNL     1      34.419 -19.483 -22.152  0.00  0.00    +0.091 C 
ATOM     21  C   UNL     1      34.851 -18.322 -22.745  0.00  0.00    +0.040 C 
ATOM     22  C   UNL     1      35.520 -17.630 -21.720  0.00  0.00    +0.120 C 
ENDBRANCH  15  18
ENDBRANCH  11  12
ENDBRANCH   1  11
BRANCH   1  23
ATOM     23  C   UNL     1      34.652 -21.934 -15.016  0.00  0.00    +0.123 C 
BRANCH  23  24
ATOM     24  C   UNL     1      35.968 -22.655 -14.933  0.00  0.00    -0.001 C 
ATOM     25  C   UNL     1      36.094 -23.788 -14.129  0.00  0.00    +0.034 C 
ATOM     26  C   UNL     1      37.065 -22.191 -15.660  0.00  0.00    -0.003 C 
ATOM     27  C   UNL     1      37.315 -24.456 -14.052  0.00  0.00    +0.139 C 
ATOM     28  C   UNL     1      38.286 -22.859 -15.583  0.00  0.00    +0.003 C 
ATOM     29  C   UNL     1      38.412 -23.993 -14.779  0.00  0.00    +0.037 C 
BRANCH  27  30
ATOM     30  O   UNL     1      37.439 -25.560 -13.266  0.00  0.00    -0.464 OA
BRANCH  30  31
ATOM     31  C   UNL     1      37.763 -26.789 -13.915  0.00  0.00    +0.314 C 
BRANCH  31  33
ATOM     32  O   UNL     1      36.880 -27.564 -16.042  0.00  0.00    -0.246 OA
ATOM     33  C   UNL     1      36.693 -27.134 -14.913  0.00  0.00    +0.359 C 
BRANCH  33  34
ATOM     34  O   UNL     1      35.466 -26.900 -14.384  0.00  0.00    -0.478 OA
ATOM     35  H   UNL     1      34.741 -26.712 -14.947  0.00  0.00    +0.295 HD
ENDBRANCH  33  34
ENDBRANCH  31  33
ENDBRANCH  30  31
ENDBRANCH  27  30
ENDBRANCH  23  24
ENDBRANCH   1  23
TORSDOF 11
ENDMDL
