MODEL 1
REMARK VINA RESULT:     -12.3      0.000      0.000
REMARK  Name = 71183216
REMARK  5 active torsions:
REMARK  status: ('A' for Active; 'I' for Inactive)
REMARK    1  A    between atoms: N_3  and  C_24
REMARK    2  A    between atoms: C_10  and  C_13
REMARK    3  A    between atoms: C_18  and  O_19
REMARK    4  A    between atoms: O_19  and  C_23
REMARK    5  A    between atoms: C_24  and  C_27
REMARK                            x       y       z     vdW  Elec       q    Type
REMARK                         _______ _______ _______ _____ _____    ______ ____
ROOT
ATOM      1  O   UNL     1      34.839 -16.258 -25.232  0.00  0.00    -0.473 OA
ATOM      2  O   UNL     1      35.704 -14.726 -21.714  0.00  0.00    -0.270 OA
ATOM      3  N   UNL     1      34.083 -14.273 -23.332  0.00  0.00    -0.259 N 
ATOM      4  C   UNL     1      33.060 -14.813 -24.223  0.00  0.00    +0.142 C 
ATOM      5  C   UNL     1      34.807 -16.562 -22.833  0.00  0.00    +0.087 C 
ATOM      6  C   UNL     1      33.683 -15.443 -25.464  0.00  0.00    +0.227 C 
ATOM      7  C   UNL     1      34.908 -15.105 -22.571  0.00  0.00    +0.253 C 
ATOM      8  C   UNL     1      34.741 -17.069 -24.137  0.00  0.00    +0.143 C 
ATOM      9  C   UNL     1      34.814 -17.440 -21.744  0.00  0.00    +0.008 C 
ATOM     10  C   UNL     1      34.746 -18.815 -21.963  0.00  0.00    +0.000 C 
ATOM     11  C   UNL     1      34.696 -18.447 -24.352  0.00  0.00    +0.037 C 
ATOM     12  C   UNL     1      34.686 -19.318 -23.264  0.00  0.00    +0.003 C 
ENDROOT
BRANCH  10  13
ATOM     13  C   UNL     1      34.743 -19.726 -20.838  0.00  0.00    +0.000 C 
ATOM     14  C   UNL     1      35.949 -20.145 -20.276  0.00  0.00    +0.003 C 
ATOM     15  C   UNL     1      33.534 -20.187 -20.317  0.00  0.00    +0.003 C 
ATOM     16  C   UNL     1      35.946 -21.024 -19.193  0.00  0.00    +0.037 C 
ATOM     17  C   UNL     1      33.530 -21.066 -19.234  0.00  0.00    +0.037 C 
ATOM     18  C   UNL     1      34.736 -21.485 -18.672  0.00  0.00    +0.147 C 
BRANCH  18  19
ATOM     19  O   UNL     1      34.733 -22.344 -17.616  0.00  0.00    -0.404 OA
BRANCH  19  23
ATOM     20  F   UNL     1      32.465 -22.515 -17.380  0.00  0.00    -0.133 F 
ATOM     21  F   UNL     1      33.764 -23.905 -16.305  0.00  0.00    -0.133 F 
ATOM     22  F   UNL     1      33.548 -24.103 -18.471  0.00  0.00    -0.133 F 
ATOM     23  C   UNL     1      33.617 -23.214 -17.458  0.00  0.00    +0.575 C 
ENDBRANCH  19  23
ENDBRANCH  18  19
ENDBRANCH  10  13
BRANCH   3  24
ATOM     24  C   UNL     1      34.191 -12.826 -23.234  0.00  0.00    +0.194 C 
BRANCH  24  27
ATOM     25  N   UNL     1      32.730 -13.077 -21.316  0.00  0.00    -0.217 NA
ATOM     26  N   UNL     1      32.838 -10.965 -22.472  0.00  0.00    -0.195 NA
ATOM     27  C   UNL     1      33.187 -12.251 -22.277  0.00  0.00    +0.028 C 
ATOM     28  C   UNL     1      31.829 -12.528 -20.474  0.00  0.00    +0.164 C 
ATOM     29  C   UNL     1      31.935 -10.481 -21.595  0.00  0.00    +0.107 C 
ATOM     30  C   UNL     1      31.390 -11.223 -20.566  0.00  0.00    +0.022 C 
ENDBRANCH  24  27
ENDBRANCH   3  24
TORSDOF 5
ENDMDL
MODEL 2
REMARK VINA RESULT:     -11.2      1.310      1.754
REMARK  Name = 71183216
REMARK  5 active torsions:
REMARK  status: ('A' for Active; 'I' for Inactive)
REMARK    1  A    between atoms: N_3  and  C_24
REMARK    2  A    between atoms: C_10  and  C_13
REMARK    3  A    between atoms: C_18  and  O_19
REMARK    4  A    between atoms: O_19  and  C_23
REMARK    5  A    between atoms: C_24  and  C_27
REMARK                            x       y       z     vdW  Elec       q    Type
REMARK                         _______ _______ _______ _____ _____    ______ ____
ROOT
ATOM      1  O   UNL     1      34.702 -15.903 -25.276  0.00  0.00    -0.473 OA
ATOM      2  O   UNL     1      35.759 -14.439 -21.782  0.00  0.00    -0.270 OA
ATOM      3  N   UNL     1      34.017 -13.996 -23.271  0.00  0.00    -0.259 N 
ATOM      4  C   UNL     1      32.953 -14.545 -24.106  0.00  0.00    +0.142 C 
ATOM      5  C   UNL     1      34.846 -16.272 -22.890  0.00  0.00    +0.087 C 
ATOM      6  C   UNL     1      33.507 -15.121 -25.405  0.00  0.00    +0.227 C 
ATOM      7  C   UNL     1      34.919 -14.821 -22.593  0.00  0.00    +0.253 C 
ATOM      8  C   UNL     1      34.705 -16.746 -24.201  0.00  0.00    +0.143 C 
ATOM      9  C   UNL     1      34.956 -17.178 -21.830  0.00  0.00    +0.008 C 
ATOM     10  C   UNL     1      34.915 -18.549 -22.084  0.00  0.00    +0.000 C 
ATOM     11  C   UNL     1      34.688 -18.118 -24.453  0.00  0.00    +0.037 C 
ATOM     12  C   UNL     1      34.781 -19.019 -23.392  0.00  0.00    +0.003 C 
ENDROOT
BRANCH  10  13
ATOM     13  C   UNL     1      35.019 -19.490 -20.989  0.00  0.00    +0.000 C 
ATOM     14  C   UNL     1      33.870 -20.089 -20.472  0.00  0.00    +0.003 C 
ATOM     15  C   UNL     1      36.268 -19.794 -20.448  0.00  0.00    +0.003 C 
ATOM     16  C   UNL     1      33.970 -20.994 -19.416  0.00  0.00    +0.037 C 
ATOM     17  C   UNL     1      36.368 -20.699 -19.391  0.00  0.00    +0.037 C 
ATOM     18  C   UNL     1      35.219 -21.298 -18.874  0.00  0.00    +0.147 C 
BRANCH  18  19
ATOM     19  O   UNL     1      35.317 -22.180 -17.842  0.00  0.00    -0.404 OA
BRANCH  19  23
ATOM     20  F   UNL     1      37.407 -22.678 -17.058  0.00  0.00    -0.133 F 
ATOM     21  F   UNL     1      35.790 -22.296 -15.638  0.00  0.00    -0.133 F 
ATOM     22  F   UNL     1      36.622 -20.630 -16.782  0.00  0.00    -0.133 F 
ATOM     23  C   UNL     1      36.298 -21.939 -16.840  0.00  0.00    +0.575 C 
ENDBRANCH  19  23
ENDBRANCH  18  19
ENDBRANCH  10  13
BRANCH   3  24
ATOM     24  C   UNL     1      34.086 -12.550 -23.139  0.00  0.00    +0.194 C 
BRANCH  24  27
ATOM     25  N   UNL     1      32.763 -12.787 -21.122  0.00  0.00    -0.217 NA
ATOM     26  N   UNL     1      32.496 -10.833 -22.508  0.00  0.00    -0.195 NA
ATOM     27  C   UNL     1      33.046 -12.022 -22.194  0.00  0.00    +0.028 C 
ATOM     28  C   UNL     1      31.824 -12.282 -20.294  0.00  0.00    +0.164 C 
ATOM     29  C   UNL     1      31.565 -10.389 -21.638  0.00  0.00    +0.107 C 
ATOM     30  C   UNL     1      31.185 -11.077 -20.503  0.00  0.00    +0.022 C 
ENDBRANCH  24  27
ENDBRANCH   3  24
TORSDOF 5
ENDMDL
MODEL 3
REMARK VINA RESULT:     -11.1      6.022     10.069
REMARK  Name = 71183216
REMARK  5 active torsions:
REMARK  status: ('A' for Active; 'I' for Inactive)
REMARK    1  A    between atoms: N_3  and  C_24
REMARK    2  A    between atoms: C_10  and  C_13
REMARK    3  A    between atoms: C_18  and  O_19
REMARK    4  A    between atoms: O_19  and  C_23
REMARK    5  A    between atoms: C_24  and  C_27
REMARK                            x       y       z     vdW  Elec       q    Type
REMARK                         _______ _______ _______ _____ _____    ______ ____
ROOT
ATOM      1  O   UNL     1      36.328 -23.639 -15.099  0.00  0.00    -0.473 OA
ATOM      2  O   UNL     1      32.898 -24.192 -16.944  0.00  0.00    -0.270 OA
ATOM      3  N   UNL     1      33.497 -23.607 -14.765  0.00  0.00    -0.259 N 
ATOM      4  C   UNL     1      34.312 -22.750 -13.909  0.00  0.00    +0.142 C 
ATOM      5  C   UNL     1      34.741 -22.786 -16.712  0.00  0.00    +0.087 C 
ATOM      6  C   UNL     1      35.755 -23.238 -13.847  0.00  0.00    +0.227 C 
ATOM      7  C   UNL     1      33.626 -23.592 -16.156  0.00  0.00    +0.253 C 
ATOM      8  C   UNL     1      36.021 -22.815 -16.145  0.00  0.00    +0.143 C 
ATOM      9  C   UNL     1      34.502 -22.009 -17.851  0.00  0.00    +0.008 C 
ATOM     10  C   UNL     1      35.538 -21.261 -18.409  0.00  0.00    +0.000 C 
ATOM     11  C   UNL     1      37.060 -22.083 -16.719  0.00  0.00    +0.037 C 
ATOM     12  C   UNL     1      36.814 -21.297 -17.845  0.00  0.00    +0.003 C 
ENDROOT
BRANCH  10  13
ATOM     13  C   UNL     1      35.292 -20.449 -19.582  0.00  0.00    +0.000 C 
ATOM     14  C   UNL     1      36.349 -19.789 -20.208  0.00  0.00    +0.003 C 
ATOM     15  C   UNL     1      33.996 -20.325 -20.083  0.00  0.00    +0.003 C 
ATOM     16  C   UNL     1      36.110 -19.005 -21.337  0.00  0.00    +0.037 C 
ATOM     17  C   UNL     1      33.758 -19.541 -21.212  0.00  0.00    +0.037 C 
ATOM     18  C   UNL     1      34.815 -18.881 -21.839  0.00  0.00    +0.147 C 
BRANCH  18  19
ATOM     19  O   UNL     1      34.582 -18.115 -22.939  0.00  0.00    -0.404 OA
BRANCH  19  23
ATOM     20  F   UNL     1      34.830 -19.953 -24.277  0.00  0.00    -0.133 F 
ATOM     21  F   UNL     1      34.556 -17.988 -25.193  0.00  0.00    -0.133 F 
ATOM     22  F   UNL     1      32.863 -18.948 -24.198  0.00  0.00    -0.133 F 
ATOM     23  C   UNL     1      34.200 -18.767 -24.146  0.00  0.00    +0.575 C 
ENDBRANCH  19  23
ENDBRANCH  18  19
ENDBRANCH  10  13
BRANCH   3  24
ATOM     24  C   UNL     1      32.512 -24.459 -14.118  0.00  0.00    +0.194 C 
BRANCH  24  27
ATOM     25  N   UNL     1      30.288 -25.058 -14.872  0.00  0.00    -0.217 NA
ATOM     26  N   UNL     1      30.803 -22.758 -14.365  0.00  0.00    -0.195 NA
ATOM     27  C   UNL     1      31.108 -24.066 -14.475  0.00  0.00    +0.028 C 
ATOM     28  C   UNL     1      29.034 -24.668 -15.185  0.00  0.00    +0.164 C 
ATOM     29  C   UNL     1      29.534 -22.440 -14.694  0.00  0.00    +0.107 C 
ATOM     30  C   UNL     1      28.596 -23.362 -15.115  0.00  0.00    +0.022 C 
ENDBRANCH  24  27
ENDBRANCH   3  24
TORSDOF 5
ENDMDL
MODEL 4
REMARK VINA RESULT:     -11.0      5.613      9.966
REMARK  Name = 71183216
REMARK  5 active torsions:
REMARK  status: ('A' for Active; 'I' for Inactive)
REMARK    1  A    between atoms: N_3  and  C_24
REMARK    2  A    between atoms: C_10  and  C_13
REMARK    3  A    between atoms: C_18  and  O_19
REMARK    4  A    between atoms: O_19  and  C_23
REMARK    5  A    between atoms: C_24  and  C_27
REMARK                            x       y       z     vdW  Elec       q    Type
REMARK                         _______ _______ _______ _____ _____    ______ ____
ROOT
ATOM      1  O   UNL     1      36.052 -23.589 -15.349  0.00  0.00    -0.473 OA
ATOM      2  O   UNL     1      32.795 -24.059 -17.504  0.00  0.00    -0.270 OA
ATOM      3  N   UNL     1      33.203 -23.540 -15.265  0.00  0.00    -0.259 N 
ATOM      4  C   UNL     1      33.945 -22.713 -14.317  0.00  0.00    +0.142 C 
ATOM      5  C   UNL     1      34.619 -22.677 -17.072  0.00  0.00    +0.087 C 
ATOM      6  C   UNL     1      35.374 -23.217 -14.142  0.00  0.00    +0.227 C 
ATOM      7  C   UNL     1      33.455 -23.488 -16.639  0.00  0.00    +0.253 C 
ATOM      8  C   UNL     1      35.844 -22.734 -16.395  0.00  0.00    +0.143 C 
ATOM      9  C   UNL     1      34.487 -21.868 -18.205  0.00  0.00    +0.008 C 
ATOM     10  C   UNL     1      35.573 -21.115 -18.649  0.00  0.00    +0.000 C 
ATOM     11  C   UNL     1      36.935 -21.996 -16.855  0.00  0.00    +0.037 C 
ATOM     12  C   UNL     1      36.795 -21.178 -17.975  0.00  0.00    +0.003 C 
ENDROOT
BRANCH  10  13
ATOM     13  C   UNL     1      35.437 -20.269 -19.815  0.00  0.00    +0.000 C 
ATOM     14  C   UNL     1      34.219 -20.203 -20.491  0.00  0.00    +0.003 C 
ATOM     15  C   UNL     1      36.526 -19.522 -20.265  0.00  0.00    +0.003 C 
ATOM     16  C   UNL     1      34.088 -19.389 -21.616  0.00  0.00    +0.037 C 
ATOM     17  C   UNL     1      36.395 -18.707 -21.390  0.00  0.00    +0.037 C 
ATOM     18  C   UNL     1      35.177 -18.642 -22.066  0.00  0.00    +0.147 C 
BRANCH  18  19
ATOM     19  O   UNL     1      35.050 -17.848 -23.165  0.00  0.00    -0.404 OA
BRANCH  19  23
ATOM     20  F   UNL     1      33.835 -15.992 -23.721  0.00  0.00    -0.133 F 
ATOM     21  F   UNL     1      35.980 -15.800 -23.351  0.00  0.00    -0.133 F 
ATOM     22  F   UNL     1      34.635 -16.169 -21.668  0.00  0.00    -0.133 F 
ATOM     23  C   UNL     1      34.858 -16.451 -22.969  0.00  0.00    +0.575 C 
ENDBRANCH  19  23
ENDBRANCH  18  19
ENDBRANCH  10  13
BRANCH   3  24
ATOM     24  C   UNL     1      32.159 -24.399 -14.731  0.00  0.00    +0.194 C 
BRANCH  24  27
ATOM     25  N   UNL     1      29.928 -24.579 -15.660  0.00  0.00    -0.217 NA
ATOM     26  N   UNL     1      30.555 -22.609 -14.422  0.00  0.00    -0.195 NA
ATOM     27  C   UNL     1      30.790 -23.825 -14.952  0.00  0.00    +0.028 C 
ATOM     28  C   UNL     1      28.707 -24.032 -15.840  0.00  0.00    +0.164 C 
ATOM     29  C   UNL     1      29.316 -22.123 -14.640  0.00  0.00    +0.107 C 
ATOM     30  C   UNL     1      28.341 -22.796 -15.348  0.00  0.00    +0.022 C 
ENDBRANCH  24  27
ENDBRANCH   3  24
TORSDOF 5
ENDMDL
MODEL 5
REMARK VINA RESULT:     -10.8      3.962      6.822
REMARK  Name = 71183216
REMARK  5 active torsions:
REMARK  status: ('A' for Active; 'I' for Inactive)
REMARK    1  A    between atoms: N_3  and  C_24
REMARK    2  A    between atoms: C_10  and  C_13
REMARK    3  A    between atoms: C_18  and  O_19
REMARK    4  A    between atoms: O_19  and  C_23
REMARK    5  A    between atoms: C_24  and  C_27
REMARK                            x       y       z     vdW  Elec       q    Type
REMARK                         _______ _______ _______ _____ _____    ______ ____
ROOT
ATOM      1  O   UNL     1      31.188  -9.562 -20.444  0.00  0.00    -0.473 OA
ATOM      2  O   UNL     1      32.708  -9.776 -24.065  0.00  0.00    -0.270 OA
ATOM      3  N   UNL     1      32.998  -8.321 -22.263  0.00  0.00    -0.259 N 
ATOM      4  C   UNL     1      33.242  -8.183 -20.830  0.00  0.00    +0.142 C 
ATOM      5  C   UNL     1      32.684 -10.732 -21.942  0.00  0.00    +0.087 C 
ATOM      6  C   UNL     1      31.973  -8.439 -20.024  0.00  0.00    +0.227 C 
ATOM      7  C   UNL     1      32.798  -9.570 -22.857  0.00  0.00    +0.253 C 
ATOM      8  C   UNL     1      31.921 -10.668 -20.768  0.00  0.00    +0.143 C 
ATOM      9  C   UNL     1      33.329 -11.923 -22.288  0.00  0.00    +0.008 C 
ATOM     10  C   UNL     1      33.218 -13.039 -21.458  0.00  0.00    +0.000 C 
ATOM     11  C   UNL     1      31.794 -11.792 -19.952  0.00  0.00    +0.037 C 
ATOM     12  C   UNL     1      32.452 -12.974 -20.292  0.00  0.00    +0.003 C 
ENDROOT
BRANCH  10  13
ATOM     13  C   UNL     1      33.892 -14.270 -21.809  0.00  0.00    +0.000 C 
ATOM     14  C   UNL     1      33.922 -14.696 -23.137  0.00  0.00    +0.003 C 
ATOM     15  C   UNL     1      34.511 -15.032 -20.818  0.00  0.00    +0.003 C 
ATOM     16  C   UNL     1      34.571 -15.884 -23.474  0.00  0.00    +0.037 C 
ATOM     17  C   UNL     1      35.160 -16.220 -21.155  0.00  0.00    +0.037 C 
ATOM     18  C   UNL     1      35.190 -16.646 -22.483  0.00  0.00    +0.147 C 
BRANCH  18  19
ATOM     19  O   UNL     1      35.822 -17.805 -22.812  0.00  0.00    -0.404 OA
BRANCH  19  23
ATOM     20  F   UNL     1      33.811 -18.821 -22.417  0.00  0.00    -0.133 F 
ATOM     21  F   UNL     1      35.619 -19.624 -21.490  0.00  0.00    -0.133 F 
ATOM     22  F   UNL     1      35.319 -19.877 -23.640  0.00  0.00    -0.133 F 
ATOM     23  C   UNL     1      35.131 -19.033 -22.604  0.00  0.00    +0.575 C 
ENDBRANCH  19  23
ENDBRANCH  18  19
ENDBRANCH  10  13
BRANCH   3  24
ATOM     24  C   UNL     1      33.006  -7.108 -23.064  0.00  0.00    +0.194 C 
BRANCH  24  27
ATOM     25  N   UNL     1      32.750  -4.899 -22.101  0.00  0.00    -0.217 NA
ATOM     26  N   UNL     1      30.821  -6.320 -22.369  0.00  0.00    -0.195 NA
ATOM     27  C   UNL     1      32.135  -6.038 -22.472  0.00  0.00    +0.028 C 
ATOM     28  C   UNL     1      31.937  -3.959 -21.572  0.00  0.00    +0.164 C 
ATOM     29  C   UNL     1      30.069  -5.337 -21.833  0.00  0.00    +0.107 C 
ATOM     30  C   UNL     1      30.577  -4.124 -21.413  0.00  0.00    +0.022 C 
ENDBRANCH  24  27
ENDBRANCH   3  24
TORSDOF 5
ENDMDL
MODEL 6
REMARK VINA RESULT:     -10.8      6.304     10.968
REMARK  Name = 71183216
REMARK  5 active torsions:
REMARK  status: ('A' for Active; 'I' for Inactive)
REMARK    1  A    between atoms: N_3  and  C_24
REMARK    2  A    between atoms: C_10  and  C_13
REMARK    3  A    between atoms: C_18  and  O_19
REMARK    4  A    between atoms: O_19  and  C_23
REMARK    5  A    between atoms: C_24  and  C_27
REMARK                            x       y       z     vdW  Elec       q    Type
REMARK                         _______ _______ _______ _____ _____    ______ ____
ROOT
ATOM      1  O   UNL     1      33.726 -24.048 -14.611  0.00  0.00    -0.473 OA
ATOM      2  O   UNL     1      37.043 -21.978 -15.031  0.00  0.00    -0.270 OA
ATOM      3  N   UNL     1      36.567 -24.242 -14.729  0.00  0.00    -0.259 N 
ATOM      4  C   UNL     1      35.769 -25.391 -15.149  0.00  0.00    +0.142 C 
ATOM      5  C   UNL     1      35.151 -22.797 -16.113  0.00  0.00    +0.087 C 
ATOM      6  C   UNL     1      34.362 -25.332 -14.566  0.00  0.00    +0.227 C 
ATOM      7  C   UNL     1      36.341 -22.963 -15.244  0.00  0.00    +0.253 C 
ATOM      8  C   UNL     1      33.916 -23.370 -15.783  0.00  0.00    +0.143 C 
ATOM      9  C   UNL     1      35.269 -22.018 -17.269  0.00  0.00    +0.008 C 
ATOM     10  C   UNL     1      34.159 -21.824 -18.091  0.00  0.00    +0.000 C 
ATOM     11  C   UNL     1      32.803 -23.155 -16.595  0.00  0.00    +0.037 C 
ATOM     12  C   UNL     1      32.928 -22.392 -17.755  0.00  0.00    +0.003 C 
ENDROOT
BRANCH  10  13
ATOM     13  C   UNL     1      34.281 -21.027 -19.292  0.00  0.00    +0.000 C 
ATOM     14  C   UNL     1      35.542 -20.748 -19.820  0.00  0.00    +0.003 C 
ATOM     15  C   UNL     1      33.137 -20.535 -19.921  0.00  0.00    +0.003 C 
ATOM     16  C   UNL     1      35.658 -19.978 -20.977  0.00  0.00    +0.037 C 
ATOM     17  C   UNL     1      33.254 -19.765 -21.078  0.00  0.00    +0.037 C 
ATOM     18  C   UNL     1      34.515 -19.486 -21.606  0.00  0.00    +0.147 C 
BRANCH  18  19
ATOM     19  O   UNL     1      34.629 -18.734 -22.734  0.00  0.00    -0.404 OA
BRANCH  19  23
ATOM     20  F   UNL     1      35.075 -16.730 -23.743  0.00  0.00    -0.133 F 
ATOM     21  F   UNL     1      36.632 -17.707 -22.562  0.00  0.00    -0.133 F 
ATOM     22  F   UNL     1      34.923 -16.806 -21.539  0.00  0.00    -0.133 F 
ATOM     23  C   UNL     1      35.301 -17.482 -22.645  0.00  0.00    +0.575 C 
ENDBRANCH  19  23
ENDBRANCH  18  19
ENDBRANCH  10  13
BRANCH   3  24
ATOM     24  C   UNL     1      37.638 -24.482 -13.775  0.00  0.00    +0.194 C 
BRANCH  24  27
ATOM     25  N   UNL     1      36.442 -24.985 -11.727  0.00  0.00    -0.217 NA
ATOM     26  N   UNL     1      37.711 -22.944 -11.903  0.00  0.00    -0.195 NA
ATOM     27  C   UNL     1      37.237 -24.113 -12.376  0.00  0.00    +0.028 C 
ATOM     28  C   UNL     1      36.101 -24.621 -10.473  0.00  0.00    +0.164 C 
ATOM     29  C   UNL     1      37.332 -22.643 -10.644  0.00  0.00    +0.107 C 
ATOM     30  C   UNL     1      36.520 -23.451  -9.874  0.00  0.00    +0.022 C 
ENDBRANCH  24  27
ENDBRANCH   3  24
TORSDOF 5
ENDMDL
MODEL 7
REMARK VINA RESULT:     -10.4      5.440      9.520
REMARK  Name = 71183216
REMARK  5 active torsions:
REMARK  status: ('A' for Active; 'I' for Inactive)
REMARK    1  A    between atoms: N_3  and  C_24
REMARK    2  A    between atoms: C_10  and  C_13
REMARK    3  A    between atoms: C_18  and  O_19
REMARK    4  A    between atoms: O_19  and  C_23
REMARK    5  A    between atoms: C_24  and  C_27
REMARK                            x       y       z     vdW  Elec       q    Type
REMARK                         _______ _______ _______ _____ _____    ______ ____
ROOT
ATOM      1  O   UNL     1      36.833 -22.441 -17.207  0.00  0.00    -0.473 OA
ATOM      2  O   UNL     1      33.562 -23.338 -19.199  0.00  0.00    -0.270 OA
ATOM      3  N   UNL     1      34.036 -22.927 -16.951  0.00  0.00    -0.259 N 
ATOM      4  C   UNL     1      34.686 -22.053 -15.978  0.00  0.00    +0.142 C 
ATOM      5  C   UNL     1      35.135 -21.680 -18.753  0.00  0.00    +0.087 C 
ATOM      6  C   UNL     1      36.190 -22.295 -15.933  0.00  0.00    +0.227 C 
ATOM      7  C   UNL     1      34.171 -22.723 -18.327  0.00  0.00    +0.253 C 
ATOM      8  C   UNL     1      36.397 -21.560 -18.157  0.00  0.00    +0.143 C 
ATOM      9  C   UNL     1      34.776 -20.824 -19.799  0.00  0.00    +0.008 C 
ATOM     10  C   UNL     1      35.673 -19.850 -20.237  0.00  0.00    +0.000 C 
ATOM     11  C   UNL     1      37.300 -20.600 -18.613  0.00  0.00    +0.037 C 
ATOM     12  C   UNL     1      36.932 -19.737 -19.645  0.00  0.00    +0.003 C 
ENDROOT
BRANCH  10  13
ATOM     13  C   UNL     1      35.301 -18.957 -21.313  0.00  0.00    +0.000 C 
ATOM     14  C   UNL     1      34.555 -19.434 -22.390  0.00  0.00    +0.003 C 
ATOM     15  C   UNL     1      35.690 -17.618 -21.273  0.00  0.00    +0.003 C 
ATOM     16  C   UNL     1      34.197 -18.573 -23.428  0.00  0.00    +0.037 C 
ATOM     17  C   UNL     1      35.333 -16.756 -22.310  0.00  0.00    +0.037 C 
ATOM     18  C   UNL     1      34.587 -17.234 -23.388  0.00  0.00    +0.147 C 
BRANCH  18  19
ATOM     19  O   UNL     1      34.239 -16.394 -24.401  0.00  0.00    -0.404 OA
BRANCH  19  23
ATOM     20  F   UNL     1      33.865 -14.297 -25.234  0.00  0.00    -0.133 F 
ATOM     21  F   UNL     1      35.272 -14.561 -23.582  0.00  0.00    -0.133 F 
ATOM     22  F   UNL     1      33.131 -14.788 -23.208  0.00  0.00    -0.133 F 
ATOM     23  C   UNL     1      34.109 -15.006 -24.111  0.00  0.00    +0.575 C 
ENDBRANCH  19  23
ENDBRANCH  18  19
ENDBRANCH  10  13
BRANCH   3  24
ATOM     24  C   UNL     1      33.206 -24.004 -16.435  0.00  0.00    +0.194 C 
BRANCH  24  27
ATOM     25  N   UNL     1      31.879 -23.688 -14.432  0.00  0.00    -0.217 NA
ATOM     26  N   UNL     1      31.067 -22.870 -16.548  0.00  0.00    -0.195 NA
ATOM     27  C   UNL     1      31.969 -23.486 -15.760  0.00  0.00    +0.028 C 
ATOM     28  C   UNL     1      30.755 -23.211 -13.858  0.00  0.00    +0.164 C 
ATOM     29  C   UNL     1      29.968 -22.418 -15.909  0.00  0.00    +0.107 C 
ATOM     30  C   UNL     1      29.756 -22.561 -14.553  0.00  0.00    +0.022 C 
ENDBRANCH  24  27
ENDBRANCH   3  24
TORSDOF 5
ENDMDL
MODEL 8
REMARK VINA RESULT:     -10.2      2.014      2.810
REMARK  Name = 71183216
REMARK  5 active torsions:
REMARK  status: ('A' for Active; 'I' for Inactive)
REMARK    1  A    between atoms: N_3  and  C_24
REMARK    2  A    between atoms: C_10  and  C_13
REMARK    3  A    between atoms: C_18  and  O_19
REMARK    4  A    between atoms: O_19  and  C_23
REMARK    5  A    between atoms: C_24  and  C_27
REMARK                            x       y       z     vdW  Elec       q    Type
REMARK                         _______ _______ _______ _____ _____    ______ ____
ROOT
ATOM      1  O   UNL     1      34.365 -14.010 -24.057  0.00  0.00    -0.473 OA
ATOM      2  O   UNL     1      34.788 -13.482 -20.182  0.00  0.00    -0.270 OA
ATOM      3  N   UNL     1      33.056 -13.092 -21.697  0.00  0.00    -0.259 N 
ATOM      4  C   UNL     1      32.242 -13.622 -22.788  0.00  0.00    +0.142 C 
ATOM      5  C   UNL     1      34.516 -15.053 -21.880  0.00  0.00    +0.087 C 
ATOM      6  C   UNL     1      32.997 -13.586 -24.112  0.00  0.00    +0.227 C 
ATOM      7  C   UNL     1      34.136 -13.806 -21.172  0.00  0.00    +0.253 C 
ATOM      8  C   UNL     1      34.579 -15.112 -23.278  0.00  0.00    +0.143 C 
ATOM      9  C   UNL     1      34.851 -16.178 -21.119  0.00  0.00    +0.008 C 
ATOM     10  C   UNL     1      35.237 -17.356 -21.759  0.00  0.00    +0.000 C 
ATOM     11  C   UNL     1      34.987 -16.285 -23.913  0.00  0.00    +0.037 C 
ATOM     12  C   UNL     1      35.304 -17.410 -23.153  0.00  0.00    +0.003 C 
ENDROOT
BRANCH  10  13
ATOM     13  C   UNL     1      35.575 -18.525 -20.976  0.00  0.00    +0.000 C 
ATOM     14  C   UNL     1      34.575 -19.415 -20.582  0.00  0.00    +0.003 C 
ATOM     15  C   UNL     1      36.901 -18.761 -20.612  0.00  0.00    +0.003 C 
ATOM     16  C   UNL     1      34.901 -20.541 -19.826  0.00  0.00    +0.037 C 
ATOM     17  C   UNL     1      37.227 -19.887 -19.856  0.00  0.00    +0.037 C 
ATOM     18  C   UNL     1      36.227 -20.777 -19.462  0.00  0.00    +0.147 C 
BRANCH  18  19
ATOM     19  O   UNL     1      36.544 -21.874 -18.723  0.00  0.00    -0.404 OA
BRANCH  19  23
ATOM     20  F   UNL     1      36.963 -20.474 -16.964  0.00  0.00    -0.133 F 
ATOM     21  F   UNL     1      37.584 -22.566 -16.843  0.00  0.00    -0.133 F 
ATOM     22  F   UNL     1      35.458 -22.075 -16.721  0.00  0.00    -0.133 F 
ATOM     23  C   UNL     1      36.624 -21.735 -17.309  0.00  0.00    +0.575 C 
ENDBRANCH  19  23
ENDBRANCH  18  19
ENDBRANCH  10  13
BRANCH   3  24
ATOM     24  C   UNL     1      32.679 -11.799 -21.147  0.00  0.00    +0.194 C 
BRANCH  24  27
ATOM     25  N   UNL     1      32.051  -9.700 -22.182  0.00  0.00    -0.217 NA
ATOM     26  N   UNL     1      34.135 -10.753 -22.779  0.00  0.00    -0.195 NA
ATOM     27  C   UNL     1      32.975 -10.676 -22.099  0.00  0.00    +0.028 C 
ATOM     28  C   UNL     1      32.348  -8.707 -23.047  0.00  0.00    +0.164 C 
ATOM     29  C   UNL     1      34.368  -9.728 -23.624  0.00  0.00    +0.107 C 
ATOM     30  C   UNL     1      33.502  -8.668 -23.802  0.00  0.00    +0.022 C 
ENDBRANCH  24  27
ENDBRANCH   3  24
TORSDOF 5
ENDMDL
MODEL 9
REMARK VINA RESULT:      -9.9      4.871      8.065
REMARK  Name = 71183216
REMARK  5 active torsions:
REMARK  status: ('A' for Active; 'I' for Inactive)
REMARK    1  A    between atoms: N_3  and  C_24
REMARK    2  A    between atoms: C_10  and  C_13
REMARK    3  A    between atoms: C_18  and  O_19
REMARK    4  A    between atoms: O_19  and  C_23
REMARK    5  A    between atoms: C_24  and  C_27
REMARK                            x       y       z     vdW  Elec       q    Type
REMARK                         _______ _______ _______ _____ _____    ______ ____
ROOT
ATOM      1  O   UNL     1      31.121  -8.960 -19.410  0.00  0.00    -0.473 OA
ATOM      2  O   UNL     1      31.147  -8.566 -23.323  0.00  0.00    -0.270 OA
ATOM      3  N   UNL     1      32.050  -7.334 -21.559  0.00  0.00    -0.259 N 
ATOM      4  C   UNL     1      32.819  -7.359 -20.317  0.00  0.00    +0.142 C 
ATOM      5  C   UNL     1      31.973  -9.784 -21.519  0.00  0.00    +0.087 C 
ATOM      6  C   UNL     1      31.966  -7.832 -19.146  0.00  0.00    +0.227 C 
ATOM      7  C   UNL     1      31.685  -8.509 -22.220  0.00  0.00    +0.253 C 
ATOM      8  C   UNL     1      31.715  -9.943 -20.151  0.00  0.00    +0.143 C 
ATOM      9  C   UNL     1      32.480 -10.856 -22.260  0.00  0.00    +0.008 C 
ATOM     10  C   UNL     1      32.736 -12.075 -21.631  0.00  0.00    +0.000 C 
ATOM     11  C   UNL     1      31.952 -11.169 -19.530  0.00  0.00    +0.037 C 
ATOM     12  C   UNL     1      32.473 -12.231 -20.269  0.00  0.00    +0.003 C 
ENDROOT
BRANCH  10  13
ATOM     13  C   UNL     1      33.270 -13.183 -22.393  0.00  0.00    +0.000 C 
ATOM     14  C   UNL     1      32.841 -13.401 -23.702  0.00  0.00    +0.003 C 
ATOM     15  C   UNL     1      34.213 -14.034 -21.817  0.00  0.00    +0.003 C 
ATOM     16  C   UNL     1      33.355 -14.470 -24.436  0.00  0.00    +0.037 C 
ATOM     17  C   UNL     1      34.727 -15.103 -22.551  0.00  0.00    +0.037 C 
ATOM     18  C   UNL     1      34.298 -15.322 -23.860  0.00  0.00    +0.147 C 
BRANCH  18  19
ATOM     19  O   UNL     1      34.798 -16.366 -24.575  0.00  0.00    -0.404 OA
BRANCH  19  23
ATOM     20  F   UNL     1      32.890 -17.553 -25.000  0.00  0.00    -0.133 F 
ATOM     21  F   UNL     1      34.031 -17.969 -23.183  0.00  0.00    -0.133 F 
ATOM     22  F   UNL     1      34.840 -18.588 -25.117  0.00  0.00    -0.133 F 
ATOM     23  C   UNL     1      34.137 -17.623 -24.486  0.00  0.00    +0.575 C 
ENDBRANCH  19  23
ENDBRANCH  18  19
ENDBRANCH  10  13
BRANCH   3  24
ATOM     24  C   UNL     1      31.706  -6.032 -22.108  0.00  0.00    +0.194 C 
BRANCH  24  27
ATOM     25  N   UNL     1      33.874  -5.884 -23.182  0.00  0.00    -0.217 NA
ATOM     26  N   UNL     1      31.894  -5.210 -24.380  0.00  0.00    -0.195 NA
ATOM     27  C   UNL     1      32.547  -5.686 -23.302  0.00  0.00    +0.028 C 
ATOM     28  C   UNL     1      34.599  -5.562 -24.273  0.00  0.00    +0.164 C 
ATOM     29  C   UNL     1      32.680  -4.910 -25.435  0.00  0.00    +0.107 C 
ATOM     30  C   UNL     1      34.052  -5.066 -25.439  0.00  0.00    +0.022 C 
ENDBRANCH  24  27
ENDBRANCH   3  24
TORSDOF 5
ENDMDL
