MODEL 1
REMARK VINA RESULT:     -11.1      0.000      0.000
REMARK  Name = 11154925
REMARK  9 active torsions:
REMARK  status: ('A' for Active; 'I' for Inactive)
REMARK    1  A    between atoms: C_6  and  O_11
REMARK    2  A    between atoms: C_8  and  O_24
REMARK    3  A    between atoms: O_11  and  C_12
REMARK    4  A    between atoms: C_12  and  C_13
REMARK    5  A    between atoms: C_13  and  O_15
REMARK    6  A    between atoms: O_15  and  C_17
REMARK    7  A    between atoms: C_17  and  C_18
REMARK    8  A    between atoms: C_18  and  N_20
REMARK    9  A    between atoms: O_24  and  C_29
REMARK                            x       y       z     vdW  Elec       q    Type
REMARK                         _______ _______ _______ _____ _____    ______ ____
ROOT
ATOM      1  N   UNL     1      34.197 -16.987 -24.031  0.00  0.00    -0.180 N 
ATOM      2  N   UNL     1      33.969 -17.909 -25.008  0.00  0.00    -0.151 NA
ATOM      3  N   UNL     1      34.965 -19.543 -23.530  0.00  0.00    -0.187 NA
ATOM      4  C   UNL     1      34.783 -17.285 -22.828  0.00  0.00    +0.126 C 
ATOM      5  C   UNL     1      34.860 -16.131 -22.084  0.00  0.00    +0.034 C 
ATOM      6  C   UNL     1      34.295 -15.095 -22.872  0.00  0.00    +0.153 C 
ATOM      7  C   UNL     1      33.893 -15.652 -24.069  0.00  0.00    +0.126 C 
ATOM      8  C   UNL     1      35.163 -18.639 -22.627  0.00  0.00    +0.247 C 
ATOM      9  C   UNL     1      35.410 -15.942 -20.726  0.00  0.00    +0.036 C 
ATOM     10  C   UNL     1      34.362 -19.118 -24.706  0.00  0.00    +0.220 C 
ENDROOT
BRANCH   6  11
ATOM     11  O   UNL     1      34.153 -13.799 -22.557  0.00  0.00    -0.470 OA
BRANCH  11  12
ATOM     12  C   UNL     1      32.934 -13.160 -22.951  0.00  0.00    +0.249 C 
BRANCH  12  13
ATOM     13  C   UNL     1      32.204 -12.677 -21.704  0.00  0.00    +0.212 C 
ATOM     14  C   UNL     1      32.684 -13.408 -20.459  0.00  0.00    +0.051 C 
BRANCH  13  15
ATOM     15  O   UNL     1      32.460 -11.282 -21.547  0.00  0.00    -0.450 OA
BRANCH  15  17
ATOM     16  O   UNL     1      30.368 -10.842 -20.687  0.00  0.00    -0.252 OA
ATOM     17  C   UNL     1      31.361 -10.498 -21.315  0.00  0.00    +0.296 C 
BRANCH  17  18
ATOM     18  C   UNL     1      31.567  -9.141 -21.961  0.00  0.00    +0.036 C 
ATOM     19  C   UNL     1      32.809  -9.148 -22.842  0.00  0.00    -0.013 C 
BRANCH  18  20
ATOM     20  N   UNL     1      31.722  -8.150 -20.898  0.00  0.00    +0.389 N 
ATOM     21  H   UNL     1      32.702  -8.099 -20.621  0.00  0.00    -0.088 HD
ATOM     22  H   UNL     1      31.155  -8.422 -20.094  0.00  0.00    -0.088 HD
ATOM     23  H   UNL     1      31.416  -7.238 -21.236  0.00  0.00    -0.088 HD
ENDBRANCH  18  20
ENDBRANCH  17  18
ENDBRANCH  15  17
ENDBRANCH  13  15
ENDBRANCH  12  13
ENDBRANCH  11  12
ENDBRANCH   6  11
BRANCH   8  24
ATOM     24  O   UNL     1      35.745 -18.960 -21.447  0.00  0.00    -0.433 OA
BRANCH  24  29
ATOM     25  F   UNL     1      36.785 -20.732 -19.626  0.00  0.00    -0.201 F 
ATOM     26  N   UNL     1      32.600 -22.069 -18.206  0.00  0.00    -0.316 N 
ATOM     27  C   UNL     1      34.590 -21.375 -18.942  0.00  0.00    +0.045 C 
ATOM     28  C   UNL     1      33.210 -21.213 -19.096  0.00  0.00    +0.050 C 
ATOM     29  C   UNL     1      34.914 -19.706 -20.667  0.00  0.00    +0.175 C 
ATOM     30  C   UNL     1      33.543 -22.764 -17.498  0.00  0.00    +0.026 C 
ATOM     31  C   UNL     1      35.457 -20.607 -19.743  0.00  0.00    +0.176 C 
ATOM     32  C   UNL     1      34.784 -22.356 -17.930  0.00  0.00    +0.014 C 
ATOM     33  C   UNL     1      32.654 -20.317 -20.015  0.00  0.00    +0.018 C 
ATOM     34  C   UNL     1      33.534 -19.564 -20.799  0.00  0.00    +0.041 C 
ATOM     35  C   UNL     1      33.156 -23.753 -16.474  0.00  0.00    +0.047 C 
ATOM     36  H   UNL     1      31.626 -22.166 -18.097  0.00  0.00    +0.152 HD
ENDBRANCH  24  29
ENDBRANCH   8  24
TORSDOF 9
ENDMDL
MODEL 2
REMARK VINA RESULT:     -11.1      4.037     10.836
REMARK  Name = 11154925
REMARK  9 active torsions:
REMARK  status: ('A' for Active; 'I' for Inactive)
REMARK    1  A    between atoms: C_6  and  O_11
REMARK    2  A    between atoms: C_8  and  O_24
REMARK    3  A    between atoms: O_11  and  C_12
REMARK    4  A    between atoms: C_12  and  C_13
REMARK    5  A    between atoms: C_13  and  O_15
REMARK    6  A    between atoms: O_15  and  C_17
REMARK    7  A    between atoms: C_17  and  C_18
REMARK    8  A    between atoms: C_18  and  N_20
REMARK    9  A    between atoms: O_24  and  C_29
REMARK                            x       y       z     vdW  Elec       q    Type
REMARK                         _______ _______ _______ _____ _____    ______ ____
ROOT
ATOM      1  N   UNL     1      33.564 -21.634 -18.618  0.00  0.00    -0.180 N 
ATOM      2  N   UNL     1      32.322 -21.394 -19.125  0.00  0.00    -0.151 NA
ATOM      3  N   UNL     1      33.389 -19.920 -20.717  0.00  0.00    -0.187 NA
ATOM      4  C   UNL     1      34.709 -21.061 -19.110  0.00  0.00    +0.126 C 
ATOM      5  C   UNL     1      35.776 -21.517 -18.372  0.00  0.00    +0.034 C 
ATOM      6  C   UNL     1      35.252 -22.402 -17.394  0.00  0.00    +0.153 C 
ATOM      7  C   UNL     1      33.883 -22.456 -17.570  0.00  0.00    +0.126 C 
ATOM      8  C   UNL     1      34.551 -20.174 -20.209  0.00  0.00    +0.247 C 
ATOM      9  C   UNL     1      37.209 -21.188 -18.518  0.00  0.00    +0.036 C 
ATOM     10  C   UNL     1      32.307 -20.562 -20.132  0.00  0.00    +0.220 C 
ENDROOT
BRANCH   6  11
ATOM     11  O   UNL     1      35.920 -23.085 -16.453  0.00  0.00    -0.470 OA
BRANCH  11  12
ATOM     12  C   UNL     1      35.597 -22.801 -15.087  0.00  0.00    +0.249 C 
BRANCH  12  13
ATOM     13  C   UNL     1      35.443 -24.116 -14.333  0.00  0.00    +0.212 C 
ATOM     14  C   UNL     1      34.053 -24.252 -13.730  0.00  0.00    +0.051 C 
BRANCH  13  15
ATOM     15  O   UNL     1      35.654 -25.187 -15.251  0.00  0.00    -0.450 OA
BRANCH  15  17
ATOM     16  O   UNL     1      36.685 -27.243 -15.391  0.00  0.00    -0.252 OA
ATOM     17  C   UNL     1      36.521 -26.163 -14.838  0.00  0.00    +0.296 C 
BRANCH  17  18
ATOM     18  C   UNL     1      37.240 -25.699 -13.586  0.00  0.00    +0.036 C 
ATOM     19  C   UNL     1      38.732 -25.544 -13.850  0.00  0.00    -0.013 C 
BRANCH  18  20
ATOM     20  N   UNL     1      37.025 -26.698 -12.541  0.00  0.00    +0.389 N 
ATOM     21  H   UNL     1      36.025 -26.838 -12.405  0.00  0.00    -0.088 HD
ATOM     22  H   UNL     1      37.444 -26.373 -11.669  0.00  0.00    -0.088 HD
ATOM     23  H   UNL     1      37.458 -27.579 -12.817  0.00  0.00    -0.088 HD
ENDBRANCH  18  20
ENDBRANCH  17  18
ENDBRANCH  15  17
ENDBRANCH  13  15
ENDBRANCH  12  13
ENDBRANCH  11  12
ENDBRANCH   6  11
BRANCH   8  24
ATOM     24  O   UNL     1      35.666 -19.595 -20.714  0.00  0.00    -0.433 OA
BRANCH  24  29
ATOM     25  F   UNL     1      35.037 -19.553 -23.387  0.00  0.00    -0.201 F 
ATOM     26  N   UNL     1      34.478 -14.970 -23.408  0.00  0.00    -0.316 N 
ATOM     27  C   UNL     1      34.766 -17.182 -23.324  0.00  0.00    +0.045 C 
ATOM     28  C   UNL     1      34.800 -16.009 -22.564  0.00  0.00    +0.050 C 
ATOM     29  C   UNL     1      35.378 -18.414 -21.330  0.00  0.00    +0.175 C 
ATOM     30  C   UNL     1      34.241 -15.444 -24.671  0.00  0.00    +0.026 C 
ATOM     31  C   UNL     1      35.060 -18.406 -22.694  0.00  0.00    +0.176 C 
ATOM     32  C   UNL     1      34.411 -16.809 -24.650  0.00  0.00    +0.014 C 
ATOM     33  C   UNL     1      35.117 -16.002 -21.201  0.00  0.00    +0.018 C 
ATOM     34  C   UNL     1      35.405 -17.229 -20.597  0.00  0.00    +0.041 C 
ATOM     35  C   UNL     1      33.875 -14.535 -25.773  0.00  0.00    +0.047 C 
ATOM     36  H   UNL     1      34.426 -14.023 -23.142  0.00  0.00    +0.152 HD
ENDBRANCH  24  29
ENDBRANCH   8  24
TORSDOF 9
ENDMDL
MODEL 3
REMARK VINA RESULT:     -11.0      1.260      1.677
REMARK  Name = 11154925
REMARK  9 active torsions:
REMARK  status: ('A' for Active; 'I' for Inactive)
REMARK    1  A    between atoms: C_6  and  O_11
REMARK    2  A    between atoms: C_8  and  O_24
REMARK    3  A    between atoms: O_11  and  C_12
REMARK    4  A    between atoms: C_12  and  C_13
REMARK    5  A    between atoms: C_13  and  O_15
REMARK    6  A    between atoms: O_15  and  C_17
REMARK    7  A    between atoms: C_17  and  C_18
REMARK    8  A    between atoms: C_18  and  N_20
REMARK    9  A    between atoms: O_24  and  C_29
REMARK                            x       y       z     vdW  Elec       q    Type
REMARK                         _______ _______ _______ _____ _____    ______ ____
ROOT
ATOM      1  N   UNL     1      34.128 -16.730 -24.090  0.00  0.00    -0.180 N 
ATOM      2  N   UNL     1      33.908 -17.672 -25.050  0.00  0.00    -0.151 NA
ATOM      3  N   UNL     1      34.896 -19.274 -23.532  0.00  0.00    -0.187 NA
ATOM      4  C   UNL     1      34.707 -17.002 -22.877  0.00  0.00    +0.126 C 
ATOM      5  C   UNL     1      34.777 -15.833 -22.156  0.00  0.00    +0.034 C 
ATOM      6  C   UNL     1      34.216 -14.814 -22.969  0.00  0.00    +0.153 C 
ATOM      7  C   UNL     1      33.823 -15.396 -24.157  0.00  0.00    +0.126 C 
ATOM      8  C   UNL     1      35.087 -18.351 -22.646  0.00  0.00    +0.247 C 
ATOM      9  C   UNL     1      35.318 -15.616 -20.799  0.00  0.00    +0.036 C 
ATOM     10  C   UNL     1      34.301 -18.874 -24.720  0.00  0.00    +0.220 C 
ENDROOT
BRANCH   6  11
ATOM     11  O   UNL     1      34.070 -13.513 -22.681  0.00  0.00    -0.470 OA
BRANCH  11  12
ATOM     12  C   UNL     1      34.102 -12.593 -23.778  0.00  0.00    +0.249 C 
BRANCH  12  13
ATOM     13  C   UNL     1      34.013 -11.173 -23.235  0.00  0.00    +0.212 C 
ATOM     14  C   UNL     1      34.594 -10.164 -24.214  0.00  0.00    +0.051 C 
BRANCH  13  15
ATOM     15  O   UNL     1      32.638 -10.862 -23.014  0.00  0.00    -0.450 OA
BRANCH  15  17
ATOM     16  O   UNL     1      32.852  -9.034 -21.628  0.00  0.00    -0.252 OA
ATOM     17  C   UNL     1      32.366 -10.127 -21.891  0.00  0.00    +0.296 C 
BRANCH  17  18
ATOM     18  C   UNL     1      31.375 -10.881 -21.025  0.00  0.00    +0.036 C 
ATOM     19  C   UNL     1      31.612 -10.580 -19.551  0.00  0.00    -0.013 C 
BRANCH  18  20
ATOM     20  N   UNL     1      31.551 -12.311 -21.271  0.00  0.00    +0.389 N 
ATOM     21  H   UNL     1      32.259 -12.680 -20.638  0.00  0.00    -0.088 HD
ATOM     22  H   UNL     1      31.849 -12.455 -22.236  0.00  0.00    -0.088 HD
ATOM     23  H   UNL     1      30.667 -12.794 -21.113  0.00  0.00    -0.088 HD
ENDBRANCH  18  20
ENDBRANCH  17  18
ENDBRANCH  15  17
ENDBRANCH  13  15
ENDBRANCH  12  13
ENDBRANCH  11  12
ENDBRANCH   6  11
BRANCH   8  24
ATOM     24  O   UNL     1      35.662 -18.647 -21.456  0.00  0.00    -0.433 OA
BRANCH  24  29
ATOM     25  F   UNL     1      36.793 -20.434 -19.704  0.00  0.00    -0.201 F 
ATOM     26  N   UNL     1      32.683 -22.048 -18.355  0.00  0.00    -0.316 N 
ATOM     27  C   UNL     1      34.633 -21.220 -19.055  0.00  0.00    +0.045 C 
ATOM     28  C   UNL     1      33.247 -21.126 -19.207  0.00  0.00    +0.050 C 
ATOM     29  C   UNL     1      34.870 -19.468 -20.710  0.00  0.00    +0.175 C 
ATOM     30  C   UNL     1      33.660 -22.721 -17.672  0.00  0.00    +0.026 C 
ATOM     31  C   UNL     1      35.459 -20.375 -19.821  0.00  0.00    +0.176 C 
ATOM     32  C   UNL     1      34.878 -22.230 -18.083  0.00  0.00    +0.014 C 
ATOM     33  C   UNL     1      32.646 -20.224 -20.092  0.00  0.00    +0.018 C 
ATOM     34  C   UNL     1      33.485 -19.395 -20.841  0.00  0.00    +0.041 C 
ATOM     35  C   UNL     1      33.325 -23.769 -16.690  0.00  0.00    +0.047 C 
ATOM     36  H   UNL     1      31.715 -22.202 -18.254  0.00  0.00    +0.152 HD
ENDBRANCH  24  29
ENDBRANCH   8  24
TORSDOF 9
ENDMDL
MODEL 4
REMARK VINA RESULT:     -10.9      5.854     11.931
REMARK  Name = 11154925
REMARK  9 active torsions:
REMARK  status: ('A' for Active; 'I' for Inactive)
REMARK    1  A    between atoms: C_6  and  O_11
REMARK    2  A    between atoms: C_8  and  O_24
REMARK    3  A    between atoms: O_11  and  C_12
REMARK    4  A    between atoms: C_12  and  C_13
REMARK    5  A    between atoms: C_13  and  O_15
REMARK    6  A    between atoms: O_15  and  C_17
REMARK    7  A    between atoms: C_17  and  C_18
REMARK    8  A    between atoms: C_18  and  N_20
REMARK    9  A    between atoms: O_24  and  C_29
REMARK                            x       y       z     vdW  Elec       q    Type
REMARK                         _______ _______ _______ _____ _____    ______ ____
ROOT
ATOM      1  N   UNL     1      32.274 -23.340 -14.507  0.00  0.00    -0.180 N 
ATOM      2  N   UNL     1      31.027 -22.999 -14.940  0.00  0.00    -0.151 NA
ATOM      3  N   UNL     1      31.981 -22.802 -17.153  0.00  0.00    -0.187 NA
ATOM      4  C   UNL     1      33.367 -23.424 -15.331  0.00  0.00    +0.126 C 
ATOM      5  C   UNL     1      34.455 -23.790 -14.574  0.00  0.00    +0.034 C 
ATOM      6  C   UNL     1      33.998 -23.933 -13.238  0.00  0.00    +0.153 C 
ATOM      7  C   UNL     1      32.647 -23.650 -13.226  0.00  0.00    +0.126 C 
ATOM      8  C   UNL     1      33.149 -23.131 -16.704  0.00  0.00    +0.247 C 
ATOM      9  C   UNL     1      35.851 -24.008 -15.007  0.00  0.00    +0.036 C 
ATOM     10  C   UNL     1      30.955 -22.752 -16.221  0.00  0.00    +0.220 C 
ENDROOT
BRANCH   6  11
ATOM     11  O   UNL     1      34.706 -24.279 -12.153  0.00  0.00    -0.470 OA
BRANCH  11  12
ATOM     12  C   UNL     1      35.662 -23.331 -11.668  0.00  0.00    +0.249 C 
BRANCH  12  13
ATOM     13  C   UNL     1      36.472 -23.974 -10.550  0.00  0.00    +0.212 C 
ATOM     14  C   UNL     1      35.585 -24.387  -9.385  0.00  0.00    +0.051 C 
BRANCH  13  15
ATOM     15  O   UNL     1      37.116 -25.135 -11.073  0.00  0.00    -0.450 OA
BRANCH  15  17
ATOM     16  O   UNL     1      38.845 -23.893 -11.957  0.00  0.00    -0.252 OA
ATOM     17  C   UNL     1      38.151 -24.901 -11.940  0.00  0.00    +0.296 C 
BRANCH  17  18
ATOM     18  C   UNL     1      38.298 -26.085 -12.876  0.00  0.00    +0.036 C 
ATOM     19  C   UNL     1      38.989 -25.667 -14.167  0.00  0.00    -0.013 C 
BRANCH  18  20
ATOM     20  N   UNL     1      36.962 -26.597 -13.176  0.00  0.00    +0.389 N 
ATOM     21  H   UNL     1      36.513 -26.902 -12.313  0.00  0.00    -0.088 HD
ATOM     22  H   UNL     1      37.037 -27.387 -13.817  0.00  0.00    -0.088 HD
ATOM     23  H   UNL     1      36.404 -25.861 -13.609  0.00  0.00    -0.088 HD
ENDBRANCH  18  20
ENDBRANCH  17  18
ENDBRANCH  15  17
ENDBRANCH  13  15
ENDBRANCH  12  13
ENDBRANCH  11  12
ENDBRANCH   6  11
BRANCH   8  24
ATOM     24  O   UNL     1      34.213 -23.205 -17.539  0.00  0.00    -0.433 OA
BRANCH  24  29
ATOM     25  F   UNL     1      36.594 -22.032 -18.242  0.00  0.00    -0.201 F 
ATOM     26  N   UNL     1      34.527 -19.012 -21.057  0.00  0.00    -0.316 N 
ATOM     27  C   UNL     1      35.458 -20.501 -19.679  0.00  0.00    +0.045 C 
ATOM     28  C   UNL     1      34.242 -20.057 -20.206  0.00  0.00    +0.050 C 
ATOM     29  C   UNL     1      34.229 -22.166 -18.419  0.00  0.00    +0.175 C 
ATOM     30  C   UNL     1      35.876 -18.781 -21.086  0.00  0.00    +0.026 C 
ATOM     31  C   UNL     1      35.450 -21.576 -18.769  0.00  0.00    +0.176 C 
ATOM     32  C   UNL     1      36.479 -19.687 -20.243  0.00  0.00    +0.014 C 
ATOM     33  C   UNL     1      33.015 -20.637 -19.866  0.00  0.00    +0.018 C 
ATOM     34  C   UNL     1      33.032 -21.703 -18.961  0.00  0.00    +0.041 C 
ATOM     35  C   UNL     1      36.452 -17.711 -21.921  0.00  0.00    +0.047 C 
ATOM     36  H   UNL     1      33.856 -18.504 -21.569  0.00  0.00    +0.152 HD
ENDBRANCH  24  29
ENDBRANCH   8  24
TORSDOF 9
ENDMDL
MODEL 5
REMARK VINA RESULT:     -10.9      2.658      9.832
REMARK  Name = 11154925
REMARK  9 active torsions:
REMARK  status: ('A' for Active; 'I' for Inactive)
REMARK    1  A    between atoms: C_6  and  O_11
REMARK    2  A    between atoms: C_8  and  O_24
REMARK    3  A    between atoms: O_11  and  C_12
REMARK    4  A    between atoms: C_12  and  C_13
REMARK    5  A    between atoms: C_13  and  O_15
REMARK    6  A    between atoms: O_15  and  C_17
REMARK    7  A    between atoms: C_17  and  C_18
REMARK    8  A    between atoms: C_18  and  N_20
REMARK    9  A    between atoms: O_24  and  C_29
REMARK                            x       y       z     vdW  Elec       q    Type
REMARK                         _______ _______ _______ _____ _____    ______ ____
ROOT
ATOM      1  N   UNL     1      34.172 -15.858 -24.623  0.00  0.00    -0.180 N 
ATOM      2  N   UNL     1      33.675 -15.365 -25.792  0.00  0.00    -0.151 NA
ATOM      3  N   UNL     1      33.163 -13.337 -24.580  0.00  0.00    -0.187 NA
ATOM      4  C   UNL     1      34.187 -15.152 -23.447  0.00  0.00    +0.126 C 
ATOM      5  C   UNL     1      34.753 -15.941 -22.473  0.00  0.00    +0.034 C 
ATOM      6  C   UNL     1      35.094 -17.173 -23.089  0.00  0.00    +0.153 C 
ATOM      7  C   UNL     1      34.725 -17.094 -24.416  0.00  0.00    +0.126 C 
ATOM      8  C   UNL     1      33.645 -13.840 -23.490  0.00  0.00    +0.247 C 
ATOM      9  C   UNL     1      34.988 -15.625 -21.049  0.00  0.00    +0.036 C 
ATOM     10  C   UNL     1      33.205 -14.150 -25.704  0.00  0.00    +0.220 C 
ENDROOT
BRANCH   6  11
ATOM     11  O   UNL     1      35.671 -18.246 -22.528  0.00  0.00    -0.470 OA
BRANCH  11  12
ATOM     12  C   UNL     1      34.846 -19.397 -22.318  0.00  0.00    +0.249 C 
BRANCH  12  13
ATOM     13  C   UNL     1      34.628 -19.582 -20.822  0.00  0.00    +0.212 C 
ATOM     14  C   UNL     1      33.176 -19.906 -20.507  0.00  0.00    +0.051 C 
BRANCH  13  15
ATOM     15  O   UNL     1      35.448 -20.663 -20.380  0.00  0.00    -0.450 OA
BRANCH  15  17
ATOM     16  O   UNL     1      37.070 -19.328 -19.433  0.00  0.00    -0.252 OA
ATOM     17  C   UNL     1      36.392 -20.347 -19.439  0.00  0.00    +0.296 C 
BRANCH  17  18
ATOM     18  C   UNL     1      36.468 -21.460 -18.411  0.00  0.00    +0.036 C 
ATOM     19  C   UNL     1      35.093 -22.067 -18.172  0.00  0.00    -0.013 C 
BRANCH  18  20
ATOM     20  N   UNL     1      36.981 -20.894 -17.165  0.00  0.00    +0.389 N 
ATOM     21  H   UNL     1      37.778 -20.291 -17.368  0.00  0.00    -0.088 HD
ATOM     22  H   UNL     1      37.275 -21.649 -16.545  0.00  0.00    -0.088 HD
ATOM     23  H   UNL     1      36.248 -20.348 -16.712  0.00  0.00    -0.088 HD
ENDBRANCH  18  20
ENDBRANCH  17  18
ENDBRANCH  15  17
ENDBRANCH  13  15
ENDBRANCH  12  13
ENDBRANCH  11  12
ENDBRANCH   6  11
BRANCH   8  24
ATOM     24  O   UNL     1      33.647 -13.121 -22.342  0.00  0.00    -0.433 OA
BRANCH  24  29
ATOM     25  F   UNL     1      31.568 -11.790 -21.138  0.00  0.00    -0.201 F 
ATOM     26  N   UNL     1      32.666  -7.790 -23.165  0.00  0.00    -0.316 N 
ATOM     27  C   UNL     1      32.194  -9.756 -22.221  0.00  0.00    +0.045 C 
ATOM     28  C   UNL     1      33.073  -9.103 -23.089  0.00  0.00    +0.050 C 
ATOM     29  C   UNL     1      33.452 -11.794 -22.584  0.00  0.00    +0.175 C 
ATOM     30  C   UNL     1      31.564  -7.591 -22.378  0.00  0.00    +0.026 C 
ATOM     31  C   UNL     1      32.388 -11.127 -21.964  0.00  0.00    +0.176 C 
ATOM     32  C   UNL     1      31.248  -8.790 -21.780  0.00  0.00    +0.014 C 
ATOM     33  C   UNL     1      34.140  -9.757 -23.715  0.00  0.00    +0.018 C 
ATOM     34  C   UNL     1      34.314 -11.117 -23.445  0.00  0.00    +0.041 C 
ATOM     35  C   UNL     1      30.923  -6.266 -22.278  0.00  0.00    +0.047 C 
ATOM     36  H   UNL     1      33.105  -7.095 -23.708  0.00  0.00    +0.152 HD
ENDBRANCH  24  29
ENDBRANCH   8  24
TORSDOF 9
ENDMDL
MODEL 6
REMARK VINA RESULT:     -10.8      1.291      1.757
REMARK  Name = 11154925
REMARK  9 active torsions:
REMARK  status: ('A' for Active; 'I' for Inactive)
REMARK    1  A    between atoms: C_6  and  O_11
REMARK    2  A    between atoms: C_8  and  O_24
REMARK    3  A    between atoms: O_11  and  C_12
REMARK    4  A    between atoms: C_12  and  C_13
REMARK    5  A    between atoms: C_13  and  O_15
REMARK    6  A    between atoms: O_15  and  C_17
REMARK    7  A    between atoms: C_17  and  C_18
REMARK    8  A    between atoms: C_18  and  N_20
REMARK    9  A    between atoms: O_24  and  C_29
REMARK                            x       y       z     vdW  Elec       q    Type
REMARK                         _______ _______ _______ _____ _____    ______ ____
ROOT
ATOM      1  N   UNL     1      34.364 -17.139 -23.790  0.00  0.00    -0.180 N 
ATOM      2  N   UNL     1      34.064 -17.968 -24.829  0.00  0.00    -0.151 NA
ATOM      3  N   UNL     1      34.962 -19.770 -23.492  0.00  0.00    -0.187 NA
ATOM      4  C   UNL     1      34.942 -17.564 -22.621  0.00  0.00    +0.126 C 
ATOM      5  C   UNL     1      35.104 -16.477 -21.795  0.00  0.00    +0.034 C 
ATOM      6  C   UNL     1      34.602 -15.349 -22.495  0.00  0.00    +0.153 C 
ATOM      7  C   UNL     1      34.151 -15.787 -23.724  0.00  0.00    +0.126 C 
ATOM      8  C   UNL     1      35.230 -18.952 -22.527  0.00  0.00    +0.247 C 
ATOM      9  C   UNL     1      35.680 -16.428 -20.435  0.00  0.00    +0.036 C 
ATOM     10  C   UNL     1      34.377 -19.219 -24.623  0.00  0.00    +0.220 C 
ENDROOT
BRANCH   6  11
ATOM     11  O   UNL     1      34.552 -14.074 -22.083  0.00  0.00    -0.470 OA
BRANCH  11  12
ATOM     12  C   UNL     1      33.374 -13.659 -21.383  0.00  0.00    +0.249 C 
BRANCH  12  13
ATOM     13  C   UNL     1      32.704 -12.537 -22.166  0.00  0.00    +0.212 C 
ATOM     14  C   UNL     1      31.830 -11.676 -21.267  0.00  0.00    +0.051 C 
BRANCH  13  15
ATOM     15  O   UNL     1      33.723 -11.719 -22.738  0.00  0.00    -0.450 OA
BRANCH  15  17
ATOM     16  O   UNL     1      33.443 -12.523 -24.880  0.00  0.00    -0.252 OA
ATOM     17  C   UNL     1      33.704 -11.613 -24.103  0.00  0.00    +0.296 C 
BRANCH  17  18
ATOM     18  C   UNL     1      34.062 -10.194 -24.502  0.00  0.00    +0.036 C 
ATOM     19  C   UNL     1      35.439 -10.148 -25.149  0.00  0.00    -0.013 C 
BRANCH  18  20
ATOM     20  N   UNL     1      34.056  -9.367 -23.296  0.00  0.00    +0.389 N 
ATOM     21  H   UNL     1      33.179  -9.505 -22.794  0.00  0.00    -0.088 HD
ATOM     22  H   UNL     1      34.147  -8.385 -23.557  0.00  0.00    -0.088 HD
ATOM     23  H   UNL     1      34.837  -9.633 -22.697  0.00  0.00    -0.088 HD
ENDBRANCH  18  20
ENDBRANCH  17  18
ENDBRANCH  15  17
ENDBRANCH  13  15
ENDBRANCH  12  13
ENDBRANCH  11  12
ENDBRANCH   6  11
BRANCH   8  24
ATOM     24  O   UNL     1      35.802 -19.399 -21.383  0.00  0.00    -0.433 OA
BRANCH  24  29
ATOM     25  F   UNL     1      36.640 -21.188 -19.476  0.00  0.00    -0.201 F 
ATOM     26  N   UNL     1      32.329 -22.016 -18.043  0.00  0.00    -0.316 N 
ATOM     27  C   UNL     1      34.385 -21.567 -18.788  0.00  0.00    +0.045 C 
ATOM     28  C   UNL     1      33.031 -21.268 -18.963  0.00  0.00    +0.050 C 
ATOM     29  C   UNL     1      34.892 -20.019 -20.580  0.00  0.00    +0.175 C 
ATOM     30  C   UNL     1      33.190 -22.774 -17.296  0.00  0.00    +0.026 C 
ATOM     31  C   UNL     1      35.332 -20.930 -19.612  0.00  0.00    +0.176 C 
ATOM     32  C   UNL     1      34.469 -22.518 -17.733  0.00  0.00    +0.014 C 
ATOM     33  C   UNL     1      32.577 -20.361 -19.926  0.00  0.00    +0.018 C 
ATOM     34  C   UNL     1      33.535 -19.740 -20.732  0.00  0.00    +0.041 C 
ATOM     35  C   UNL     1      32.696 -23.671 -16.234  0.00  0.00    +0.047 C 
ATOM     36  H   UNL     1      31.350 -22.006 -17.940  0.00  0.00    +0.152 HD
ENDBRANCH  24  29
ENDBRANCH   8  24
TORSDOF 9
ENDMDL
MODEL 7
REMARK VINA RESULT:     -10.8      2.482      9.450
REMARK  Name = 11154925
REMARK  9 active torsions:
REMARK  status: ('A' for Active; 'I' for Inactive)
REMARK    1  A    between atoms: C_6  and  O_11
REMARK    2  A    between atoms: C_8  and  O_24
REMARK    3  A    between atoms: O_11  and  C_12
REMARK    4  A    between atoms: C_12  and  C_13
REMARK    5  A    between atoms: C_13  and  O_15
REMARK    6  A    between atoms: O_15  and  C_17
REMARK    7  A    between atoms: C_17  and  C_18
REMARK    8  A    between atoms: C_18  and  N_20
REMARK    9  A    between atoms: O_24  and  C_29
REMARK                            x       y       z     vdW  Elec       q    Type
REMARK                         _______ _______ _______ _____ _____    ______ ____
ROOT
ATOM      1  N   UNL     1      34.087 -17.509 -23.945  0.00  0.00    -0.180 N 
ATOM      2  N   UNL     1      33.517 -17.112 -25.117  0.00  0.00    -0.151 NA
ATOM      3  N   UNL     1      33.953 -14.839 -24.419  0.00  0.00    -0.187 NA
ATOM      4  C   UNL     1      34.589 -16.639 -23.011  0.00  0.00    +0.126 C 
ATOM      5  C   UNL     1      35.088 -17.369 -21.958  0.00  0.00    +0.034 C 
ATOM      6  C   UNL     1      34.877 -18.737 -22.270  0.00  0.00    +0.153 C 
ATOM      7  C   UNL     1      34.258 -18.794 -23.503  0.00  0.00    +0.126 C 
ATOM      8  C   UNL     1      34.489 -15.255 -23.318  0.00  0.00    +0.247 C 
ATOM      9  C   UNL     1      35.727 -16.884 -20.718  0.00  0.00    +0.036 C 
ATOM     10  C   UNL     1      33.482 -15.817 -25.284  0.00  0.00    +0.220 C 
ENDROOT
BRANCH   6  11
ATOM     11  O   UNL     1      35.202 -19.813 -21.538  0.00  0.00    -0.470 OA
BRANCH  11  12
ATOM     12  C   UNL     1      34.371 -20.111 -20.411  0.00  0.00    +0.249 C 
BRANCH  12  13
ATOM     13  C   UNL     1      34.980 -21.279 -19.645  0.00  0.00    +0.212 C 
ATOM     14  C   UNL     1      36.318 -20.902 -19.027  0.00  0.00    +0.051 C 
BRANCH  13  15
ATOM     15  O   UNL     1      34.079 -21.650 -18.603  0.00  0.00    -0.450 OA
BRANCH  15  17
ATOM     16  O   UNL     1      33.876 -23.805 -19.393  0.00  0.00    -0.252 OA
ATOM     17  C   UNL     1      33.832 -22.992 -18.479  0.00  0.00    +0.296 C 
BRANCH  17  18
ATOM     18  C   UNL     1      33.491 -23.309 -17.036  0.00  0.00    +0.036 C 
ATOM     19  C   UNL     1      32.148 -22.701 -16.655  0.00  0.00    -0.013 C 
BRANCH  18  20
ATOM     20  N   UNL     1      34.543 -22.752 -16.187  0.00  0.00    +0.389 N 
ATOM     21  H   UNL     1      34.872 -21.873 -16.586  0.00  0.00    -0.088 HD
ATOM     22  H   UNL     1      35.319 -23.412 -16.132  0.00  0.00    -0.088 HD
ATOM     23  H   UNL     1      34.173 -22.585 -15.252  0.00  0.00    -0.088 HD
ENDBRANCH  18  20
ENDBRANCH  17  18
ENDBRANCH  15  17
ENDBRANCH  13  15
ENDBRANCH  12  13
ENDBRANCH  11  12
ENDBRANCH   6  11
BRANCH   8  24
ATOM     24  O   UNL     1      34.977 -14.373 -22.413  0.00  0.00    -0.433 OA
BRANCH  24  29
ATOM     25  F   UNL     1      34.908 -11.971 -23.741  0.00  0.00    -0.201 F 
ATOM     26  N   UNL     1      31.333 -10.446 -21.248  0.00  0.00    -0.316 N 
ATOM     27  C   UNL     1      33.060 -11.248 -22.413  0.00  0.00    +0.045 C 
ATOM     28  C   UNL     1      32.155 -11.542 -21.389  0.00  0.00    +0.050 C 
ATOM     29  C   UNL     1      34.047 -13.435 -22.080  0.00  0.00    +0.175 C 
ATOM     30  C   UNL     1      31.686  -9.473 -22.144  0.00  0.00    +0.026 C 
ATOM     31  C   UNL     1      34.023 -12.213 -22.764  0.00  0.00    +0.176 C 
ATOM     32  C   UNL     1      32.751  -9.940 -22.880  0.00  0.00    +0.014 C 
ATOM     33  C   UNL     1      32.167 -12.758 -20.697  0.00  0.00    +0.018 C 
ATOM     34  C   UNL     1      33.132 -13.701 -21.064  0.00  0.00    +0.041 C 
ATOM     35  C   UNL     1      30.963  -8.189 -22.205  0.00  0.00    +0.047 C 
ATOM     36  H   UNL     1      30.599 -10.373 -20.596  0.00  0.00    +0.152 HD
ENDBRANCH  24  29
ENDBRANCH   8  24
TORSDOF 9
ENDMDL
MODEL 8
REMARK VINA RESULT:     -10.3      4.044     11.739
REMARK  Name = 11154925
REMARK  9 active torsions:
REMARK  status: ('A' for Active; 'I' for Inactive)
REMARK    1  A    between atoms: C_6  and  O_11
REMARK    2  A    between atoms: C_8  and  O_24
REMARK    3  A    between atoms: O_11  and  C_12
REMARK    4  A    between atoms: C_12  and  C_13
REMARK    5  A    between atoms: C_13  and  O_15
REMARK    6  A    between atoms: O_15  and  C_17
REMARK    7  A    between atoms: C_17  and  C_18
REMARK    8  A    between atoms: C_18  and  N_20
REMARK    9  A    between atoms: O_24  and  C_29
REMARK                            x       y       z     vdW  Elec       q    Type
REMARK                         _______ _______ _______ _____ _____    ______ ____
ROOT
ATOM      1  N   UNL     1      32.342 -12.071 -21.450  0.00  0.00    -0.180 N 
ATOM      2  N   UNL     1      31.438 -11.839 -20.456  0.00  0.00    -0.151 NA
ATOM      3  N   UNL     1      31.259  -9.585 -21.312  0.00  0.00    -0.187 NA
ATOM      4  C   UNL     1      32.721 -11.126 -22.367  0.00  0.00    +0.126 C 
ATOM      5  C   UNL     1      33.640 -11.692 -23.220  0.00  0.00    +0.034 C 
ATOM      6  C   UNL     1      33.821 -13.034 -22.799  0.00  0.00    +0.153 C 
ATOM      7  C   UNL     1      33.006 -13.242 -21.703  0.00  0.00    +0.126 C 
ATOM      8  C   UNL     1      32.119  -9.845 -22.242  0.00  0.00    +0.247 C 
ATOM      9  C   UNL     1      34.337 -11.075 -24.367  0.00  0.00    +0.036 C 
ATOM     10  C   UNL     1      30.956 -10.625 -20.445  0.00  0.00    +0.220 C 
ENDROOT
BRANCH   6  11
ATOM     11  O   UNL     1      34.621 -13.969 -23.332  0.00  0.00    -0.470 OA
BRANCH  11  12
ATOM     12  C   UNL     1      34.948 -15.096 -22.511  0.00  0.00    +0.249 C 
BRANCH  12  13
ATOM     13  C   UNL     1      34.653 -16.373 -23.287  0.00  0.00    +0.212 C 
ATOM     14  C   UNL     1      34.778 -16.155 -24.787  0.00  0.00    +0.051 C 
BRANCH  13  15
ATOM     15  O   UNL     1      35.592 -17.369 -22.885  0.00  0.00    -0.450 OA
BRANCH  15  17
ATOM     16  O   UNL     1      34.180 -19.188 -22.963  0.00  0.00    -0.252 OA
ATOM     17  C   UNL     1      35.056 -18.536 -22.410  0.00  0.00    +0.296 C 
BRANCH  17  18
ATOM     18  C   UNL     1      35.713 -18.889 -21.090  0.00  0.00    +0.036 C 
ATOM     19  C   UNL     1      34.962 -20.020 -20.400  0.00  0.00    -0.013 C 
BRANCH  18  20
ATOM     20  N   UNL     1      35.700 -17.699 -20.241  0.00  0.00    +0.389 N 
ATOM     21  H   UNL     1      36.189 -16.939 -20.714  0.00  0.00    -0.088 HD
ATOM     22  H   UNL     1      36.167 -17.906 -19.358  0.00  0.00    -0.088 HD
ATOM     23  H   UNL     1      34.736 -17.422 -20.058  0.00  0.00    -0.088 HD
ENDBRANCH  18  20
ENDBRANCH  17  18
ENDBRANCH  15  17
ENDBRANCH  13  15
ENDBRANCH  12  13
ENDBRANCH  11  12
ENDBRANCH   6  11
BRANCH   8  24
ATOM     24  O   UNL     1      32.477  -8.893 -23.136  0.00  0.00    -0.433 OA
BRANCH  24  29
ATOM     25  F   UNL     1      30.669  -7.066 -24.103  0.00  0.00    -0.201 F 
ATOM     26  N   UNL     1      32.014  -3.821 -21.107  0.00  0.00    -0.316 N 
ATOM     27  C   UNL     1      31.416  -5.437 -22.525  0.00  0.00    +0.045 C 
ATOM     28  C   UNL     1      32.281  -5.121 -21.474  0.00  0.00    +0.050 C 
ATOM     29  C   UNL     1      32.407  -7.646 -22.591  0.00  0.00    +0.175 C 
ATOM     30  C   UNL     1      31.015  -3.305 -21.887  0.00  0.00    +0.026 C 
ATOM     31  C   UNL     1      31.481  -6.723 -23.093  0.00  0.00    +0.176 C 
ATOM     32  C   UNL     1      30.624  -4.282 -22.774  0.00  0.00    +0.014 C 
ATOM     33  C   UNL     1      33.211  -6.032 -20.962  0.00  0.00    +0.018 C 
ATOM     34  C   UNL     1      33.257  -7.304 -21.541  0.00  0.00    +0.041 C 
ATOM     35  C   UNL     1      30.534  -1.923 -21.702  0.00  0.00    +0.047 C 
ATOM     36  H   UNL     1      32.477  -3.333 -20.387  0.00  0.00    +0.152 HD
ENDBRANCH  24  29
ENDBRANCH   8  24
TORSDOF 9
ENDMDL
MODEL 9
REMARK VINA RESULT:     -10.2      2.560      9.779
REMARK  Name = 11154925
REMARK  9 active torsions:
REMARK  status: ('A' for Active; 'I' for Inactive)
REMARK    1  A    between atoms: C_6  and  O_11
REMARK    2  A    between atoms: C_8  and  O_24
REMARK    3  A    between atoms: O_11  and  C_12
REMARK    4  A    between atoms: C_12  and  C_13
REMARK    5  A    between atoms: C_13  and  O_15
REMARK    6  A    between atoms: O_15  and  C_17
REMARK    7  A    between atoms: C_17  and  C_18
REMARK    8  A    between atoms: C_18  and  N_20
REMARK    9  A    between atoms: O_24  and  C_29
REMARK                            x       y       z     vdW  Elec       q    Type
REMARK                         _______ _______ _______ _____ _____    ______ ____
ROOT
ATOM      1  N   UNL     1      34.062 -15.548 -24.273  0.00  0.00    -0.180 N 
ATOM      2  N   UNL     1      33.462 -15.021 -25.378  0.00  0.00    -0.151 NA
ATOM      3  N   UNL     1      32.922 -13.097 -24.018  0.00  0.00    -0.187 NA
ATOM      4  C   UNL     1      34.116 -14.909 -23.061  0.00  0.00    +0.126 C 
ATOM      5  C   UNL     1      34.789 -15.716 -22.173  0.00  0.00    +0.034 C 
ATOM      6  C   UNL     1      35.155 -16.890 -22.881  0.00  0.00    +0.153 C 
ATOM      7  C   UNL     1      34.694 -16.759 -24.175  0.00  0.00    +0.126 C 
ATOM      8  C   UNL     1      33.502 -13.629 -22.992  0.00  0.00    +0.247 C 
ATOM      9  C   UNL     1      35.100 -15.466 -20.751  0.00  0.00    +0.036 C 
ATOM     10  C   UNL     1      32.934 -13.841 -25.189  0.00  0.00    +0.220 C 
ENDROOT
BRANCH   6  11
ATOM     11  O   UNL     1      35.825 -17.957 -22.422  0.00  0.00    -0.470 OA
BRANCH  11  12
ATOM     12  C   UNL     1      35.050 -19.084 -22.000  0.00  0.00    +0.249 C 
BRANCH  12  13
ATOM     13  C   UNL     1      35.780 -19.787 -20.863  0.00  0.00    +0.212 C 
ATOM     14  C   UNL     1      37.013 -19.010 -20.428  0.00  0.00    +0.051 C 
BRANCH  13  15
ATOM     15  O   UNL     1      34.887 -19.894 -19.755  0.00  0.00    -0.450 OA
BRANCH  15  17
ATOM     16  O   UNL     1      35.625 -21.809 -18.708  0.00  0.00    -0.252 OA
ATOM     17  C   UNL     1      34.736 -21.150 -19.231  0.00  0.00    +0.296 C 
BRANCH  17  18
ATOM     18  C   UNL     1      33.297 -21.598 -19.406  0.00  0.00    +0.036 C 
ATOM     19  C   UNL     1      32.397 -20.408 -19.711  0.00  0.00    -0.013 C 
BRANCH  18  20
ATOM     20  N   UNL     1      32.865 -22.238 -18.165  0.00  0.00    +0.389 N 
ATOM     21  H   UNL     1      32.469 -23.153 -18.376  0.00  0.00    -0.088 HD
ATOM     22  H   UNL     1      32.159 -21.658 -17.712  0.00  0.00    -0.088 HD
ATOM     23  H   UNL     1      33.665 -22.348 -17.543  0.00  0.00    -0.088 HD
ENDBRANCH  18  20
ENDBRANCH  17  18
ENDBRANCH  15  17
ENDBRANCH  13  15
ENDBRANCH  12  13
ENDBRANCH  11  12
ENDBRANCH   6  11
BRANCH   8  24
ATOM     24  O   UNL     1      33.541 -12.977 -21.806  0.00  0.00    -0.433 OA
BRANCH  24  29
ATOM     25  F   UNL     1      34.571 -10.861 -23.222  0.00  0.00    -0.201 F 
ATOM     26  N   UNL     1      30.993  -8.136 -22.178  0.00  0.00    -0.316 N 
ATOM     27  C   UNL     1      32.691  -9.509 -22.642  0.00  0.00    +0.045 C 
ATOM     28  C   UNL     1      31.471  -9.411 -21.967  0.00  0.00    +0.050 C 
ATOM     29  C   UNL     1      32.862 -11.797 -21.864  0.00  0.00    +0.175 C 
ATOM     30  C   UNL     1      31.866  -7.428 -22.960  0.00  0.00    +0.026 C 
ATOM     31  C   UNL     1      33.398 -10.725 -22.589  0.00  0.00    +0.176 C 
ATOM     32  C   UNL     1      32.926  -8.251 -23.263  0.00  0.00    +0.014 C 
ATOM     33  C   UNL     1      30.923 -10.472 -21.240  0.00  0.00    +0.018 C 
ATOM     34  C   UNL     1      31.643 -11.670 -21.201  0.00  0.00    +0.041 C 
ATOM     35  C   UNL     1      31.594  -6.029 -23.338  0.00  0.00    +0.047 C 
ATOM     36  H   UNL     1      30.147  -7.785 -21.818  0.00  0.00    +0.152 HD
ENDBRANCH  24  29
ENDBRANCH   8  24
TORSDOF 9
ENDMDL
