MODEL 1
REMARK VINA RESULT:     -11.7      0.000      0.000
REMARK  Name = 6419789
REMARK  3 active torsions:
REMARK  status: ('A' for Active; 'I' for Inactive)
REMARK    1  A    between atoms: N_4  and  C_13
REMARK    2  A    between atoms: C_5  and  C_19
REMARK    3  A    between atoms: C_22  and  N_25
REMARK                            x       y       z     vdW  Elec       q    Type
REMARK                         _______ _______ _______ _____ _____    ______ ____
ROOT
ATOM      1  N   UNL     1      35.923 -23.152 -14.061  0.00  0.00    -0.164 N 
ATOM      2  N   UNL     1      34.855 -22.768 -16.180  0.00  0.00    -0.374 NA
ATOM      3  N   UNL     1      35.626 -23.554 -12.797  0.00  0.00    -0.174 NA
ATOM      4  N   UNL     1      36.126 -22.041 -17.988  0.00  0.00    -0.288 N 
ATOM      5  C   UNL     1      33.744 -23.549 -14.079  0.00  0.00    +0.134 C 
ATOM      6  C   UNL     1      34.792 -23.138 -14.871  0.00  0.00    +0.194 C 
ATOM      7  C   UNL     1      34.314 -23.789 -12.823  0.00  0.00    +0.104 C 
ATOM      8  C   UNL     1      36.025 -22.419 -16.668  0.00  0.00    +0.186 C 
ATOM      9  C   UNL     1      37.162 -22.785 -14.566  0.00  0.00    +0.096 C 
ATOM     10  C   UNL     1      37.284 -22.412 -15.843  0.00  0.00    +0.066 C 
ATOM     11  H   UNL     1      36.984 -22.223 -18.436  0.00  0.00    +0.155 HD
ENDROOT
BRANCH   4  13
ATOM     12 CL   UNL     1      34.927 -18.777 -21.762  0.00  0.00    -0.082 Cl
ATOM     13  C   UNL     1      35.140 -21.428 -18.754  0.00  0.00    +0.051 C 
ATOM     14  C   UNL     1      35.481 -20.511 -19.763  0.00  0.00    +0.026 C 
ATOM     15  C   UNL     1      33.783 -21.713 -18.535  0.00  0.00    +0.015 C 
ATOM     16  C   UNL     1      34.491 -19.897 -20.530  0.00  0.00    +0.059 C 
ATOM     17  C   UNL     1      32.793 -21.098 -19.302  0.00  0.00    +0.002 C 
ATOM     18  C   UNL     1      33.146 -20.191 -20.300  0.00  0.00    +0.011 C 
ENDBRANCH   4  13
BRANCH   5  19
ATOM     19  C   UNL     1      32.390 -23.674 -14.529  0.00  0.00    -0.008 C 
ATOM     20  C   UNL     1      31.531 -24.595 -13.925  0.00  0.00    +0.011 C 
ATOM     21  C   UNL     1      31.923 -22.876 -15.576  0.00  0.00    -0.003 C 
ATOM     22  C   UNL     1      30.213 -24.717 -14.364  0.00  0.00    +0.041 C 
ATOM     23  C   UNL     1      30.605 -22.998 -16.016  0.00  0.00    +0.001 C 
ATOM     24  C   UNL     1      29.750 -23.918 -15.410  0.00  0.00    +0.014 C 
BRANCH  22  25
ATOM     25  N   UNL     1      29.348 -25.648 -13.753  0.00  0.00    -0.357 N 
ATOM     26  H   UNL     1      28.878 -26.317 -14.301  0.00  0.00    +0.142 HD
ATOM     27  H   UNL     1      29.214 -25.628 -12.778  0.00  0.00    +0.142 HD
ENDBRANCH  22  25
ENDBRANCH   5  19
TORSDOF 3
ENDMDL
MODEL 2
REMARK VINA RESULT:     -10.7      2.970      5.895
REMARK  Name = 6419789
REMARK  3 active torsions:
REMARK  status: ('A' for Active; 'I' for Inactive)
REMARK    1  A    between atoms: N_4  and  C_13
REMARK    2  A    between atoms: C_5  and  C_19
REMARK    3  A    between atoms: C_22  and  N_25
REMARK                            x       y       z     vdW  Elec       q    Type
REMARK                         _______ _______ _______ _____ _____    ______ ____
ROOT
ATOM      1  N   UNL     1      36.801 -23.445 -13.710  0.00  0.00    -0.164 N 
ATOM      2  N   UNL     1      34.519 -23.030 -14.345  0.00  0.00    -0.374 NA
ATOM      3  N   UNL     1      38.059 -23.366 -14.216  0.00  0.00    -0.174 NA
ATOM      4  N   UNL     1      32.813 -23.436 -12.817  0.00  0.00    -0.288 N 
ATOM      5  C   UNL     1      36.544 -22.682 -15.773  0.00  0.00    +0.134 C 
ATOM      6  C   UNL     1      35.850 -23.034 -14.638  0.00  0.00    +0.194 C 
ATOM      7  C   UNL     1      37.889 -22.906 -15.456  0.00  0.00    +0.104 C 
ATOM      8  C   UNL     1      34.149 -23.429 -13.149  0.00  0.00    +0.186 C 
ATOM      9  C   UNL     1      36.420 -23.869 -12.444  0.00  0.00    +0.096 C 
ATOM     10  C   UNL     1      35.129 -23.886 -12.101  0.00  0.00    +0.066 C 
ATOM     11  H   UNL     1      32.591 -23.290 -11.869  0.00  0.00    +0.155 HD
ENDROOT
BRANCH   4  13
ATOM     12 CL   UNL     1      28.545 -26.037 -13.979  0.00  0.00    -0.082 Cl
ATOM     13  C   UNL     1      31.743 -23.628 -13.686  0.00  0.00    +0.051 C 
ATOM     14  C   UNL     1      30.783 -24.623 -13.434  0.00  0.00    +0.026 C 
ATOM     15  C   UNL     1      31.600 -22.831 -14.833  0.00  0.00    +0.015 C 
ATOM     16  C   UNL     1      29.711 -24.814 -14.305  0.00  0.00    +0.059 C 
ATOM     17  C   UNL     1      30.528 -23.023 -15.704  0.00  0.00    +0.002 C 
ATOM     18  C   UNL     1      29.583 -24.015 -15.441  0.00  0.00    +0.011 C 
ENDBRANCH   4  13
BRANCH   5  19
ATOM     19  C   UNL     1      35.936 -22.200 -16.977  0.00  0.00    -0.008 C 
ATOM     20  C   UNL     1      34.585 -22.444 -17.229  0.00  0.00    +0.011 C 
ATOM     21  C   UNL     1      36.695 -21.484 -17.906  0.00  0.00    -0.003 C 
ATOM     22  C   UNL     1      33.993 -21.975 -18.402  0.00  0.00    +0.041 C 
ATOM     23  C   UNL     1      36.105 -21.014 -19.080  0.00  0.00    +0.001 C 
ATOM     24  C   UNL     1      34.754 -21.260 -19.328  0.00  0.00    +0.014 C 
BRANCH  22  25
ATOM     25  N   UNL     1      32.628 -22.223 -18.654  0.00  0.00    -0.357 N 
ATOM     26  H   UNL     1      31.964 -22.086 -17.940  0.00  0.00    +0.142 HD
ATOM     27  H   UNL     1      32.340 -22.533 -19.542  0.00  0.00    +0.142 HD
ENDBRANCH  22  25
ENDBRANCH   5  19
TORSDOF 3
ENDMDL
MODEL 3
REMARK VINA RESULT:     -10.7      2.281      5.858
REMARK  Name = 6419789
REMARK  3 active torsions:
REMARK  status: ('A' for Active; 'I' for Inactive)
REMARK    1  A    between atoms: N_4  and  C_13
REMARK    2  A    between atoms: C_5  and  C_19
REMARK    3  A    between atoms: C_22  and  N_25
REMARK                            x       y       z     vdW  Elec       q    Type
REMARK                         _______ _______ _______ _____ _____    ______ ____
ROOT
ATOM      1  N   UNL     1      36.866 -23.123 -14.225  0.00  0.00    -0.164 N 
ATOM      2  N   UNL     1      34.486 -23.013 -14.552  0.00  0.00    -0.374 NA
ATOM      3  N   UNL     1      38.025 -22.899 -14.896  0.00  0.00    -0.174 NA
ATOM      4  N   UNL     1      33.062 -23.593 -12.806  0.00  0.00    -0.288 N 
ATOM      5  C   UNL     1      36.243 -22.450 -16.242  0.00  0.00    +0.134 C 
ATOM      6  C   UNL     1      35.756 -22.857 -15.020  0.00  0.00    +0.194 C 
ATOM      7  C   UNL     1      37.636 -22.495 -16.106  0.00  0.00    +0.104 C 
ATOM      8  C   UNL     1      34.331 -23.426 -13.314  0.00  0.00    +0.186 C 
ATOM      9  C   UNL     1      36.713 -23.560 -12.917  0.00  0.00    +0.096 C 
ATOM     10  C   UNL     1      35.491 -23.731 -12.404  0.00  0.00    +0.066 C 
ATOM     11  H   UNL     1      32.951 -23.453 -11.838  0.00  0.00    +0.155 HD
ENDROOT
BRANCH   4  13
ATOM     12 CL   UNL     1      29.615 -22.349 -16.398  0.00  0.00    -0.082 Cl
ATOM     13  C   UNL     1      31.921 -23.939 -13.521  0.00  0.00    +0.051 C 
ATOM     14  C   UNL     1      31.392 -23.073 -14.493  0.00  0.00    +0.026 C 
ATOM     15  C   UNL     1      31.274 -25.163 -13.287  0.00  0.00    +0.015 C 
ATOM     16  C   UNL     1      30.248 -23.423 -15.211  0.00  0.00    +0.059 C 
ATOM     17  C   UNL     1      30.129 -25.512 -14.005  0.00  0.00    +0.002 C 
ATOM     18  C   UNL     1      29.616 -24.642 -14.966  0.00  0.00    +0.011 C 
ENDBRANCH   4  13
BRANCH   5  19
ATOM     19  C   UNL     1      35.426 -22.078 -17.356  0.00  0.00    -0.008 C 
ATOM     20  C   UNL     1      35.945 -21.271 -18.371  0.00  0.00    +0.011 C 
ATOM     21  C   UNL     1      34.103 -22.521 -17.434  0.00  0.00    -0.003 C 
ATOM     22  C   UNL     1      35.148 -20.908 -19.457  0.00  0.00    +0.041 C 
ATOM     23  C   UNL     1      33.305 -22.158 -18.519  0.00  0.00    +0.001 C 
ATOM     24  C   UNL     1      33.827 -21.352 -19.531  0.00  0.00    +0.014 C 
BRANCH  22  25
ATOM     25  N   UNL     1      35.676 -20.093 -20.480  0.00  0.00    -0.357 N 
ATOM     26  H   UNL     1      36.145 -20.503 -21.242  0.00  0.00    +0.142 HD
ATOM     27  H   UNL     1      35.576 -19.116 -20.430  0.00  0.00    +0.142 HD
ENDBRANCH  22  25
ENDBRANCH   5  19
TORSDOF 3
ENDMDL
MODEL 4
REMARK VINA RESULT:     -10.5      3.222      5.796
REMARK  Name = 6419789
REMARK  3 active torsions:
REMARK  status: ('A' for Active; 'I' for Inactive)
REMARK    1  A    between atoms: N_4  and  C_13
REMARK    2  A    between atoms: C_5  and  C_19
REMARK    3  A    between atoms: C_22  and  N_25
REMARK                            x       y       z     vdW  Elec       q    Type
REMARK                         _______ _______ _______ _____ _____    ______ ____
ROOT
ATOM      1  N   UNL     1      34.944 -22.100 -17.651  0.00  0.00    -0.164 N 
ATOM      2  N   UNL     1      35.337 -22.874 -15.409  0.00  0.00    -0.374 NA
ATOM      3  N   UNL     1      33.935 -21.968 -18.551  0.00  0.00    -0.174 NA
ATOM      4  N   UNL     1      37.482 -22.759 -14.517  0.00  0.00    -0.288 N 
ATOM      5  C   UNL     1      33.146 -22.875 -16.617  0.00  0.00    +0.134 C 
ATOM      6  C   UNL     1      34.495 -22.652 -16.456  0.00  0.00    +0.194 C 
ATOM      7  C   UNL     1      32.861 -22.438 -17.916  0.00  0.00    +0.104 C 
ATOM      8  C   UNL     1      36.602 -22.551 -15.556  0.00  0.00    +0.186 C 
ATOM      9  C   UNL     1      36.279 -21.756 -17.816  0.00  0.00    +0.096 C 
ATOM     10  C   UNL     1      37.151 -21.951 -16.823  0.00  0.00    +0.066 C 
ATOM     11  H   UNL     1      38.247 -22.143 -14.454  0.00  0.00    +0.155 HD
ENDROOT
BRANCH   4  13
ATOM     12 CL   UNL     1      35.773 -24.236  -9.910  0.00  0.00    -0.082 Cl
ATOM     13  C   UNL     1      37.401 -23.754 -13.548  0.00  0.00    +0.051 C 
ATOM     14  C   UNL     1      36.708 -23.530 -12.346  0.00  0.00    +0.026 C 
ATOM     15  C   UNL     1      38.010 -25.003 -13.751  0.00  0.00    +0.015 C 
ATOM     16  C   UNL     1      36.627 -24.529 -11.375  0.00  0.00    +0.059 C 
ATOM     17  C   UNL     1      37.929 -26.001 -12.779  0.00  0.00    +0.002 C 
ATOM     18  C   UNL     1      37.238 -25.764 -11.591  0.00  0.00    +0.011 C 
ENDBRANCH   4  13
BRANCH   5  19
ATOM     19  C   UNL     1      32.293 -23.439 -15.614  0.00  0.00    -0.008 C 
ATOM     20  C   UNL     1      30.908 -23.448 -15.793  0.00  0.00    +0.011 C 
ATOM     21  C   UNL     1      32.845 -23.982 -14.451  0.00  0.00    -0.003 C 
ATOM     22  C   UNL     1      30.078 -23.997 -14.815  0.00  0.00    +0.041 C 
ATOM     23  C   UNL     1      32.015 -24.531 -13.473  0.00  0.00    +0.001 C 
ATOM     24  C   UNL     1      30.633 -24.539 -13.654  0.00  0.00    +0.014 C 
BRANCH  22  25
ATOM     25  N   UNL     1      28.680 -24.005 -14.998  0.00  0.00    -0.357 N 
ATOM     26  H   UNL     1      28.296 -23.730 -15.862  0.00  0.00    +0.142 HD
ATOM     27  H   UNL     1      28.089 -24.283 -14.262  0.00  0.00    +0.142 HD
ENDBRANCH  22  25
ENDBRANCH   5  19
TORSDOF 3
ENDMDL
MODEL 5
REMARK VINA RESULT:     -10.1      2.901      5.746
REMARK  Name = 6419789
REMARK  3 active torsions:
REMARK  status: ('A' for Active; 'I' for Inactive)
REMARK    1  A    between atoms: N_4  and  C_13
REMARK    2  A    between atoms: C_5  and  C_19
REMARK    3  A    between atoms: C_22  and  N_25
REMARK                            x       y       z     vdW  Elec       q    Type
REMARK                         _______ _______ _______ _____ _____    ______ ____
ROOT
ATOM      1  N   UNL     1      35.984 -21.971 -17.415  0.00  0.00    -0.164 N 
ATOM      2  N   UNL     1      34.122 -23.000 -16.294  0.00  0.00    -0.374 NA
ATOM      3  N   UNL     1      37.314 -21.755 -17.250  0.00  0.00    -0.174 NA
ATOM      4  N   UNL     1      32.018 -22.952 -17.287  0.00  0.00    -0.288 N 
ATOM      5  C   UNL     1      36.481 -22.902 -15.467  0.00  0.00    +0.134 C 
ATOM      6  C   UNL     1      35.443 -22.671 -16.341  0.00  0.00    +0.194 C 
ATOM      7  C   UNL     1      37.599 -22.320 -16.076  0.00  0.00    +0.104 C 
ATOM      8  C   UNL     1      33.358 -22.635 -17.299  0.00  0.00    +0.186 C 
ATOM      9  C   UNL     1      35.186 -21.581 -18.481  0.00  0.00    +0.096 C 
ATOM     10  C   UNL     1      33.882 -21.875 -18.489  0.00  0.00    +0.066 C 
ATOM     11  H   UNL     1      31.588 -23.090 -18.161  0.00  0.00    +0.155 HD
ENDROOT
BRANCH   4  13
ATOM     12 CL   UNL     1      27.385 -22.431 -15.144  0.00  0.00    -0.082 Cl
ATOM     13  C   UNL     1      31.211 -23.097 -16.163  0.00  0.00    +0.051 C 
ATOM     14  C   UNL     1      29.854 -22.734 -16.203  0.00  0.00    +0.026 C 
ATOM     15  C   UNL     1      31.735 -23.610 -14.966  0.00  0.00    +0.015 C 
ATOM     16  C   UNL     1      29.045 -22.881 -15.076  0.00  0.00    +0.059 C 
ATOM     17  C   UNL     1      30.926 -23.756 -13.839  0.00  0.00    +0.002 C 
ATOM     18  C   UNL     1      29.581 -23.391 -13.893  0.00  0.00    +0.011 C 
ENDBRANCH   4  13
BRANCH   5  19
ATOM     19  C   UNL     1      36.353 -23.599 -14.223  0.00  0.00    -0.008 C 
ATOM     20  C   UNL     1      36.822 -24.909 -14.100  0.00  0.00    +0.011 C 
ATOM     21  C   UNL     1      35.757 -22.971 -13.127  0.00  0.00    -0.003 C 
ATOM     22  C   UNL     1      36.696 -25.588 -12.887  0.00  0.00    +0.041 C 
ATOM     23  C   UNL     1      35.630 -23.649 -11.914  0.00  0.00    +0.001 C 
ATOM     24  C   UNL     1      36.100 -24.957 -11.794  0.00  0.00    +0.014 C 
BRANCH  22  25
ATOM     25  N   UNL     1      37.170 -26.910 -12.766  0.00  0.00    -0.357 N 
ATOM     26  H   UNL     1      36.656 -27.571 -12.247  0.00  0.00    +0.142 HD
ATOM     27  H   UNL     1      38.014 -27.172 -13.199  0.00  0.00    +0.142 HD
ENDBRANCH  22  25
ENDBRANCH   5  19
TORSDOF 3
ENDMDL
MODEL 6
REMARK VINA RESULT:     -10.1      3.097      6.910
REMARK  Name = 6419789
REMARK  3 active torsions:
REMARK  status: ('A' for Active; 'I' for Inactive)
REMARK    1  A    between atoms: N_4  and  C_13
REMARK    2  A    between atoms: C_5  and  C_19
REMARK    3  A    between atoms: C_22  and  N_25
REMARK                            x       y       z     vdW  Elec       q    Type
REMARK                         _______ _______ _______ _____ _____    ______ ____
ROOT
ATOM      1  N   UNL     1      31.480 -23.666 -14.975  0.00  0.00    -0.164 N 
ATOM      2  N   UNL     1      33.792 -23.941 -14.375  0.00  0.00    -0.374 NA
ATOM      3  N   UNL     1      30.712 -23.139 -15.964  0.00  0.00    -0.174 NA
ATOM      4  N   UNL     1      34.339 -25.026 -12.391  0.00  0.00    -0.288 N 
ATOM      5  C   UNL     1      32.918 -22.825 -16.436  0.00  0.00    +0.134 C 
ATOM      6  C   UNL     1      32.836 -23.490 -15.233  0.00  0.00    +0.194 C 
ATOM      7  C   UNL     1      31.589 -22.638 -16.834  0.00  0.00    +0.104 C 
ATOM      8  C   UNL     1      33.400 -24.555 -13.281  0.00  0.00    +0.186 C 
ATOM      9  C   UNL     1      31.056 -24.312 -13.822  0.00  0.00    +0.096 C 
ATOM     10  C   UNL     1      31.949 -24.775 -12.944  0.00  0.00    +0.066 C 
ATOM     11  H   UNL     1      34.092 -25.823 -11.867  0.00  0.00    +0.155 HD
ENDROOT
BRANCH   4  13
ATOM     12 CL   UNL     1      39.396 -25.236 -13.230  0.00  0.00    -0.082 Cl
ATOM     13  C   UNL     1      35.601 -24.491 -12.155  0.00  0.00    +0.051 C 
ATOM     14  C   UNL     1      36.744 -25.062 -12.740  0.00  0.00    +0.026 C 
ATOM     15  C   UNL     1      35.759 -23.368 -11.327  0.00  0.00    +0.015 C 
ATOM     16  C   UNL     1      38.009 -24.523 -12.504  0.00  0.00    +0.059 C 
ATOM     17  C   UNL     1      37.024 -22.830 -11.090  0.00  0.00    +0.002 C 
ATOM     18  C   UNL     1      38.149 -23.407 -11.678  0.00  0.00    +0.011 C 
ENDBRANCH   4  13
BRANCH   5  19
ATOM     19  C   UNL     1      34.144 -22.445 -17.069  0.00  0.00    -0.008 C 
ATOM     20  C   UNL     1      35.323 -22.362 -16.325  0.00  0.00    +0.011 C 
ATOM     21  C   UNL     1      34.167 -22.155 -18.436  0.00  0.00    -0.003 C 
ATOM     22  C   UNL     1      36.518 -21.992 -16.943  0.00  0.00    +0.041 C 
ATOM     23  C   UNL     1      35.361 -21.785 -19.054  0.00  0.00    +0.001 C 
ATOM     24  C   UNL     1      36.536 -21.703 -18.308  0.00  0.00    +0.014 C 
BRANCH  22  25
ATOM     25  N   UNL     1      37.707 -21.909 -16.189  0.00  0.00    -0.357 N 
ATOM     26  H   UNL     1      37.741 -22.286 -15.281  0.00  0.00    +0.142 HD
ATOM     27  H   UNL     1      38.502 -21.473 -16.571  0.00  0.00    +0.142 HD
ENDBRANCH  22  25
ENDBRANCH   5  19
TORSDOF 3
ENDMDL
MODEL 7
REMARK VINA RESULT:     -10.0      2.515      6.472
REMARK  Name = 6419789
REMARK  3 active torsions:
REMARK  status: ('A' for Active; 'I' for Inactive)
REMARK    1  A    between atoms: N_4  and  C_13
REMARK    2  A    between atoms: C_5  and  C_19
REMARK    3  A    between atoms: C_22  and  N_25
REMARK                            x       y       z     vdW  Elec       q    Type
REMARK                         _______ _______ _______ _____ _____    ______ ____
ROOT
ATOM      1  N   UNL     1      30.418 -23.778 -14.726  0.00  0.00    -0.164 N 
ATOM      2  N   UNL     1      32.810 -23.867 -14.497  0.00  0.00    -0.374 NA
ATOM      3  N   UNL     1      29.465 -23.342 -15.590  0.00  0.00    -0.174 NA
ATOM      4  N   UNL     1      33.744 -24.842 -12.602  0.00  0.00    -0.288 N 
ATOM      5  C   UNL     1      31.538 -22.886 -16.416  0.00  0.00    +0.134 C 
ATOM      6  C   UNL     1      31.698 -23.515 -15.201  0.00  0.00    +0.194 C 
ATOM      7  C   UNL     1      30.153 -22.809 -16.600  0.00  0.00    +0.104 C 
ATOM      8  C   UNL     1      32.643 -24.469 -13.341  0.00  0.00    +0.186 C 
ATOM      9  C   UNL     1      30.231 -24.413 -13.506  0.00  0.00    +0.096 C 
ATOM     10  C   UNL     1      31.284 -24.781 -12.771  0.00  0.00    +0.066 C 
ATOM     11  H   UNL     1      33.644 -25.636 -12.029  0.00  0.00    +0.155 HD
ENDROOT
BRANCH   4  13
ATOM     12 CL   UNL     1      37.779 -23.064 -15.226  0.00  0.00    -0.082 Cl
ATOM     13  C   UNL     1      34.983 -24.210 -12.583  0.00  0.00    +0.051 C 
ATOM     14  C   UNL     1      35.688 -23.977 -13.776  0.00  0.00    +0.026 C 
ATOM     15  C   UNL     1      35.554 -23.791 -11.371  0.00  0.00    +0.015 C 
ATOM     16  C   UNL     1      36.930 -23.341 -13.755  0.00  0.00    +0.059 C 
ATOM     17  C   UNL     1      36.796 -23.157 -11.351  0.00  0.00    +0.002 C 
ATOM     18  C   UNL     1      37.485 -22.932 -12.543  0.00  0.00    +0.011 C 
ENDBRANCH   4  13
BRANCH   5  19
ATOM     19  C   UNL     1      32.617 -22.442 -17.246  0.00  0.00    -0.008 C 
ATOM     20  C   UNL     1      32.368 -21.595 -18.328  0.00  0.00    +0.011 C 
ATOM     21  C   UNL     1      33.925 -22.853 -16.975  0.00  0.00    -0.003 C 
ATOM     22  C   UNL     1      33.420 -21.162 -19.137  0.00  0.00    +0.041 C 
ATOM     23  C   UNL     1      34.976 -22.421 -17.783  0.00  0.00    +0.001 C 
ATOM     24  C   UNL     1      34.724 -21.576 -18.864  0.00  0.00    +0.014 C 
BRANCH  22  25
ATOM     25  N   UNL     1      33.165 -20.308 -20.229  0.00  0.00    -0.357 N 
ATOM     26  H   UNL     1      33.177 -20.666 -21.146  0.00  0.00    +0.142 HD
ATOM     27  H   UNL     1      32.978 -19.355 -20.075  0.00  0.00    +0.142 HD
ENDBRANCH  22  25
ENDBRANCH   5  19
TORSDOF 3
ENDMDL
MODEL 8
REMARK VINA RESULT:      -9.7      3.048      5.502
REMARK  Name = 6419789
REMARK  3 active torsions:
REMARK  status: ('A' for Active; 'I' for Inactive)
REMARK    1  A    between atoms: N_4  and  C_13
REMARK    2  A    between atoms: C_5  and  C_19
REMARK    3  A    between atoms: C_22  and  N_25
REMARK                            x       y       z     vdW  Elec       q    Type
REMARK                         _______ _______ _______ _____ _____    ______ ____
ROOT
ATOM      1  N   UNL     1      34.396 -21.967 -18.256  0.00  0.00    -0.164 N 
ATOM      2  N   UNL     1      35.376 -22.642 -16.167  0.00  0.00    -0.374 NA
ATOM      3  N   UNL     1      33.190 -21.916 -18.878  0.00  0.00    -0.174 NA
ATOM      4  N   UNL     1      37.666 -22.394 -15.842  0.00  0.00    -0.288 N 
ATOM      5  C   UNL     1      32.957 -22.790 -16.788  0.00  0.00    +0.134 C 
ATOM      6  C   UNL     1      34.289 -22.497 -16.975  0.00  0.00    +0.194 C 
ATOM      7  C   UNL     1      32.335 -22.413 -17.984  0.00  0.00    +0.104 C 
ATOM      8  C   UNL     1      36.545 -22.265 -16.632  0.00  0.00    +0.186 C 
ATOM      9  C   UNL     1      35.627 -21.566 -18.757  0.00  0.00    +0.096 C 
ATOM     10  C   UNL     1      36.728 -21.685 -18.009  0.00  0.00    +0.066 C 
ATOM     11  H   UNL     1      38.388 -21.740 -15.986  0.00  0.00    +0.155 HD
ENDROOT
BRANCH   4  13
ATOM     12 CL   UNL     1      40.545 -26.257 -14.075  0.00  0.00    -0.082 Cl
ATOM     13  C   UNL     1      37.883 -23.357 -14.861  0.00  0.00    +0.051 C 
ATOM     14  C   UNL     1      38.979 -24.231 -14.943  0.00  0.00    +0.026 C 
ATOM     15  C   UNL     1      37.010 -23.473 -13.767  0.00  0.00    +0.015 C 
ATOM     16  C   UNL     1      39.196 -25.195 -13.958  0.00  0.00    +0.059 C 
ATOM     17  C   UNL     1      37.227 -24.437 -12.783  0.00  0.00    +0.002 C 
ATOM     18  C   UNL     1      38.319 -25.298 -12.878  0.00  0.00    +0.011 C 
ENDBRANCH   4  13
BRANCH   5  19
ATOM     19  C   UNL     1      32.413 -23.358 -15.591  0.00  0.00    -0.008 C 
ATOM     20  C   UNL     1      33.262 -23.825 -14.586  0.00  0.00    +0.011 C 
ATOM     21  C   UNL     1      31.028 -23.447 -15.425  0.00  0.00    -0.003 C 
ATOM     22  C   UNL     1      32.731 -24.378 -13.420  0.00  0.00    +0.041 C 
ATOM     23  C   UNL     1      30.497 -24.001 -14.260  0.00  0.00    +0.001 C 
ATOM     24  C   UNL     1      31.348 -24.466 -13.258  0.00  0.00    +0.014 C 
BRANCH  22  25
ATOM     25  N   UNL     1      33.591 -24.849 -12.406  0.00  0.00    -0.357 N 
ATOM     26  H   UNL     1      34.430 -25.305 -12.646  0.00  0.00    +0.142 HD
ATOM     27  H   UNL     1      33.351 -24.724 -11.460  0.00  0.00    +0.142 HD
ENDBRANCH  22  25
ENDBRANCH   5  19
TORSDOF 3
ENDMDL
MODEL 9
REMARK VINA RESULT:      -9.6     11.767     15.165
REMARK  Name = 6419789
REMARK  3 active torsions:
REMARK  status: ('A' for Active; 'I' for Inactive)
REMARK    1  A    between atoms: N_4  and  C_13
REMARK    2  A    between atoms: C_5  and  C_19
REMARK    3  A    between atoms: C_22  and  N_25
REMARK                            x       y       z     vdW  Elec       q    Type
REMARK                         _______ _______ _______ _____ _____    ______ ____
ROOT
ATOM      1  N   UNL     1      31.973 -11.436 -20.086  0.00  0.00    -0.164 N 
ATOM      2  N   UNL     1      32.578  -9.650 -21.577  0.00  0.00    -0.374 NA
ATOM      3  N   UNL     1      31.927 -12.793 -20.043  0.00  0.00    -0.174 NA
ATOM      4  N   UNL     1      32.362  -7.444 -20.869  0.00  0.00    -0.288 N 
ATOM      5  C   UNL     1      32.709 -12.099 -22.067  0.00  0.00    +0.134 C 
ATOM      6  C   UNL     1      32.447 -10.979 -21.311  0.00  0.00    +0.194 C 
ATOM      7  C   UNL     1      32.372 -13.177 -21.240  0.00  0.00    +0.104 C 
ATOM      8  C   UNL     1      32.241  -8.796 -20.637  0.00  0.00    +0.186 C 
ATOM      9  C   UNL     1      31.613 -10.542 -19.087  0.00  0.00    +0.096 C 
ATOM     10  C   UNL     1      31.720  -9.226 -19.291  0.00  0.00    +0.066 C 
ATOM     11  H   UNL     1      32.548  -6.875 -20.088  0.00  0.00    +0.155 HD
ENDROOT
BRANCH   4  13
ATOM     12 CL   UNL     1      34.661  -4.987 -24.743  0.00  0.00    -0.082 Cl
ATOM     13  C   UNL     1      32.247  -6.800 -22.097  0.00  0.00    +0.051 C 
ATOM     14  C   UNL     1      33.379  -6.271 -22.739  0.00  0.00    +0.026 C 
ATOM     15  C   UNL     1      30.996  -6.665 -22.720  0.00  0.00    +0.015 C 
ATOM     16  C   UNL     1      33.263  -5.627 -23.971  0.00  0.00    +0.059 C 
ATOM     17  C   UNL     1      30.880  -6.019 -23.951  0.00  0.00    +0.002 C 
ATOM     18  C   UNL     1      32.013  -5.500 -24.577  0.00  0.00    +0.011 C 
ENDBRANCH   4  13
BRANCH   5  19
ATOM     19  C   UNL     1      33.216 -12.073 -23.405  0.00  0.00    -0.008 C 
ATOM     20  C   UNL     1      34.096 -11.064 -23.804  0.00  0.00    +0.011 C 
ATOM     21  C   UNL     1      32.833 -13.057 -24.319  0.00  0.00    -0.003 C 
ATOM     22  C   UNL     1      34.590 -11.038 -25.108  0.00  0.00    +0.041 C 
ATOM     23  C   UNL     1      33.326 -13.032 -25.624  0.00  0.00    +0.001 C 
ATOM     24  C   UNL     1      34.204 -12.023 -26.019  0.00  0.00    +0.014 C 
BRANCH  22  25
ATOM     25  N   UNL     1      35.478 -10.018 -25.508  0.00  0.00    -0.357 N 
ATOM     26  H   UNL     1      35.576  -9.798 -26.462  0.00  0.00    +0.142 HD
ATOM     27  H   UNL     1      35.999  -9.528 -24.832  0.00  0.00    +0.142 HD
ENDBRANCH  22  25
ENDBRANCH   5  19
TORSDOF 3
ENDMDL
