MODEL 1
REMARK VINA RESULT:     -12.0      0.000      0.000
REMARK  Name = 5288712
REMARK  5 active torsions:
REMARK  status: ('A' for Active; 'I' for Inactive)
REMARK    1  A    between atoms: C_1  and  N_18
REMARK    2  A    between atoms: C_2  and  S_7
REMARK    3  A    between atoms: S_7  and  N_10
REMARK    4  A    between atoms: N_10  and  C_13
REMARK    5  A    between atoms: N_18  and  C_26
REMARK                            x       y       z     vdW  Elec       q    Type
REMARK                         _______ _______ _______ _____ _____    ______ ____
ROOT
ATOM      1  C   UNL     1      35.673 -19.498 -20.496  0.00  0.00    +0.048 C 
ATOM      2  C   UNL     1      34.456 -21.520 -18.998  0.00  0.00    +0.129 C 
ATOM      3  C   UNL     1      36.450 -20.368 -19.728  0.00  0.00    +0.016 C 
ATOM      4  C   UNL     1      34.282 -19.645 -20.511  0.00  0.00    +0.016 C 
ATOM      5  C   UNL     1      35.843 -21.378 -18.981  0.00  0.00    +0.022 C 
ATOM      6  C   UNL     1      33.675 -20.653 -19.763  0.00  0.00    +0.022 C 
ENDROOT
BRANCH   2   7
ATOM      7  S   UNL     1      33.695 -22.782 -18.062  0.00  0.00    +0.103 S 
ATOM      8  O   UNL     1      33.843 -24.034 -18.797  0.00  0.00    -0.146 OA
ATOM      9  O   UNL     1      32.359 -22.297 -17.736  0.00  0.00    -0.146 OA
BRANCH   7  10
ATOM     10  N   UNL     1      34.603 -22.869 -16.703  0.00  0.00    -0.093 NA
BRANCH  10  13
ATOM     11  N   UNL     1      32.830 -23.595 -15.251  0.00  0.00    -0.369 N 
ATOM     12  N   UNL     1      34.768 -22.760 -14.382  0.00  0.00    -0.369 N 
ATOM     13  C   UNL     1      34.074 -23.073 -15.525  0.00  0.00    +0.212 C 
ATOM     14  H   UNL     1      32.234 -23.860 -15.988  0.00  0.00    +0.159 HD
ATOM     15  H   UNL     1      32.538 -23.703 -14.317  0.00  0.00    +0.159 HD
ATOM     16  H   UNL     1      35.674 -22.378 -14.444  0.00  0.00    +0.159 HD
ATOM     17  H   UNL     1      34.360 -22.917 -13.500  0.00  0.00    +0.159 HD
ENDBRANCH  10  13
ENDBRANCH   7  10
ENDBRANCH   2   7
BRANCH   1  18
ATOM     18  N   UNL     1      36.284 -18.482 -21.250  0.00  0.00    -0.311 N 
ATOM     19  H   UNL     1      37.207 -18.257 -20.992  0.00  0.00    +0.152 HD
BRANCH  18  26
ATOM     20  O   UNL     1      35.265 -16.155 -19.852  0.00  0.00    -0.270 OA
ATOM     21  N   UNL     1      34.276 -14.658 -21.389  0.00  0.00    -0.280 N 
ATOM     22  C   UNL     1      34.607 -15.811 -23.351  0.00  0.00    +0.019 C 
ATOM     23  C   UNL     1      35.162 -16.586 -22.246  0.00  0.00    +0.069 C 
ATOM     24  C   UNL     1      34.083 -14.650 -22.775  0.00  0.00    +0.051 C 
ATOM     25  C   UNL     1      34.937 -15.819 -20.975  0.00  0.00    +0.251 C 
ATOM     26  C   UNL     1      35.772 -17.771 -22.286  0.00  0.00    +0.066 C 
ATOM     27  C   UNL     1      34.528 -16.020 -24.714  0.00  0.00    +0.001 C 
ATOM     28  C   UNL     1      33.468 -13.666 -23.523  0.00  0.00    +0.015 C 
ATOM     29  C   UNL     1      33.909 -15.035 -25.492  0.00  0.00    +0.000 C 
ATOM     30  C   UNL     1      33.384 -13.870 -24.903  0.00  0.00    +0.001 C 
ATOM     31  H   UNL     1      33.985 -13.938 -20.783  0.00  0.00    +0.155 HD
ENDBRANCH  18  26
ENDBRANCH   1  18
TORSDOF 5
ENDMDL
MODEL 2
REMARK VINA RESULT:     -11.8      1.388      1.777
REMARK  Name = 5288712
REMARK  5 active torsions:
REMARK  status: ('A' for Active; 'I' for Inactive)
REMARK    1  A    between atoms: C_1  and  N_18
REMARK    2  A    between atoms: C_2  and  S_7
REMARK    3  A    between atoms: S_7  and  N_10
REMARK    4  A    between atoms: N_10  and  C_13
REMARK    5  A    between atoms: N_18  and  C_26
REMARK                            x       y       z     vdW  Elec       q    Type
REMARK                         _______ _______ _______ _____ _____    ______ ____
ROOT
ATOM      1  C   UNL     1      35.558 -19.541 -20.587  0.00  0.00    +0.048 C 
ATOM      2  C   UNL     1      34.389 -21.530 -19.008  0.00  0.00    +0.129 C 
ATOM      3  C   UNL     1      36.360 -20.403 -19.835  0.00  0.00    +0.016 C 
ATOM      4  C   UNL     1      34.167 -19.680 -20.545  0.00  0.00    +0.016 C 
ATOM      5  C   UNL     1      35.777 -21.395 -19.047  0.00  0.00    +0.022 C 
ATOM      6  C   UNL     1      33.584 -20.672 -19.757  0.00  0.00    +0.022 C 
ENDROOT
BRANCH   2   7
ATOM      7  S   UNL     1      33.659 -22.771 -18.021  0.00  0.00    +0.103 S 
ATOM      8  O   UNL     1      33.783 -24.038 -18.734  0.00  0.00    -0.146 OA
ATOM      9  O   UNL     1      32.334 -22.278 -17.663  0.00  0.00    -0.146 OA
BRANCH   7  10
ATOM     10  N   UNL     1      34.611 -22.830 -16.690  0.00  0.00    -0.093 NA
BRANCH  10  13
ATOM     11  N   UNL     1      32.919 -23.645 -15.190  0.00  0.00    -0.369 N 
ATOM     12  N   UNL     1      34.831 -22.703 -14.375  0.00  0.00    -0.369 N 
ATOM     13  C   UNL     1      34.125 -23.057 -15.498  0.00  0.00    +0.212 C 
ATOM     14  H   UNL     1      32.318 -23.944 -15.909  0.00  0.00    +0.159 HD
ATOM     15  H   UNL     1      32.658 -23.764 -14.248  0.00  0.00    +0.159 HD
ATOM     16  H   UNL     1      35.714 -22.273 -14.463  0.00  0.00    +0.159 HD
ATOM     17  H   UNL     1      34.457 -22.879 -13.482  0.00  0.00    +0.159 HD
ENDBRANCH  10  13
ENDBRANCH   7  10
ENDBRANCH   2   7
BRANCH   1  18
ATOM     18  N   UNL     1      36.144 -18.542 -21.382  0.00  0.00    -0.311 N 
ATOM     19  H   UNL     1      36.969 -18.802 -21.853  0.00  0.00    +0.152 HD
BRANCH  18  26
ATOM     20  O   UNL     1      34.824 -18.819 -23.948  0.00  0.00    -0.270 OA
ATOM     21  N   UNL     1      33.948 -16.735 -24.635  0.00  0.00    -0.280 N 
ATOM     22  C   UNL     1      34.590 -15.420 -22.861  0.00  0.00    +0.019 C 
ATOM     23  C   UNL     1      35.045 -16.785 -22.628  0.00  0.00    +0.069 C 
ATOM     24  C   UNL     1      33.929 -15.445 -24.094  0.00  0.00    +0.051 C 
ATOM     25  C   UNL     1      34.619 -17.629 -23.794  0.00  0.00    +0.251 C 
ATOM     26  C   UNL     1      35.726 -17.268 -21.587  0.00  0.00    +0.066 C 
ATOM     27  C   UNL     1      34.696 -14.244 -22.142  0.00  0.00    +0.001 C 
ATOM     28  C   UNL     1      33.357 -14.318 -24.649  0.00  0.00    +0.015 C 
ATOM     29  C   UNL     1      34.123 -13.090 -22.687  0.00  0.00    +0.000 C 
ATOM     30  C   UNL     1      33.460 -13.126 -23.928  0.00  0.00    +0.001 C 
ATOM     31  H   UNL     1      33.541 -16.982 -25.498  0.00  0.00    +0.155 HD
ENDBRANCH  18  26
ENDBRANCH   1  18
TORSDOF 5
ENDMDL
MODEL 3
REMARK VINA RESULT:     -11.5      2.608      9.272
REMARK  Name = 5288712
REMARK  5 active torsions:
REMARK  status: ('A' for Active; 'I' for Inactive)
REMARK    1  A    between atoms: C_1  and  N_18
REMARK    2  A    between atoms: C_2  and  S_7
REMARK    3  A    between atoms: S_7  and  N_10
REMARK    4  A    between atoms: N_10  and  C_13
REMARK    5  A    between atoms: N_18  and  C_26
REMARK                            x       y       z     vdW  Elec       q    Type
REMARK                         _______ _______ _______ _____ _____    ______ ____
ROOT
ATOM      1  C   UNL     1      34.468 -21.741 -19.128  0.00  0.00    +0.048 C 
ATOM      2  C   UNL     1      35.270 -19.443 -20.502  0.00  0.00    +0.129 C 
ATOM      3  C   UNL     1      35.822 -21.407 -19.209  0.00  0.00    +0.016 C 
ATOM      4  C   UNL     1      33.516 -20.919 -19.738  0.00  0.00    +0.016 C 
ATOM      5  C   UNL     1      36.222 -20.260 -19.894  0.00  0.00    +0.022 C 
ATOM      6  C   UNL     1      33.916 -19.772 -20.425  0.00  0.00    +0.022 C 
ENDROOT
BRANCH   2   7
ATOM      7  S   UNL     1      35.770 -18.008 -21.362  0.00  0.00    +0.103 S 
ATOM      8  O   UNL     1      37.160 -18.191 -21.764  0.00  0.00    -0.146 OA
ATOM      9  O   UNL     1      35.414 -16.880 -20.509  0.00  0.00    -0.146 OA
BRANCH   7  10
ATOM     10  N   UNL     1      34.837 -18.007 -22.707  0.00  0.00    -0.093 NA
BRANCH  10  13
ATOM     11  N   UNL     1      34.056 -16.875 -24.679  0.00  0.00    -0.369 N 
ATOM     12  N   UNL     1      35.626 -15.907 -23.335  0.00  0.00    -0.369 N 
ATOM     13  C   UNL     1      34.821 -17.001 -23.541  0.00  0.00    +0.212 C 
ATOM     14  H   UNL     1      33.437 -17.595 -24.938  0.00  0.00    +0.159 HD
ATOM     15  H   UNL     1      34.131 -16.066 -25.233  0.00  0.00    +0.159 HD
ATOM     16  H   UNL     1      36.222 -15.875 -22.551  0.00  0.00    +0.159 HD
ATOM     17  H   UNL     1      35.607 -15.155 -23.969  0.00  0.00    +0.159 HD
ENDBRANCH  10  13
ENDBRANCH   7  10
ENDBRANCH   2   7
BRANCH   1  18
ATOM     18  N   UNL     1      34.064 -22.896 -18.436  0.00  0.00    -0.311 N 
ATOM     19  H   UNL     1      34.565 -23.716 -18.649  0.00  0.00    +0.152 HD
BRANCH  18  26
ATOM     20  O   UNL     1      35.624 -22.997 -15.994  0.00  0.00    -0.270 OA
ATOM     21  N   UNL     1      34.192 -23.233 -14.130  0.00  0.00    -0.280 N 
ATOM     22  C   UNL     1      32.150 -23.273 -15.188  0.00  0.00    +0.019 C 
ATOM     23  C   UNL     1      33.201 -23.128 -16.190  0.00  0.00    +0.069 C 
ATOM     24  C   UNL     1      32.807 -23.331 -13.955  0.00  0.00    +0.051 C 
ATOM     25  C   UNL     1      34.524 -23.104 -15.482  0.00  0.00    +0.251 C 
ATOM     26  C   UNL     1      33.078 -23.030 -17.514  0.00  0.00    +0.066 C 
ATOM     27  C   UNL     1      30.772 -23.353 -15.258  0.00  0.00    +0.001 C 
ATOM     28  C   UNL     1      32.127 -23.469 -12.761  0.00  0.00    +0.015 C 
ATOM     29  C   UNL     1      30.063 -23.492 -14.060  0.00  0.00    +0.000 C 
ATOM     30  C   UNL     1      30.734 -23.550 -12.824  0.00  0.00    +0.001 C 
ATOM     31  H   UNL     1      34.847 -23.251 -13.395  0.00  0.00    +0.155 HD
ENDBRANCH  18  26
ENDBRANCH   1  18
TORSDOF 5
ENDMDL
MODEL 4
REMARK VINA RESULT:     -10.7      6.195     10.361
REMARK  Name = 5288712
REMARK  5 active torsions:
REMARK  status: ('A' for Active; 'I' for Inactive)
REMARK    1  A    between atoms: C_1  and  N_18
REMARK    2  A    between atoms: C_2  and  S_7
REMARK    3  A    between atoms: S_7  and  N_10
REMARK    4  A    between atoms: N_10  and  C_13
REMARK    5  A    between atoms: N_18  and  C_26
REMARK                            x       y       z     vdW  Elec       q    Type
REMARK                         _______ _______ _______ _____ _____    ______ ____
ROOT
ATOM      1  C   UNL     1      33.831 -12.212 -23.486  0.00  0.00    +0.048 C 
ATOM      2  C   UNL     1      32.987  -9.654 -22.741  0.00  0.00    +0.129 C 
ATOM      3  C   UNL     1      32.891 -12.053 -22.465  0.00  0.00    +0.016 C 
ATOM      4  C   UNL     1      34.347 -11.085 -24.134  0.00  0.00    +0.016 C 
ATOM      5  C   UNL     1      32.470 -10.776 -22.093  0.00  0.00    +0.022 C 
ATOM      6  C   UNL     1      33.926  -9.809 -23.761  0.00  0.00    +0.022 C 
ENDROOT
BRANCH   2   7
ATOM      7  S   UNL     1      32.460  -8.056 -22.275  0.00  0.00    +0.103 S 
ATOM      8  O   UNL     1      31.365  -7.672 -23.158  0.00  0.00    -0.146 OA
ATOM      9  O   UNL     1      33.662  -7.231 -22.224  0.00  0.00    -0.146 OA
BRANCH   7  10
ATOM     10  N   UNL     1      31.861  -8.262 -20.765  0.00  0.00    -0.093 NA
BRANCH  10  13
ATOM     11  N   UNL     1      33.500  -7.203 -19.361  0.00  0.00    -0.369 N 
ATOM     12  N   UNL     1      32.598  -9.215 -18.772  0.00  0.00    -0.369 N 
ATOM     13  C   UNL     1      32.620  -8.205 -19.703  0.00  0.00    +0.212 C 
ATOM     14  H   UNL     1      33.608  -6.421 -19.948  0.00  0.00    +0.159 HD
ATOM     15  H   UNL     1      34.022  -7.271 -18.529  0.00  0.00    +0.159 HD
ATOM     16  H   UNL     1      32.006  -9.992 -18.902  0.00  0.00    +0.159 HD
ATOM     17  H   UNL     1      33.173  -9.163 -17.975  0.00  0.00    +0.159 HD
ENDBRANCH  10  13
ENDBRANCH   7  10
ENDBRANCH   2   7
BRANCH   1  18
ATOM     18  N   UNL     1      34.255 -13.498 -23.862  0.00  0.00    -0.311 N 
ATOM     19  H   UNL     1      34.317 -13.660 -24.831  0.00  0.00    +0.152 HD
BRANCH  18  26
ATOM     20  O   UNL     1      33.693 -15.719 -25.639  0.00  0.00    -0.270 OA
ATOM     21  N   UNL     1      34.178 -17.763 -24.557  0.00  0.00    -0.280 N 
ATOM     22  C   UNL     1      34.897 -16.982 -22.517  0.00  0.00    +0.019 C 
ATOM     23  C   UNL     1      34.540 -15.846 -23.360  0.00  0.00    +0.069 C 
ATOM     24  C   UNL     1      34.659 -18.121 -23.293  0.00  0.00    +0.051 C 
ATOM     25  C   UNL     1      34.073 -16.374 -24.686  0.00  0.00    +0.251 C 
ATOM     26  C   UNL     1      34.592 -14.546 -23.068  0.00  0.00    +0.066 C 
ATOM     27  C   UNL     1      35.376 -17.095 -21.226  0.00  0.00    +0.001 C 
ATOM     28  C   UNL     1      34.886 -19.398 -22.820  0.00  0.00    +0.015 C 
ATOM     29  C   UNL     1      35.614 -18.380 -20.727  0.00  0.00    +0.000 C 
ATOM     30  C   UNL     1      35.371 -19.520 -21.516  0.00  0.00    +0.001 C 
ATOM     31  H   UNL     1      33.944 -18.406 -25.265  0.00  0.00    +0.155 HD
ENDBRANCH  18  26
ENDBRANCH   1  18
TORSDOF 5
ENDMDL
MODEL 5
REMARK VINA RESULT:     -10.7      3.984      9.340
REMARK  Name = 5288712
REMARK  5 active torsions:
REMARK  status: ('A' for Active; 'I' for Inactive)
REMARK    1  A    between atoms: C_1  and  N_18
REMARK    2  A    between atoms: C_2  and  S_7
REMARK    3  A    between atoms: S_7  and  N_10
REMARK    4  A    between atoms: N_10  and  C_13
REMARK    5  A    between atoms: N_18  and  C_26
REMARK                            x       y       z     vdW  Elec       q    Type
REMARK                         _______ _______ _______ _____ _____    ______ ____
ROOT
ATOM      1  C   UNL     1      35.024 -16.064 -22.584  0.00  0.00    +0.048 C 
ATOM      2  C   UNL     1      34.202 -13.471 -23.227  0.00  0.00    +0.129 C 
ATOM      3  C   UNL     1      34.961 -15.081 -21.593  0.00  0.00    +0.016 C 
ATOM      4  C   UNL     1      34.673 -15.743 -23.899  0.00  0.00    +0.016 C 
ATOM      5  C   UNL     1      34.551 -13.787 -21.914  0.00  0.00    +0.022 C 
ATOM      6  C   UNL     1      34.263 -14.449 -24.220  0.00  0.00    +0.022 C 
ENDROOT
BRANCH   2   7
ATOM      7  S   UNL     1      33.689 -11.851 -23.629  0.00  0.00    +0.103 S 
ATOM      8  O   UNL     1      32.891 -11.926 -24.848  0.00  0.00    -0.146 OA
ATOM      9  O   UNL     1      34.893 -11.028 -23.611  0.00  0.00    -0.146 OA
BRANCH   7  10
ATOM     10  N   UNL     1      32.706 -11.429 -22.391  0.00  0.00    -0.093 NA
BRANCH  10  13
ATOM     11  N   UNL     1      31.906  -9.661 -20.972  0.00  0.00    -0.369 N 
ATOM     12  N   UNL     1      32.509  -9.228 -23.130  0.00  0.00    -0.369 N 
ATOM     13  C   UNL     1      32.385 -10.185 -22.152  0.00  0.00    +0.212 C 
ATOM     14  H   UNL     1      31.771 -10.245 -20.192  0.00  0.00    +0.159 HD
ATOM     15  H   UNL     1      31.697  -8.701 -20.910  0.00  0.00    +0.159 HD
ATOM     16  H   UNL     1      32.844  -9.478 -24.023  0.00  0.00    +0.159 HD
ATOM     17  H   UNL     1      32.266  -8.294 -22.940  0.00  0.00    +0.159 HD
ENDBRANCH  10  13
ENDBRANCH   7  10
ENDBRANCH   2   7
BRANCH   1  18
ATOM     18  N   UNL     1      35.436 -17.368 -22.262  0.00  0.00    -0.311 N 
ATOM     19  H   UNL     1      36.324 -17.629 -22.597  0.00  0.00    +0.152 HD
BRANCH  18  26
ATOM     20  O   UNL     1      37.644 -18.630 -20.868  0.00  0.00    -0.270 OA
ATOM     21  N   UNL     1      36.840 -20.375 -19.493  0.00  0.00    -0.280 N 
ATOM     22  C   UNL     1      34.587 -20.236 -19.936  0.00  0.00    +0.019 C 
ATOM     23  C   UNL     1      35.286 -19.214 -20.707  0.00  0.00    +0.069 C 
ATOM     24  C   UNL     1      35.577 -20.912 -19.216  0.00  0.00    +0.051 C 
ATOM     25  C   UNL     1      36.753 -19.320 -20.407  0.00  0.00    +0.251 C 
ATOM     26  C   UNL     1      34.775 -18.314 -21.549  0.00  0.00    +0.066 C 
ATOM     27  C   UNL     1      33.259 -20.598 -19.818  0.00  0.00    +0.001 C 
ATOM     28  C   UNL     1      35.287 -21.959 -18.364  0.00  0.00    +0.015 C 
ATOM     29  C   UNL     1      32.943 -21.657 -18.960  0.00  0.00    +0.000 C 
ATOM     30  C   UNL     1      33.947 -22.331 -18.240  0.00  0.00    +0.001 C 
ATOM     31  H   UNL     1      37.681 -20.699 -19.096  0.00  0.00    +0.155 HD
ENDBRANCH  18  26
ENDBRANCH   1  18
TORSDOF 5
ENDMDL
MODEL 6
REMARK VINA RESULT:     -10.6      4.000      9.420
REMARK  Name = 5288712
REMARK  5 active torsions:
REMARK  status: ('A' for Active; 'I' for Inactive)
REMARK    1  A    between atoms: C_1  and  N_18
REMARK    2  A    between atoms: C_2  and  S_7
REMARK    3  A    between atoms: S_7  and  N_10
REMARK    4  A    between atoms: N_10  and  C_13
REMARK    5  A    between atoms: N_18  and  C_26
REMARK                            x       y       z     vdW  Elec       q    Type
REMARK                         _______ _______ _______ _____ _____    ______ ____
ROOT
ATOM      1  C   UNL     1      35.023 -16.530 -23.151  0.00  0.00    +0.048 C 
ATOM      2  C   UNL     1      34.022 -14.196 -24.319  0.00  0.00    +0.129 C 
ATOM      3  C   UNL     1      34.970 -15.344 -22.415  0.00  0.00    +0.016 C 
ATOM      4  C   UNL     1      34.573 -16.544 -24.475  0.00  0.00    +0.016 C 
ATOM      5  C   UNL     1      34.470 -14.179 -22.998  0.00  0.00    +0.022 C 
ATOM      6  C   UNL     1      34.074 -15.379 -25.058  0.00  0.00    +0.022 C 
ENDROOT
BRANCH   2   7
ATOM      7  S   UNL     1      33.398 -12.739 -25.049  0.00  0.00    +0.103 S 
ATOM      8  O   UNL     1      32.121 -13.065 -25.676  0.00  0.00    -0.146 OA
ATOM      9  O   UNL     1      34.478 -12.199 -25.866  0.00  0.00    -0.146 OA
BRANCH   7  10
ATOM     10  N   UNL     1      33.113 -11.749 -23.777  0.00  0.00    -0.093 NA
BRANCH  10  13
ATOM     11  N   UNL     1      35.023 -10.291 -23.828  0.00  0.00    -0.369 N 
ATOM     12  N   UNL     1      32.951  -9.466 -23.345  0.00  0.00    -0.369 N 
ATOM     13  C   UNL     1      33.687 -10.581 -23.662  0.00  0.00    +0.212 C 
ATOM     14  H   UNL     1      35.658 -11.007 -24.058  0.00  0.00    +0.159 HD
ATOM     15  H   UNL     1      35.342  -9.367 -23.715  0.00  0.00    +0.159 HD
ATOM     16  H   UNL     1      31.979  -9.542 -23.201  0.00  0.00    +0.159 HD
ATOM     17  H   UNL     1      33.393  -8.591 -23.261  0.00  0.00    +0.159 HD
ENDBRANCH  10  13
ENDBRANCH   7  10
ENDBRANCH   2   7
BRANCH   1  18
ATOM     18  N   UNL     1      35.525 -17.704 -22.564  0.00  0.00    -0.311 N 
ATOM     19  H   UNL     1      36.472 -17.901 -22.748  0.00  0.00    +0.152 HD
BRANCH  18  26
ATOM     20  O   UNL     1      37.726 -18.682 -20.949  0.00  0.00    -0.270 OA
ATOM     21  N   UNL     1      36.947 -20.308 -19.422  0.00  0.00    -0.280 N 
ATOM     22  C   UNL     1      34.714 -20.343 -19.970  0.00  0.00    +0.019 C 
ATOM     23  C   UNL     1      35.395 -19.374 -20.821  0.00  0.00    +0.069 C 
ATOM     24  C   UNL     1      35.702 -20.881 -19.139  0.00  0.00    +0.051 C 
ATOM     25  C   UNL     1      36.850 -19.365 -20.450  0.00  0.00    +0.251 C 
ATOM     26  C   UNL     1      34.880 -18.602 -21.778  0.00  0.00    +0.066 C 
ATOM     27  C   UNL     1      33.401 -20.764 -19.868  0.00  0.00    +0.001 C 
ATOM     28  C   UNL     1      35.426 -21.843 -18.188  0.00  0.00    +0.015 C 
ATOM     29  C   UNL     1      33.099 -21.739 -18.910  0.00  0.00    +0.000 C 
ATOM     30  C   UNL     1      34.101 -22.273 -18.079  0.00  0.00    +0.001 C 
ATOM     31  H   UNL     1      37.784 -20.539 -18.956  0.00  0.00    +0.155 HD
ENDBRANCH  18  26
ENDBRANCH   1  18
TORSDOF 5
ENDMDL
MODEL 7
REMARK VINA RESULT:     -10.5      2.453      9.525
REMARK  Name = 5288712
REMARK  5 active torsions:
REMARK  status: ('A' for Active; 'I' for Inactive)
REMARK    1  A    between atoms: C_1  and  N_18
REMARK    2  A    between atoms: C_2  and  S_7
REMARK    3  A    between atoms: S_7  and  N_10
REMARK    4  A    between atoms: N_10  and  C_13
REMARK    5  A    between atoms: N_18  and  C_26
REMARK                            x       y       z     vdW  Elec       q    Type
REMARK                         _______ _______ _______ _____ _____    ______ ____
ROOT
ATOM      1  C   UNL     1      34.073 -21.467 -19.246  0.00  0.00    +0.048 C 
ATOM      2  C   UNL     1      35.002 -19.301 -20.749  0.00  0.00    +0.129 C 
ATOM      3  C   UNL     1      35.445 -21.224 -19.354  0.00  0.00    +0.016 C 
ATOM      4  C   UNL     1      33.168 -20.621 -19.893  0.00  0.00    +0.016 C 
ATOM      5  C   UNL     1      35.908 -20.143 -20.104  0.00  0.00    +0.022 C 
ATOM      6  C   UNL     1      33.632 -19.540 -20.643  0.00  0.00    +0.022 C 
ENDROOT
BRANCH   2   7
ATOM      7  S   UNL     1      35.582 -17.948 -21.688  0.00  0.00    +0.103 S 
ATOM      8  O   UNL     1      36.956 -18.237 -22.085  0.00  0.00    -0.146 OA
ATOM      9  O   UNL     1      35.301 -16.755 -20.898  0.00  0.00    -0.146 OA
BRANCH   7  10
ATOM     10  N   UNL     1      34.641 -17.965 -23.027  0.00  0.00    -0.093 NA
BRANCH  10  13
ATOM     11  N   UNL     1      33.719 -16.771 -24.899  0.00  0.00    -0.369 N 
ATOM     12  N   UNL     1      35.527 -15.945 -23.777  0.00  0.00    -0.369 N 
ATOM     13  C   UNL     1      34.609 -16.963 -23.866  0.00  0.00    +0.212 C 
ATOM     14  H   UNL     1      33.011 -17.432 -25.068  0.00  0.00    +0.159 HD
ATOM     15  H   UNL     1      33.794 -15.972 -25.469  0.00  0.00    +0.159 HD
ATOM     16  H   UNL     1      36.218 -15.965 -23.075  0.00  0.00    +0.159 HD
ATOM     17  H   UNL     1      35.493 -15.195 -24.413  0.00  0.00    +0.159 HD
ENDBRANCH  10  13
ENDBRANCH   7  10
ENDBRANCH   2   7
BRANCH   1  18
ATOM     18  N   UNL     1      33.606 -22.556 -18.490  0.00  0.00    -0.311 N 
ATOM     19  H   UNL     1      32.854 -23.055 -18.882  0.00  0.00    +0.152 HD
BRANCH  18  26
ATOM     20  O   UNL     1      31.164 -22.445 -16.931  0.00  0.00    -0.270 OA
ATOM     21  N   UNL     1      31.578 -23.188 -14.726  0.00  0.00    -0.280 N 
ATOM     22  C   UNL     1      33.823 -23.665 -14.873  0.00  0.00    +0.019 C 
ATOM     23  C   UNL     1      33.356 -23.179 -16.167  0.00  0.00    +0.069 C 
ATOM     24  C   UNL     1      32.703 -23.651 -14.035  0.00  0.00    +0.051 C 
ATOM     25  C   UNL     1      31.891 -22.872 -16.052  0.00  0.00    +0.251 C 
ATOM     26  C   UNL     1      34.053 -23.010 -17.292  0.00  0.00    +0.066 C 
ATOM     27  C   UNL     1      35.052 -24.087 -14.402  0.00  0.00    +0.001 C 
ATOM     28  C   UNL     1      32.763 -24.051 -12.715  0.00  0.00    +0.015 C 
ATOM     29  C   UNL     1      35.134 -24.497 -13.067  0.00  0.00    +0.000 C 
ATOM     30  C   UNL     1      34.001 -24.479 -12.232  0.00  0.00    +0.001 C 
ATOM     31  H   UNL     1      30.681 -23.096 -14.329  0.00  0.00    +0.155 HD
ENDBRANCH  18  26
ENDBRANCH   1  18
TORSDOF 5
ENDMDL
MODEL 8
REMARK VINA RESULT:     -10.2      6.141     10.614
REMARK  Name = 5288712
REMARK  5 active torsions:
REMARK  status: ('A' for Active; 'I' for Inactive)
REMARK    1  A    between atoms: C_1  and  N_18
REMARK    2  A    between atoms: C_2  and  S_7
REMARK    3  A    between atoms: S_7  and  N_10
REMARK    4  A    between atoms: N_10  and  C_13
REMARK    5  A    between atoms: N_18  and  C_26
REMARK                            x       y       z     vdW  Elec       q    Type
REMARK                         _______ _______ _______ _____ _____    ______ ____
ROOT
ATOM      1  C   UNL     1      33.877 -12.345 -23.409  0.00  0.00    +0.048 C 
ATOM      2  C   UNL     1      32.717  -9.919 -22.646  0.00  0.00    +0.129 C 
ATOM      3  C   UNL     1      34.225 -11.162 -24.066  0.00  0.00    +0.016 C 
ATOM      4  C   UNL     1      32.945 -12.308 -22.367  0.00  0.00    +0.016 C 
ATOM      5  C   UNL     1      33.647  -9.951 -23.685  0.00  0.00    +0.022 C 
ATOM      6  C   UNL     1      32.365 -11.097 -21.987  0.00  0.00    +0.022 C 
ENDROOT
BRANCH   2   7
ATOM      7  S   UNL     1      31.991  -8.404 -22.169  0.00  0.00    +0.103 S 
ATOM      8  O   UNL     1      31.153  -8.659 -21.002  0.00  0.00    -0.146 OA
ATOM      9  O   UNL     1      31.390  -7.845 -23.374  0.00  0.00    -0.146 OA
BRANCH   7  10
ATOM     10  N   UNL     1      33.264  -7.486 -21.702  0.00  0.00    -0.093 NA
BRANCH  10  13
ATOM     11  N   UNL     1      32.834  -5.353 -20.682  0.00  0.00    -0.369 N 
ATOM     12  N   UNL     1      33.513  -7.125 -19.414  0.00  0.00    -0.369 N 
ATOM     13  C   UNL     1      33.199  -6.680 -20.676  0.00  0.00    +0.212 C 
ATOM     14  H   UNL     1      32.585  -4.914 -21.526  0.00  0.00    +0.159 HD
ATOM     15  H   UNL     1      32.823  -4.842 -19.840  0.00  0.00    +0.159 HD
ATOM     16  H   UNL     1      33.790  -8.060 -19.277  0.00  0.00    +0.159 HD
ATOM     17  H   UNL     1      33.461  -6.510 -18.648  0.00  0.00    +0.159 HD
ENDBRANCH  10  13
ENDBRANCH   7  10
ENDBRANCH   2   7
BRANCH   1  18
ATOM     18  N   UNL     1      34.460 -13.564 -23.792  0.00  0.00    -0.311 N 
ATOM     19  H   UNL     1      34.682 -13.649 -24.747  0.00  0.00    +0.152 HD
BRANCH  18  26
ATOM     20  O   UNL     1      33.742 -15.726 -25.586  0.00  0.00    -0.270 OA
ATOM     21  N   UNL     1      34.144 -17.808 -24.544  0.00  0.00    -0.280 N 
ATOM     22  C   UNL     1      34.948 -17.097 -22.511  0.00  0.00    +0.019 C 
ATOM     23  C   UNL     1      34.632 -15.931 -23.329  0.00  0.00    +0.069 C 
ATOM     24  C   UNL     1      34.634 -18.210 -23.296  0.00  0.00    +0.051 C 
ATOM     25  C   UNL     1      34.108 -16.414 -24.651  0.00  0.00    +0.251 C 
ATOM     26  C   UNL     1      34.759 -14.640 -23.021  0.00  0.00    +0.066 C 
ATOM     27  C   UNL     1      35.450 -17.255 -21.233  0.00  0.00    +0.001 C 
ATOM     28  C   UNL     1      34.804 -19.504 -22.847  0.00  0.00    +0.015 C 
ATOM     29  C   UNL     1      35.631 -18.558 -20.757  0.00  0.00    +0.000 C 
ATOM     30  C   UNL     1      35.311 -19.672 -21.556  0.00  0.00    +0.001 C 
ATOM     31  H   UNL     1      33.860 -18.428 -25.256  0.00  0.00    +0.155 HD
ENDBRANCH  18  26
ENDBRANCH   1  18
TORSDOF 5
ENDMDL
MODEL 9
REMARK VINA RESULT:     -10.1      2.306      2.982
REMARK  Name = 5288712
REMARK  5 active torsions:
REMARK  status: ('A' for Active; 'I' for Inactive)
REMARK    1  A    between atoms: C_1  and  N_18
REMARK    2  A    between atoms: C_2  and  S_7
REMARK    3  A    between atoms: S_7  and  N_10
REMARK    4  A    between atoms: N_10  and  C_13
REMARK    5  A    between atoms: N_18  and  C_26
REMARK                            x       y       z     vdW  Elec       q    Type
REMARK                         _______ _______ _______ _____ _____    ______ ____
ROOT
ATOM      1  C   UNL     1      35.435 -20.845 -19.365  0.00  0.00    +0.048 C 
ATOM      2  C   UNL     1      35.178 -22.428 -17.076  0.00  0.00    +0.129 C 
ATOM      3  C   UNL     1      36.522 -21.018 -18.506  0.00  0.00    +0.016 C 
ATOM      4  C   UNL     1      34.217 -21.467 -19.074  0.00  0.00    +0.016 C 
ATOM      5  C   UNL     1      36.395 -21.809 -17.364  0.00  0.00    +0.022 C 
ATOM      6  C   UNL     1      34.089 -22.257 -17.931  0.00  0.00    +0.022 C 
ENDROOT
BRANCH   2   7
ATOM      7  S   UNL     1      35.017 -23.417 -15.646  0.00  0.00    +0.103 S 
ATOM      8  O   UNL     1      34.284 -24.622 -16.017  0.00  0.00    -0.146 OA
ATOM      9  O   UNL     1      34.481 -22.544 -14.607  0.00  0.00    -0.146 OA
BRANCH   7  10
ATOM     10  N   UNL     1      36.557 -23.838 -15.281  0.00  0.00    -0.093 NA
BRANCH  10  13
ATOM     11  N   UNL     1      37.960 -25.649 -14.555  0.00  0.00    -0.369 N 
ATOM     12  N   UNL     1      35.961 -25.252 -13.528  0.00  0.00    -0.369 N 
ATOM     13  C   UNL     1      36.834 -24.858 -14.513  0.00  0.00    +0.212 C 
ATOM     14  H   UNL     1      38.664 -25.470 -15.219  0.00  0.00    +0.159 HD
ATOM     15  H   UNL     1      38.059 -26.396 -13.921  0.00  0.00    +0.159 HD
ATOM     16  H   UNL     1      35.116 -24.763 -13.395  0.00  0.00    +0.159 HD
ATOM     17  H   UNL     1      36.179 -26.021 -12.955  0.00  0.00    +0.159 HD
ENDBRANCH  10  13
ENDBRANCH   7  10
ENDBRANCH   2   7
BRANCH   1  18
ATOM     18  N   UNL     1      35.563 -20.049 -20.517  0.00  0.00    -0.311 N 
ATOM     19  H   UNL     1      35.809 -20.529 -21.340  0.00  0.00    +0.152 HD
BRANCH  18  26
ATOM     20  O   UNL     1      34.996 -19.850 -23.353  0.00  0.00    -0.270 OA
ATOM     21  N   UNL     1      34.634 -17.593 -23.948  0.00  0.00    -0.280 N 
ATOM     22  C   UNL     1      34.918 -16.582 -21.902  0.00  0.00    +0.019 C 
ATOM     23  C   UNL     1      35.104 -18.021 -21.750  0.00  0.00    +0.069 C 
ATOM     24  C   UNL     1      34.634 -16.376 -23.256  0.00  0.00    +0.051 C 
ATOM     25  C   UNL     1      34.915 -18.663 -23.094  0.00  0.00    +0.251 C 
ATOM     26  C   UNL     1      35.392 -18.709 -20.644  0.00  0.00    +0.066 C 
ATOM     27  C   UNL     1      34.972 -15.517 -21.023  0.00  0.00    +0.001 C 
ATOM     28  C   UNL     1      34.397 -15.121 -23.779  0.00  0.00    +0.015 C 
ATOM     29  C   UNL     1      34.734 -14.236 -21.532  0.00  0.00    +0.000 C 
ATOM     30  C   UNL     1      34.450 -14.040 -22.896  0.00  0.00    +0.001 C 
ATOM     31  H   UNL     1      34.458 -17.682 -24.913  0.00  0.00    +0.155 HD
ENDBRANCH  18  26
ENDBRANCH   1  18
TORSDOF 5
ENDMDL
