MODEL 1
REMARK VINA RESULT:     -12.4      0.000      0.000
REMARK  Name = 447655
REMARK  6 active torsions:
REMARK  status: ('A' for Active; 'I' for Inactive)
REMARK    1  A    between atoms: N_4  and  C_14
REMARK    2  A    between atoms: C_6  and  O_26
REMARK    3  A    between atoms: C_15  and  S_20
REMARK    4  A    between atoms: S_20  and  N_23
REMARK    5  A    between atoms: O_26  and  C_27
REMARK    6  A    between atoms: C_27  and  C_28
REMARK                            x       y       z     vdW  Elec       q    Type
REMARK                         _______ _______ _______ _____ _____    ______ ____
ROOT
ATOM      1  N   UNL     1      32.357 -23.339 -15.429  0.00  0.00    -0.293 NA
ATOM      2  N   UNL     1      29.046 -22.474 -16.776  0.00  0.00    -0.266 NA
ATOM      3  N   UNL     1      30.499 -23.923 -13.960  0.00  0.00    -0.316 NA
ATOM      4  N   UNL     1      32.715 -24.360 -13.353  0.00  0.00    -0.238 N 
ATOM      5  N   UNL     1      28.315 -23.348 -14.860  0.00  0.00    -0.296 N 
ATOM      6  C   UNL     1      31.517 -22.836 -16.362  0.00  0.00    +0.288 C 
ATOM      7  C   UNL     1      30.163 -22.872 -16.101  0.00  0.00    +0.215 C 
ATOM      8  C   UNL     1      29.684 -23.411 -14.914  0.00  0.00    +0.196 C 
ATOM      9  C   UNL     1      31.803 -23.845 -14.302  0.00  0.00    +0.207 C 
ATOM     10  C   UNL     1      27.963 -22.779 -15.993  0.00  0.00    +0.164 C 
ATOM     11  H   UNL     1      29.022 -22.047 -17.662  0.00  0.00    +0.126 HD
ATOM     12  H   UNL     1      32.285 -24.722 -12.545  0.00  0.00    +0.166 HD
ATOM     13  H   UNL     1      27.726 -23.657 -14.134  0.00  0.00    +0.150 HD
ENDROOT
BRANCH   4  14
ATOM     14  C   UNL     1      34.119 -24.459 -13.339  0.00  0.00    +0.060 C 
ATOM     15  C   UNL     1      36.231 -24.155 -12.200  0.00  0.00    +0.123 C 
ATOM     16  C   UNL     1      34.840 -24.057 -12.213  0.00  0.00    +0.035 C 
ATOM     17  C   UNL     1      34.796 -24.963 -14.453  0.00  0.00    +0.015 C 
ATOM     18  C   UNL     1      36.905 -24.659 -13.314  0.00  0.00    +0.020 C 
ATOM     19  C   UNL     1      36.187 -25.062 -14.440  0.00  0.00    +0.003 C 
BRANCH  15  20
ATOM     20  S   UNL     1      37.130 -23.652 -10.792  0.00  0.00    +0.057 S 
ATOM     21  O   UNL     1      38.320 -24.483 -10.685  0.00  0.00    -0.153 OA
ATOM     22  O   UNL     1      37.261 -22.201 -10.821  0.00  0.00    -0.153 OA
BRANCH  20  23
ATOM     23  N   UNL     1      36.045 -24.078  -9.542  0.00  0.00    -0.203 NA
ATOM     24  H   UNL     1      36.372 -24.929  -9.085  0.00  0.00    +0.144 HD
ATOM     25  H   UNL     1      35.119 -24.239  -9.938  0.00  0.00    +0.144 HD
ENDBRANCH  20  23
ENDBRANCH  15  20
ENDBRANCH   4  14
BRANCH   6  26
ATOM     26  O   UNL     1      32.047 -22.315 -17.517  0.00  0.00    -0.453 OA
BRANCH  26  27
ATOM     27  C   UNL     1      33.392 -22.640 -17.812  0.00  0.00    +0.208 C 
BRANCH  27  28
ATOM     28  C   UNL     1      33.807 -21.886 -19.074  0.00  0.00    +0.044 C 
ATOM     29  C   UNL     1      32.828 -20.740 -19.367  0.00  0.00    +0.004 C 
ATOM     30  C   UNL     1      35.242 -21.357 -18.943  0.00  0.00    +0.004 C 
ATOM     31  C   UNL     1      33.252 -19.937 -20.595  0.00  0.00    +0.000 C 
ATOM     32  C   UNL     1      35.661 -20.553 -20.171  0.00  0.00    +0.000 C 
ATOM     33  C   UNL     1      34.681 -19.422 -20.464  0.00  0.00    +0.000 C 
ENDBRANCH  27  28
ENDBRANCH  26  27
ENDBRANCH   6  26
TORSDOF 6
ENDMDL
MODEL 2
REMARK VINA RESULT:     -12.4      2.141      2.658
REMARK  Name = 447655
REMARK  6 active torsions:
REMARK  status: ('A' for Active; 'I' for Inactive)
REMARK    1  A    between atoms: N_4  and  C_14
REMARK    2  A    between atoms: C_6  and  O_26
REMARK    3  A    between atoms: C_15  and  S_20
REMARK    4  A    between atoms: S_20  and  N_23
REMARK    5  A    between atoms: O_26  and  C_27
REMARK    6  A    between atoms: C_27  and  C_28
REMARK                            x       y       z     vdW  Elec       q    Type
REMARK                         _______ _______ _______ _____ _____    ______ ____
ROOT
ATOM      1  N   UNL     1      33.401 -23.818 -14.278  0.00  0.00    -0.293 NA
ATOM      2  N   UNL     1      29.967 -23.954 -15.588  0.00  0.00    -0.266 NA
ATOM      3  N   UNL     1      31.827 -24.987 -12.828  0.00  0.00    -0.316 NA
ATOM      4  N   UNL     1      34.078 -24.751 -12.240  0.00  0.00    -0.238 N 
ATOM      5  N   UNL     1      29.560 -25.072 -13.703  0.00  0.00    -0.296 N 
ATOM      6  C   UNL     1      32.437 -23.563 -15.191  0.00  0.00    +0.288 C 
ATOM      7  C   UNL     1      31.161 -24.017 -14.929  0.00  0.00    +0.215 C 
ATOM      8  C   UNL     1      30.883 -24.716 -13.762  0.00  0.00    +0.196 C 
ATOM      9  C   UNL     1      33.041 -24.506 -13.169  0.00  0.00    +0.207 C 
ATOM     10  C   UNL     1      29.038 -24.600 -14.815  0.00  0.00    +0.164 C 
ATOM     11  H   UNL     1      29.804 -23.525 -16.458  0.00  0.00    +0.126 HD
ATOM     12  H   UNL     1      33.788 -25.253 -11.445  0.00  0.00    +0.166 HD
ATOM     13  H   UNL     1      29.102 -25.570 -12.988  0.00  0.00    +0.150 HD
ENDROOT
BRANCH   4  14
ATOM     14  C   UNL     1      35.445 -24.420 -12.232  0.00  0.00    +0.060 C 
ATOM     15  C   UNL     1      37.701 -24.804 -13.018  0.00  0.00    +0.123 C 
ATOM     16  C   UNL     1      36.345 -25.134 -13.026  0.00  0.00    +0.035 C 
ATOM     17  C   UNL     1      35.908 -23.371 -11.431  0.00  0.00    +0.015 C 
ATOM     18  C   UNL     1      38.159 -23.757 -12.217  0.00  0.00    +0.020 C 
ATOM     19  C   UNL     1      37.262 -23.042 -11.424  0.00  0.00    +0.003 C 
BRANCH  15  20
ATOM     20  S   UNL     1      38.824 -25.699 -14.011  0.00  0.00    +0.057 S 
ATOM     21  O   UNL     1      39.916 -26.162 -13.166  0.00  0.00    -0.153 OA
ATOM     22  O   UNL     1      38.072 -26.656 -14.811  0.00  0.00    -0.153 OA
BRANCH  20  23
ATOM     23  N   UNL     1      39.406 -24.464 -15.038  0.00  0.00    -0.203 NA
ATOM     24  H   UNL     1      39.101 -23.557 -14.686  0.00  0.00    +0.144 HD
ATOM     25  H   UNL     1      39.039 -24.604 -15.979  0.00  0.00    +0.144 HD
ENDBRANCH  20  23
ENDBRANCH  15  20
ENDBRANCH   4  14
BRANCH   6  26
ATOM     26  O   UNL     1      32.769 -22.867 -16.328  0.00  0.00    -0.453 OA
BRANCH  26  27
ATOM     27  C   UNL     1      34.075 -23.057 -16.840  0.00  0.00    +0.208 C 
BRANCH  27  28
ATOM     28  C   UNL     1      34.142 -22.438 -18.235  0.00  0.00    +0.044 C 
ATOM     29  C   UNL     1      32.937 -21.519 -18.479  0.00  0.00    +0.004 C 
ATOM     30  C   UNL     1      35.459 -21.673 -18.425  0.00  0.00    +0.004 C 
ATOM     31  C   UNL     1      33.009 -20.847 -19.848  0.00  0.00    +0.000 C 
ATOM     32  C   UNL     1      35.527 -21.000 -19.793  0.00  0.00    +0.000 C 
ATOM     33  C   UNL     1      34.323 -20.095 -20.036  0.00  0.00    +0.000 C 
ENDBRANCH  27  28
ENDBRANCH  26  27
ENDBRANCH   6  26
TORSDOF 6
ENDMDL
MODEL 3
REMARK VINA RESULT:     -12.4      2.318      2.758
REMARK  Name = 447655
REMARK  6 active torsions:
REMARK  status: ('A' for Active; 'I' for Inactive)
REMARK    1  A    between atoms: N_4  and  C_14
REMARK    2  A    between atoms: C_6  and  O_26
REMARK    3  A    between atoms: C_15  and  S_20
REMARK    4  A    between atoms: S_20  and  N_23
REMARK    5  A    between atoms: O_26  and  C_27
REMARK    6  A    between atoms: C_27  and  C_28
REMARK                            x       y       z     vdW  Elec       q    Type
REMARK                         _______ _______ _______ _____ _____    ______ ____
ROOT
ATOM      1  N   UNL     1      33.310 -22.962 -16.114  0.00  0.00    -0.293 NA
ATOM      2  N   UNL     1      29.686 -22.578 -16.607  0.00  0.00    -0.266 NA
ATOM      3  N   UNL     1      31.972 -23.523 -14.154  0.00  0.00    -0.316 NA
ATOM      4  N   UNL     1      34.306 -23.678 -14.118  0.00  0.00    -0.238 N 
ATOM      5  N   UNL     1      29.578 -23.267 -14.491  0.00  0.00    -0.296 N 
ATOM      6  C   UNL     1      32.207 -22.659 -16.833  0.00  0.00    +0.288 C 
ATOM      7  C   UNL     1      30.978 -22.785 -16.219  0.00  0.00    +0.215 C 
ATOM      8  C   UNL     1      30.885 -23.212 -14.901  0.00  0.00    +0.196 C 
ATOM      9  C   UNL     1      33.126 -23.371 -14.836  0.00  0.00    +0.207 C 
ATOM     10  C   UNL     1      28.883 -22.879 -15.539  0.00  0.00    +0.164 C 
ATOM     11  H   UNL     1      29.386 -22.270 -17.492  0.00  0.00    +0.126 HD
ATOM     12  H   UNL     1      34.142 -23.972 -13.194  0.00  0.00    +0.166 HD
ATOM     13  H   UNL     1      29.234 -23.535 -13.607  0.00  0.00    +0.150 HD
ENDROOT
BRANCH   4  14
ATOM     14  C   UNL     1      35.667 -23.646 -14.470  0.00  0.00    +0.060 C 
ATOM     15  C   UNL     1      37.847 -24.695 -14.513  0.00  0.00    +0.123 C 
ATOM     16  C   UNL     1      36.497 -24.727 -14.164  0.00  0.00    +0.035 C 
ATOM     17  C   UNL     1      36.195 -22.532 -15.129  0.00  0.00    +0.015 C 
ATOM     18  C   UNL     1      38.371 -23.581 -15.171  0.00  0.00    +0.020 C 
ATOM     19  C   UNL     1      37.544 -22.500 -15.478  0.00  0.00    +0.003 C 
BRANCH  15  20
ATOM     20  S   UNL     1      38.882 -26.047 -14.129  0.00  0.00    +0.057 S 
ATOM     21  O   UNL     1      39.409 -25.855 -12.786  0.00  0.00    -0.153 OA
ATOM     22  O   UNL     1      38.175 -27.277 -14.460  0.00  0.00    -0.153 OA
BRANCH  20  23
ATOM     23  N   UNL     1      40.146 -25.821 -15.256  0.00  0.00    -0.203 NA
ATOM     24  H   UNL     1      41.040 -26.017 -14.807  0.00  0.00    +0.144 HD
ATOM     25  H   UNL     1      40.136 -24.857 -15.588  0.00  0.00    +0.144 HD
ENDBRANCH  20  23
ENDBRANCH  15  20
ENDBRANCH   4  14
BRANCH   6  26
ATOM     26  O   UNL     1      32.358 -22.241 -18.133  0.00  0.00    -0.453 OA
BRANCH  26  27
ATOM     27  C   UNL     1      33.589 -22.537 -18.764  0.00  0.00    +0.208 C 
BRANCH  27  28
ATOM     28  C   UNL     1      34.314 -21.223 -19.051  0.00  0.00    +0.044 C 
ATOM     29  C   UNL     1      35.797 -21.476 -19.356  0.00  0.00    +0.004 C 
ATOM     30  C   UNL     1      33.639 -20.474 -20.209  0.00  0.00    +0.004 C 
ATOM     31  C   UNL     1      36.531 -20.182 -19.698  0.00  0.00    +0.000 C 
ATOM     32  C   UNL     1      34.378 -19.182 -20.549  0.00  0.00    +0.000 C 
ATOM     33  C   UNL     1      35.853 -19.436 -20.842  0.00  0.00    +0.000 C 
ENDBRANCH  27  28
ENDBRANCH  26  27
ENDBRANCH   6  26
TORSDOF 6
ENDMDL
MODEL 4
REMARK VINA RESULT:     -11.8      2.508      5.217
REMARK  Name = 447655
REMARK  6 active torsions:
REMARK  status: ('A' for Active; 'I' for Inactive)
REMARK    1  A    between atoms: N_4  and  C_14
REMARK    2  A    between atoms: C_6  and  O_26
REMARK    3  A    between atoms: C_15  and  S_20
REMARK    4  A    between atoms: S_20  and  N_23
REMARK    5  A    between atoms: O_26  and  C_27
REMARK    6  A    between atoms: C_27  and  C_28
REMARK                            x       y       z     vdW  Elec       q    Type
REMARK                         _______ _______ _______ _____ _____    ______ ____
ROOT
ATOM      1  N   UNL     1      35.314 -23.280 -15.885  0.00  0.00    -0.293 NA
ATOM      2  N   UNL     1      33.626 -21.663 -18.725  0.00  0.00    -0.266 NA
ATOM      3  N   UNL     1      36.791 -21.949 -17.297  0.00  0.00    -0.316 NA
ATOM      4  N   UNL     1      37.601 -23.086 -15.421  0.00  0.00    -0.238 N 
ATOM      5  N   UNL     1      35.666 -20.884 -19.171  0.00  0.00    -0.296 N 
ATOM      6  C   UNL     1      34.242 -22.982 -16.653  0.00  0.00    +0.288 C 
ATOM      7  C   UNL     1      34.436 -22.167 -17.748  0.00  0.00    +0.215 C 
ATOM      8  C   UNL     1      35.698 -21.669 -18.047  0.00  0.00    +0.196 C 
ATOM      9  C   UNL     1      36.506 -22.751 -16.250  0.00  0.00    +0.207 C 
ATOM     10  C   UNL     1      34.407 -20.901 -19.554  0.00  0.00    +0.164 C 
ATOM     11  H   UNL     1      32.659 -21.819 -18.817  0.00  0.00    +0.126 HD
ATOM     12  H   UNL     1      38.454 -22.688 -15.709  0.00  0.00    +0.166 HD
ATOM     13  H   UNL     1      36.418 -20.412 -19.598  0.00  0.00    +0.150 HD
ENDROOT
BRANCH   4  14
ATOM     14  C   UNL     1      37.709 -23.878 -14.263  0.00  0.00    +0.060 C 
ATOM     15  C   UNL     1      37.011 -24.398 -12.006  0.00  0.00    +0.123 C 
ATOM     16  C   UNL     1      36.904 -23.612 -13.154  0.00  0.00    +0.035 C 
ATOM     17  C   UNL     1      38.623 -24.935 -14.220  0.00  0.00    +0.015 C 
ATOM     18  C   UNL     1      37.924 -25.452 -11.966  0.00  0.00    +0.020 C 
ATOM     19  C   UNL     1      38.730 -25.720 -13.073  0.00  0.00    +0.003 C 
BRANCH  15  20
ATOM     20  S   UNL     1      36.003 -24.064 -10.621  0.00  0.00    +0.057 S 
ATOM     21  O   UNL     1      35.562 -25.332 -10.057  0.00  0.00    -0.153 OA
ATOM     22  O   UNL     1      36.686 -23.095  -9.775  0.00  0.00    -0.153 OA
BRANCH  20  23
ATOM     23  N   UNL     1      34.669 -23.297 -11.365  0.00  0.00    -0.203 NA
ATOM     24  H   UNL     1      34.942 -22.363 -11.671  0.00  0.00    +0.144 HD
ATOM     25  H   UNL     1      33.902 -23.226 -10.696  0.00  0.00    +0.144 HD
ENDBRANCH  20  23
ENDBRANCH  15  20
ENDBRANCH   4  14
BRANCH   6  26
ATOM     26  O   UNL     1      33.018 -23.503 -16.311  0.00  0.00    -0.453 OA
BRANCH  26  27
ATOM     27  C   UNL     1      32.664 -23.468 -14.941  0.00  0.00    +0.208 C 
BRANCH  27  28
ATOM     28  C   UNL     1      31.141 -23.405 -14.836  0.00  0.00    +0.044 C 
ATOM     29  C   UNL     1      30.536 -22.767 -16.094  0.00  0.00    +0.004 C 
ATOM     30  C   UNL     1      30.557 -24.804 -14.599  0.00  0.00    +0.004 C 
ATOM     31  C   UNL     1      29.011 -22.742 -16.035  0.00  0.00    +0.000 C 
ATOM     32  C   UNL     1      29.032 -24.775 -14.543  0.00  0.00    +0.000 C 
ATOM     33  C   UNL     1      28.434 -24.132 -15.791  0.00  0.00    +0.000 C 
ENDBRANCH  27  28
ENDBRANCH  26  27
ENDBRANCH   6  26
TORSDOF 6
ENDMDL
MODEL 5
REMARK VINA RESULT:     -11.6      3.914      7.935
REMARK  Name = 447655
REMARK  6 active torsions:
REMARK  status: ('A' for Active; 'I' for Inactive)
REMARK    1  A    between atoms: N_4  and  C_14
REMARK    2  A    between atoms: C_6  and  O_26
REMARK    3  A    between atoms: C_15  and  S_20
REMARK    4  A    between atoms: S_20  and  N_23
REMARK    5  A    between atoms: O_26  and  C_27
REMARK    6  A    between atoms: C_27  and  C_28
REMARK                            x       y       z     vdW  Elec       q    Type
REMARK                         _______ _______ _______ _____ _____    ______ ____
ROOT
ATOM      1  N   UNL     1      35.266 -23.240 -15.610  0.00  0.00    -0.293 NA
ATOM      2  N   UNL     1      36.098 -25.056 -12.522  0.00  0.00    -0.266 NA
ATOM      3  N   UNL     1      37.630 -23.167 -15.016  0.00  0.00    -0.316 NA
ATOM      4  N   UNL     1      36.823 -22.095 -16.932  0.00  0.00    -0.238 N 
ATOM      5  N   UNL     1      38.170 -24.371 -12.974  0.00  0.00    -0.296 N 
ATOM      6  C   UNL     1      34.973 -23.991 -14.525  0.00  0.00    +0.288 C 
ATOM      7  C   UNL     1      36.006 -24.335 -13.677  0.00  0.00    +0.215 C 
ATOM      8  C   UNL     1      37.305 -23.920 -13.938  0.00  0.00    +0.196 C 
ATOM      9  C   UNL     1      36.559 -22.880 -15.786  0.00  0.00    +0.207 C 
ATOM     10  C   UNL     1      37.414 -25.050 -12.138  0.00  0.00    +0.164 C 
ATOM     11  H   UNL     1      35.357 -25.500 -12.051  0.00  0.00    +0.126 HD
ATOM     12  H   UNL     1      37.770 -21.849 -17.035  0.00  0.00    +0.166 HD
ATOM     13  H   UNL     1      39.141 -24.219 -12.918  0.00  0.00    +0.150 HD
ENDROOT
BRANCH   4  14
ATOM     14  C   UNL     1      35.995 -21.599 -17.955  0.00  0.00    +0.060 C 
ATOM     15  C   UNL     1      35.648 -20.128 -19.844  0.00  0.00    +0.123 C 
ATOM     16  C   UNL     1      36.469 -20.619 -18.829  0.00  0.00    +0.035 C 
ATOM     17  C   UNL     1      34.694 -22.089 -18.103  0.00  0.00    +0.015 C 
ATOM     18  C   UNL     1      34.349 -20.618 -19.988  0.00  0.00    +0.020 C 
ATOM     19  C   UNL     1      33.873 -21.598 -19.118  0.00  0.00    +0.003 C 
BRANCH  15  20
ATOM     20  S   UNL     1      36.243 -18.902 -20.935  0.00  0.00    +0.057 S 
ATOM     21  O   UNL     1      37.689 -18.817 -20.785  0.00  0.00    -0.153 OA
ATOM     22  O   UNL     1      35.664 -19.134 -22.251  0.00  0.00    -0.153 OA
BRANCH  20  23
ATOM     23  N   UNL     1      35.536 -17.498 -20.265  0.00  0.00    -0.203 NA
ATOM     24  H   UNL     1      35.790 -17.427 -19.280  0.00  0.00    +0.144 HD
ATOM     25  H   UNL     1      34.522 -17.555 -20.352  0.00  0.00    +0.144 HD
ENDBRANCH  20  23
ENDBRANCH  15  20
ENDBRANCH   4  14
BRANCH   6  26
ATOM     26  O   UNL     1      33.670 -24.374 -14.316  0.00  0.00    -0.453 OA
BRANCH  26  27
ATOM     27  C   UNL     1      32.936 -23.652 -13.346  0.00  0.00    +0.208 C 
BRANCH  27  28
ATOM     28  C   UNL     1      31.467 -23.632 -13.767  0.00  0.00    +0.044 C 
ATOM     29  C   UNL     1      31.318 -23.062 -15.184  0.00  0.00    +0.004 C 
ATOM     30  C   UNL     1      30.858 -25.037 -13.677  0.00  0.00    +0.004 C 
ATOM     31  C   UNL     1      29.864 -23.080 -15.649  0.00  0.00    +0.000 C 
ATOM     32  C   UNL     1      29.405 -25.052 -14.144  0.00  0.00    +0.000 C 
ATOM     33  C   UNL     1      29.259 -24.477 -15.549  0.00  0.00    +0.000 C 
ENDBRANCH  27  28
ENDBRANCH  26  27
ENDBRANCH   6  26
TORSDOF 6
ENDMDL
MODEL 6
REMARK VINA RESULT:     -11.5      2.764      5.578
REMARK  Name = 447655
REMARK  6 active torsions:
REMARK  status: ('A' for Active; 'I' for Inactive)
REMARK    1  A    between atoms: N_4  and  C_14
REMARK    2  A    between atoms: C_6  and  O_26
REMARK    3  A    between atoms: C_15  and  S_20
REMARK    4  A    between atoms: S_20  and  N_23
REMARK    5  A    between atoms: O_26  and  C_27
REMARK    6  A    between atoms: C_27  and  C_28
REMARK                            x       y       z     vdW  Elec       q    Type
REMARK                         _______ _______ _______ _____ _____    ______ ____
ROOT
ATOM      1  N   UNL     1      35.426 -23.158 -16.359  0.00  0.00    -0.293 NA
ATOM      2  N   UNL     1      34.215 -21.287 -19.284  0.00  0.00    -0.266 NA
ATOM      3  N   UNL     1      37.070 -21.632 -17.317  0.00  0.00    -0.316 NA
ATOM      4  N   UNL     1      37.574 -22.947 -15.450  0.00  0.00    -0.238 N 
ATOM      5  N   UNL     1      36.259 -20.399 -19.249  0.00  0.00    -0.296 N 
ATOM      6  C   UNL     1      34.502 -22.810 -17.282  0.00  0.00    +0.288 C 
ATOM      7  C   UNL     1      34.854 -21.871 -18.229  0.00  0.00    +0.215 C 
ATOM      8  C   UNL     1      36.122 -21.304 -18.227  0.00  0.00    +0.196 C 
ATOM      9  C   UNL     1      36.636 -22.555 -16.433  0.00  0.00    +0.207 C 
ATOM     10  C   UNL     1      35.096 -20.412 -19.865  0.00  0.00    +0.164 C 
ATOM     11  H   UNL     1      33.290 -21.460 -19.574  0.00  0.00    +0.126 HD
ATOM     12  H   UNL     1      38.443 -22.493 -15.527  0.00  0.00    +0.166 HD
ATOM     13  H   UNL     1      37.051 -19.860 -19.473  0.00  0.00    +0.150 HD
ENDROOT
BRANCH   4  14
ATOM     14  C   UNL     1      37.505 -23.860 -14.381  0.00  0.00    +0.060 C 
ATOM     15  C   UNL     1      36.672 -24.468 -12.193  0.00  0.00    +0.123 C 
ATOM     16  C   UNL     1      36.740 -23.563 -13.252  0.00  0.00    +0.035 C 
ATOM     17  C   UNL     1      38.202 -25.070 -14.447  0.00  0.00    +0.015 C 
ATOM     18  C   UNL     1      37.369 -25.675 -12.262  0.00  0.00    +0.020 C 
ATOM     19  C   UNL     1      38.134 -25.975 -13.389  0.00  0.00    +0.003 C 
BRANCH  15  20
ATOM     20  S   UNL     1      35.714 -24.094 -10.783  0.00  0.00    +0.057 S 
ATOM     21  O   UNL     1      34.556 -23.320 -11.206  0.00  0.00    -0.153 OA
ATOM     22  O   UNL     1      35.524 -25.317 -10.015  0.00  0.00    -0.153 OA
BRANCH  20  23
ATOM     23  N   UNL     1      36.780 -23.069  -9.926  0.00  0.00    -0.203 NA
ATOM     24  H   UNL     1      36.750 -23.302  -8.934  0.00  0.00    +0.144 HD
ATOM     25  H   UNL     1      36.496 -22.099 -10.057  0.00  0.00    +0.144 HD
ENDBRANCH  20  23
ENDBRANCH  15  20
ENDBRANCH   4  14
BRANCH   6  26
ATOM     26  O   UNL     1      33.264 -23.403 -17.235  0.00  0.00    -0.453 OA
BRANCH  26  27
ATOM     27  C   UNL     1      32.287 -22.790 -16.415  0.00  0.00    +0.208 C 
BRANCH  27  28
ATOM     28  C   UNL     1      31.750 -23.836 -15.439  0.00  0.00    +0.044 C 
ATOM     29  C   UNL     1      32.577 -23.846 -14.146  0.00  0.00    +0.004 C 
ATOM     30  C   UNL     1      30.267 -23.583 -15.136  0.00  0.00    +0.004 C 
ATOM     31  C   UNL     1      32.027 -24.846 -13.133  0.00  0.00    +0.000 C 
ATOM     32  C   UNL     1      29.721 -24.584 -14.120  0.00  0.00    +0.000 C 
ATOM     33  C   UNL     1      30.551 -24.598 -12.841  0.00  0.00    +0.000 C 
ENDBRANCH  27  28
ENDBRANCH  26  27
ENDBRANCH   6  26
TORSDOF 6
ENDMDL
MODEL 7
REMARK VINA RESULT:     -11.1      3.294      5.877
REMARK  Name = 447655
REMARK  6 active torsions:
REMARK  status: ('A' for Active; 'I' for Inactive)
REMARK    1  A    between atoms: N_4  and  C_14
REMARK    2  A    between atoms: C_6  and  O_26
REMARK    3  A    between atoms: C_15  and  S_20
REMARK    4  A    between atoms: S_20  and  N_23
REMARK    5  A    between atoms: O_26  and  C_27
REMARK    6  A    between atoms: C_27  and  C_28
REMARK                            x       y       z     vdW  Elec       q    Type
REMARK                         _______ _______ _______ _____ _____    ______ ____
ROOT
ATOM      1  N   UNL     1      35.079 -22.455 -17.100  0.00  0.00    -0.293 NA
ATOM      2  N   UNL     1      33.523 -20.933 -20.065  0.00  0.00    -0.266 NA
ATOM      3  N   UNL     1      36.520 -20.885 -18.287  0.00  0.00    -0.316 NA
ATOM      4  N   UNL     1      37.256 -21.997 -16.366  0.00  0.00    -0.238 N 
ATOM      5  N   UNL     1      35.481 -19.884 -20.245  0.00  0.00    -0.296 N 
ATOM      6  C   UNL     1      34.070 -22.259 -17.978  0.00  0.00    +0.288 C 
ATOM      7  C   UNL     1      34.278 -21.375 -19.017  0.00  0.00    +0.215 C 
ATOM      8  C   UNL     1      35.490 -20.710 -19.150  0.00  0.00    +0.196 C 
ATOM      9  C   UNL     1      36.226 -21.764 -17.306  0.00  0.00    +0.207 C 
ATOM     10  C   UNL     1      34.286 -20.042 -20.773  0.00  0.00    +0.164 C 
ATOM     11  H   UNL     1      32.601 -21.204 -20.274  0.00  0.00    +0.126 HD
ATOM     12  H   UNL     1      38.076 -21.482 -16.540  0.00  0.00    +0.166 HD
ATOM     13  H   UNL     1      36.208 -19.302 -20.566  0.00  0.00    +0.150 HD
ENDROOT
BRANCH   4  14
ATOM     14  C   UNL     1      37.336 -22.822 -15.229  0.00  0.00    +0.060 C 
ATOM     15  C   UNL     1      38.283 -24.732 -14.086  0.00  0.00    +0.123 C 
ATOM     16  C   UNL     1      38.204 -23.915 -15.215  0.00  0.00    +0.035 C 
ATOM     17  C   UNL     1      36.547 -22.547 -14.108  0.00  0.00    +0.015 C 
ATOM     18  C   UNL     1      37.495 -24.456 -12.969  0.00  0.00    +0.020 C 
ATOM     19  C   UNL     1      36.627 -23.363 -12.980  0.00  0.00    +0.003 C 
BRANCH  15  20
ATOM     20  S   UNL     1      39.369 -26.098 -14.071  0.00  0.00    +0.057 S 
ATOM     21  O   UNL     1      40.248 -25.973 -12.917  0.00  0.00    -0.153 OA
ATOM     22  O   UNL     1      38.587 -27.313 -14.255  0.00  0.00    -0.153 OA
BRANCH  20  23
ATOM     23  N   UNL     1      40.277 -25.810 -15.490  0.00  0.00    -0.203 NA
ATOM     24  H   UNL     1      41.145 -26.343 -15.451  0.00  0.00    +0.144 HD
ATOM     25  H   UNL     1      40.490 -24.815 -15.560  0.00  0.00    +0.144 HD
ENDBRANCH  20  23
ENDBRANCH  15  20
ENDBRANCH   4  14
BRANCH   6  26
ATOM     26  O   UNL     1      32.894 -22.944 -17.798  0.00  0.00    -0.453 OA
BRANCH  26  27
ATOM     27  C   UNL     1      32.062 -22.526 -16.732  0.00  0.00    +0.208 C 
BRANCH  27  28
ATOM     28  C   UNL     1      31.985 -23.655 -15.707  0.00  0.00    +0.044 C 
ATOM     29  C   UNL     1      32.872 -23.348 -14.493  0.00  0.00    +0.004 C 
ATOM     30  C   UNL     1      30.532 -23.896 -15.274  0.00  0.00    +0.004 C 
ATOM     31  C   UNL     1      32.770 -24.439 -13.429  0.00  0.00    +0.000 C 
ATOM     32  C   UNL     1      30.435 -24.985 -14.209  0.00  0.00    +0.000 C 
ATOM     33  C   UNL     1      31.325 -24.681 -13.008  0.00  0.00    +0.000 C 
ENDBRANCH  27  28
ENDBRANCH  26  27
ENDBRANCH   6  26
TORSDOF 6
ENDMDL
MODEL 8
REMARK VINA RESULT:     -10.1      6.450      9.564
REMARK  Name = 447655
REMARK  6 active torsions:
REMARK  status: ('A' for Active; 'I' for Inactive)
REMARK    1  A    between atoms: N_4  and  C_14
REMARK    2  A    between atoms: C_6  and  O_26
REMARK    3  A    between atoms: C_15  and  S_20
REMARK    4  A    between atoms: S_20  and  N_23
REMARK    5  A    between atoms: O_26  and  C_27
REMARK    6  A    between atoms: C_27  and  C_28
REMARK                            x       y       z     vdW  Elec       q    Type
REMARK                         _______ _______ _______ _____ _____    ______ ____
ROOT
ATOM      1  N   UNL     1      35.061 -17.322 -21.721  0.00  0.00    -0.293 NA
ATOM      2  N   UNL     1      34.288 -14.738 -24.221  0.00  0.00    -0.266 NA
ATOM      3  N   UNL     1      34.298 -18.204 -23.863  0.00  0.00    -0.316 NA
ATOM      4  N   UNL     1      34.859 -19.625 -22.092  0.00  0.00    -0.238 N 
ATOM      5  N   UNL     1      33.791 -16.488 -25.509  0.00  0.00    -0.296 N 
ATOM      6  C   UNL     1      34.953 -16.048 -22.158  0.00  0.00    +0.288 C 
ATOM      7  C   UNL     1      34.517 -15.842 -23.451  0.00  0.00    +0.215 C 
ATOM      8  C   UNL     1      34.201 -16.916 -24.272  0.00  0.00    +0.196 C 
ATOM      9  C   UNL     1      34.732 -18.308 -22.589  0.00  0.00    +0.207 C 
ATOM     10  C   UNL     1      33.855 -15.175 -25.446  0.00  0.00    +0.164 C 
ATOM     11  H   UNL     1      34.413 -13.801 -23.948  0.00  0.00    +0.126 HD
ATOM     12  H   UNL     1      34.614 -20.321 -22.744  0.00  0.00    +0.166 HD
ATOM     13  H   UNL     1      33.511 -17.040 -26.275  0.00  0.00    +0.150 HD
ENDROOT
BRANCH   4  14
ATOM     14  C   UNL     1      35.268 -20.136 -20.847  0.00  0.00    +0.060 C 
ATOM     15  C   UNL     1      34.850 -21.522 -18.909  0.00  0.00    +0.123 C 
ATOM     16  C   UNL     1      34.443 -21.015 -20.143  0.00  0.00    +0.035 C 
ATOM     17  C   UNL     1      36.506 -19.767 -20.311  0.00  0.00    +0.015 C 
ATOM     18  C   UNL     1      36.086 -21.152 -18.376  0.00  0.00    +0.020 C 
ATOM     19  C   UNL     1      36.913 -20.274 -19.078  0.00  0.00    +0.003 C 
BRANCH  15  20
ATOM     20  S   UNL     1      33.817 -22.621 -18.031  0.00  0.00    +0.057 S 
ATOM     21  O   UNL     1      34.464 -22.952 -16.770  0.00  0.00    -0.153 OA
ATOM     22  O   UNL     1      32.464 -22.080 -18.029  0.00  0.00    -0.153 OA
BRANCH  20  23
ATOM     23  N   UNL     1      33.857 -23.992 -19.050  0.00  0.00    -0.203 NA
ATOM     24  H   UNL     1      34.089 -24.818 -18.498  0.00  0.00    +0.144 HD
ATOM     25  H   UNL     1      34.564 -23.857 -19.772  0.00  0.00    +0.144 HD
ENDBRANCH  20  23
ENDBRANCH  15  20
ENDBRANCH   4  14
BRANCH   6  26
ATOM     26  O   UNL     1      35.279 -15.024 -21.303  0.00  0.00    -0.453 OA
BRANCH  26  27
ATOM     27  C   UNL     1      34.296 -14.635 -20.361  0.00  0.00    +0.208 C 
BRANCH  27  28
ATOM     28  C   UNL     1      33.317 -13.686 -21.048  0.00  0.00    +0.044 C 
ATOM     29  C   UNL     1      32.419 -12.991 -20.015  0.00  0.00    +0.004 C 
ATOM     30  C   UNL     1      34.069 -12.654 -21.900  0.00  0.00    +0.004 C 
ATOM     31  C   UNL     1      31.467 -11.996 -20.674  0.00  0.00    +0.000 C 
ATOM     32  C   UNL     1      33.113 -11.660 -22.555  0.00  0.00    +0.000 C 
ATOM     33  C   UNL     1      32.217 -10.978 -21.526  0.00  0.00    +0.000 C 
ENDBRANCH  27  28
ENDBRANCH  26  27
ENDBRANCH   6  26
TORSDOF 6
ENDMDL
MODEL 9
REMARK VINA RESULT:     -10.0      6.963     10.162
REMARK  Name = 447655
REMARK  6 active torsions:
REMARK  status: ('A' for Active; 'I' for Inactive)
REMARK    1  A    between atoms: N_4  and  C_14
REMARK    2  A    between atoms: C_6  and  O_26
REMARK    3  A    between atoms: C_15  and  S_20
REMARK    4  A    between atoms: S_20  and  N_23
REMARK    5  A    between atoms: O_26  and  C_27
REMARK    6  A    between atoms: C_27  and  C_28
REMARK                            x       y       z     vdW  Elec       q    Type
REMARK                         _______ _______ _______ _____ _____    ______ ____
ROOT
ATOM      1  N   UNL     1      34.854 -16.629 -21.818  0.00  0.00    -0.293 NA
ATOM      2  N   UNL     1      33.813 -13.863 -24.007  0.00  0.00    -0.266 NA
ATOM      3  N   UNL     1      34.500 -17.276 -24.143  0.00  0.00    -0.316 NA
ATOM      4  N   UNL     1      35.166 -18.837 -22.533  0.00  0.00    -0.238 N 
ATOM      5  N   UNL     1      33.814 -15.440 -25.582  0.00  0.00    -0.296 N 
ATOM      6  C   UNL     1      34.529 -15.343 -22.082  0.00  0.00    +0.288 C 
ATOM      7  C   UNL     1      34.187 -15.015 -23.377  0.00  0.00    +0.215 C 
ATOM      8  C   UNL     1      34.180 -15.980 -24.375  0.00  0.00    +0.196 C 
ATOM      9  C   UNL     1      34.820 -17.503 -22.852  0.00  0.00    +0.207 C 
ATOM     10  C   UNL     1      33.599 -14.167 -25.326  0.00  0.00    +0.164 C 
ATOM     11  H   UNL     1      33.715 -12.976 -23.591  0.00  0.00    +0.126 HD
ATOM     12  H   UNL     1      35.134 -19.449 -23.303  0.00  0.00    +0.166 HD
ATOM     13  H   UNL     1      33.728 -15.902 -26.447  0.00  0.00    +0.150 HD
ENDROOT
BRANCH   4  14
ATOM     14  C   UNL     1      35.549 -19.458 -21.331  0.00  0.00    +0.060 C 
ATOM     15  C   UNL     1      35.080 -20.994 -19.521  0.00  0.00    +0.123 C 
ATOM     16  C   UNL     1      34.699 -20.377 -20.713  0.00  0.00    +0.035 C 
ATOM     17  C   UNL     1      36.785 -19.159 -20.750  0.00  0.00    +0.015 C 
ATOM     18  C   UNL     1      36.314 -20.692 -18.944  0.00  0.00    +0.020 C 
ATOM     19  C   UNL     1      37.166 -19.775 -19.559  0.00  0.00    +0.003 C 
BRANCH  15  20
ATOM     20  S   UNL     1      34.014 -22.142 -18.752  0.00  0.00    +0.057 S 
ATOM     21  O   UNL     1      32.737 -21.489 -18.503  0.00  0.00    -0.153 OA
ATOM     22  O   UNL     1      34.055 -23.387 -19.507  0.00  0.00    -0.153 OA
BRANCH  20  23
ATOM     23  N   UNL     1      34.813 -22.380 -17.260  0.00  0.00    -0.203 NA
ATOM     24  H   UNL     1      34.138 -22.307 -16.499  0.00  0.00    +0.144 HD
ATOM     25  H   UNL     1      35.534 -21.668 -17.144  0.00  0.00    +0.144 HD
ENDBRANCH  20  23
ENDBRANCH  15  20
ENDBRANCH   4  14
BRANCH   6  26
ATOM     26  O   UNL     1      34.553 -14.430 -21.056  0.00  0.00    -0.453 OA
BRANCH  26  27
ATOM     27  C   UNL     1      33.337 -14.203 -20.369  0.00  0.00    +0.208 C 
BRANCH  27  28
ATOM     28  C   UNL     1      32.984 -12.722 -20.487  0.00  0.00    +0.044 C 
ATOM     29  C   UNL     1      32.081 -12.474 -21.703  0.00  0.00    +0.004 C 
ATOM     30  C   UNL     1      32.315 -12.220 -19.200  0.00  0.00    +0.004 C 
ATOM     31  C   UNL     1      31.671 -11.008 -21.811  0.00  0.00    +0.000 C 
ATOM     32  C   UNL     1      31.905 -10.754 -19.313  0.00  0.00    +0.000 C 
ATOM     33  C   UNL     1      31.015 -10.510 -20.527  0.00  0.00    +0.000 C 
ENDBRANCH  27  28
ENDBRANCH  26  27
ENDBRANCH   6  26
TORSDOF 6
ENDMDL
