MODEL 1
REMARK VINA RESULT:     -12.2      0.000      0.000
REMARK  Name = 11224409
REMARK  8 active torsions:
REMARK  status: ('A' for Active; 'I' for Inactive)
REMARK    1  A    between atoms: C_2  and  N_10
REMARK    2  A    between atoms: C_5  and  C_20
REMARK    3  A    between atoms: C_11  and  C_14
REMARK    4  A    between atoms: C_14  and  N_16
REMARK    5  A    between atoms: C_21  and  C_26
REMARK    6  A    between atoms: C_26  and  N_27
REMARK    7  A    between atoms: N_27  and  C_30
REMARK    8  A    between atoms: C_30  and  C_34
REMARK                            x       y       z     vdW  Elec       q    Type
REMARK                         _______ _______ _______ _____ _____    ______ ____
ROOT
ATOM      1  F   UNL     1      37.137 -19.579 -20.414  0.00  0.00    -0.204 F 
ATOM      2  C   UNL     1      34.680 -21.490 -18.536  0.00  0.00    +0.059 C 
ATOM      3  C   UNL     1      35.907 -20.983 -18.968  0.00  0.00    +0.045 C 
ATOM      4  C   UNL     1      33.499 -21.069 -19.146  0.00  0.00    +0.015 C 
ATOM      5  C   UNL     1      34.769 -19.636 -20.619  0.00  0.00    +0.028 C 
ATOM      6  C   UNL     1      35.950 -20.057 -20.010  0.00  0.00    +0.141 C 
ATOM      7  C   UNL     1      33.542 -20.141 -20.187  0.00  0.00    +0.004 C 
ENDROOT
BRANCH   2  10
ATOM      8  O   UNL     1      35.183 -23.677 -15.669  0.00  0.00    -0.434 OA
ATOM      9  O   UNL     1      36.719 -22.168 -16.383  0.00  0.00    -0.226 OA
ATOM     10  N   UNL     1      34.636 -22.436 -17.473  0.00  0.00    -0.221 N 
ATOM     11  C   UNL     1      33.797 -23.941 -15.928  0.00  0.00    +0.210 C 
ATOM     12  C   UNL     1      33.561 -23.377 -17.313  0.00  0.00    +0.147 C 
ATOM     13  C   UNL     1      35.616 -22.681 -16.515  0.00  0.00    +0.409 C 
BRANCH  11  14
ATOM     14  C   UNL     1      32.959 -23.264 -14.852  0.00  0.00    +0.135 C 
BRANCH  14  16
ATOM     15  O   UNL     1      31.914 -25.069 -12.832  0.00  0.00    -0.275 OA
ATOM     16  N   UNL     1      31.644 -23.830 -14.787  0.00  0.00    -0.301 N 
ATOM     17  C   UNL     1      31.227 -24.691 -13.777  0.00  0.00    +0.223 C 
ATOM     18  C   UNL     1      29.792 -25.117 -13.937  0.00  0.00    +0.095 C 
ATOM     19  H   UNL     1      31.002 -23.597 -15.496  0.00  0.00    +0.150 HD
ENDBRANCH  14  16
ENDBRANCH  11  14
ENDBRANCH   2  10
BRANCH   5  20
ATOM     20  C   UNL     1      34.809 -18.675 -21.701  0.00  0.00    +0.002 C 
ATOM     21  C   UNL     1      34.890 -16.824 -23.785  0.00  0.00    -0.044 C 
ATOM     22  C   UNL     1      35.331 -17.401 -21.482  0.00  0.00    -0.000 C 
ATOM     23  C   UNL     1      34.327 -19.024 -22.963  0.00  0.00    -0.000 C 
ATOM     24  C   UNL     1      35.373 -16.475 -22.524  0.00  0.00    -0.006 C 
ATOM     25  C   UNL     1      34.367 -18.098 -24.005  0.00  0.00    -0.006 C 
BRANCH  21  26
ATOM     26  C   UNL     1      34.934 -15.833 -24.900  0.00  0.00    -0.054 C 
BRANCH  26  27
ATOM     27  N   UNL     1      33.605 -15.333 -25.255  0.00  0.00    +0.390 N 
ATOM     28  H   UNL     1      32.976 -16.124 -25.397  0.00  0.00    -0.083 HD
ATOM     29  H   UNL     1      33.679 -14.784 -26.111  0.00  0.00    -0.083 HD
BRANCH  27  30
ATOM     30  C   UNL     1      33.076 -14.486 -24.199  0.00  0.00    -0.031 C 
BRANCH  30  34
ATOM     31  N   UNL     1      34.282 -12.545 -23.250  0.00  0.00    -0.170 NA
ATOM     32  N   UNL     1      34.574 -11.331 -23.743  0.00  0.00    -0.157 N 
ATOM     33  N   UNL     1      34.168 -11.031 -24.988  0.00  0.00    -0.162 NA
ATOM     34  C   UNL     1      33.622 -13.085 -24.278  0.00  0.00    +0.077 C 
ATOM     35  C   UNL     1      33.552 -12.165 -25.334  0.00  0.00    +0.133 C 
ATOM     36  H   UNL     1      35.074 -10.676 -23.205  0.00  0.00    +0.197 HD
ENDBRANCH  30  34
ENDBRANCH  27  30
ENDBRANCH  26  27
ENDBRANCH  21  26
ENDBRANCH   5  20
TORSDOF 8
ENDMDL
MODEL 2
REMARK VINA RESULT:     -11.9      0.981      1.343
REMARK  Name = 11224409
REMARK  8 active torsions:
REMARK  status: ('A' for Active; 'I' for Inactive)
REMARK    1  A    between atoms: C_2  and  N_10
REMARK    2  A    between atoms: C_5  and  C_20
REMARK    3  A    between atoms: C_11  and  C_14
REMARK    4  A    between atoms: C_14  and  N_16
REMARK    5  A    between atoms: C_21  and  C_26
REMARK    6  A    between atoms: C_26  and  N_27
REMARK    7  A    between atoms: N_27  and  C_30
REMARK    8  A    between atoms: C_30  and  C_34
REMARK                            x       y       z     vdW  Elec       q    Type
REMARK                         _______ _______ _______ _____ _____    ______ ____
ROOT
ATOM      1  F   UNL     1      37.077 -19.566 -20.631  0.00  0.00    -0.204 F 
ATOM      2  C   UNL     1      34.737 -21.455 -18.590  0.00  0.00    +0.059 C 
ATOM      3  C   UNL     1      35.935 -20.948 -19.095  0.00  0.00    +0.045 C 
ATOM      4  C   UNL     1      33.522 -21.057 -19.148  0.00  0.00    +0.015 C 
ATOM      5  C   UNL     1      34.703 -19.647 -20.715  0.00  0.00    +0.028 C 
ATOM      6  C   UNL     1      35.917 -20.044 -20.157  0.00  0.00    +0.141 C 
ATOM      7  C   UNL     1      33.504 -20.152 -20.210  0.00  0.00    +0.004 C 
ENDROOT
BRANCH   2  10
ATOM      8  O   UNL     1      35.397 -23.563 -15.696  0.00  0.00    -0.434 OA
ATOM      9  O   UNL     1      36.865 -22.028 -16.493  0.00  0.00    -0.226 OA
ATOM     10  N   UNL     1      34.755 -22.378 -17.507  0.00  0.00    -0.221 N 
ATOM     11  C   UNL     1      34.012 -23.871 -15.901  0.00  0.00    +0.210 C 
ATOM     12  C   UNL     1      33.713 -23.345 -17.289  0.00  0.00    +0.147 C 
ATOM     13  C   UNL     1      35.773 -22.574 -16.577  0.00  0.00    +0.409 C 
BRANCH  11  14
ATOM     14  C   UNL     1      33.191 -23.193 -14.813  0.00  0.00    +0.135 C 
BRANCH  14  16
ATOM     15  O   UNL     1      30.409 -23.027 -15.626  0.00  0.00    -0.275 OA
ATOM     16  N   UNL     1      32.108 -24.028 -14.386  0.00  0.00    -0.301 N 
ATOM     17  C   UNL     1      30.798 -23.876 -14.829  0.00  0.00    +0.223 C 
ATOM     18  C   UNL     1      29.865 -24.901 -14.241  0.00  0.00    +0.095 C 
ATOM     19  H   UNL     1      32.301 -24.748 -13.742  0.00  0.00    +0.150 HD
ENDBRANCH  14  16
ENDBRANCH  11  14
ENDBRANCH   2  10
BRANCH   5  20
ATOM     20  C   UNL     1      34.680 -18.709 -21.817  0.00  0.00    +0.002 C 
ATOM     21  C   UNL     1      34.633 -16.902 -23.941  0.00  0.00    -0.044 C 
ATOM     22  C   UNL     1      34.232 -19.120 -23.072  0.00  0.00    -0.000 C 
ATOM     23  C   UNL     1      35.104 -17.394 -21.624  0.00  0.00    -0.000 C 
ATOM     24  C   UNL     1      34.208 -18.216 -24.134  0.00  0.00    -0.006 C 
ATOM     25  C   UNL     1      35.082 -16.491 -22.685  0.00  0.00    -0.006 C 
BRANCH  21  26
ATOM     26  C   UNL     1      34.607 -15.935 -25.077  0.00  0.00    -0.054 C 
BRANCH  26  27
ATOM     27  N   UNL     1      33.321 -15.246 -25.194  0.00  0.00    +0.390 N 
ATOM     28  H   UNL     1      32.830 -15.299 -24.302  0.00  0.00    -0.083 HD
ATOM     29  H   UNL     1      32.773 -15.697 -25.926  0.00  0.00    -0.083 HD
BRANCH  27  30
ATOM     30  C   UNL     1      33.517 -13.850 -25.549  0.00  0.00    -0.031 C 
BRANCH  30  34
ATOM     31  N   UNL     1      32.862 -13.389 -23.207  0.00  0.00    -0.170 NA
ATOM     32  N   UNL     1      32.941 -12.285 -22.446  0.00  0.00    -0.157 N 
ATOM     33  N   UNL     1      33.463 -11.171 -22.984  0.00  0.00    -0.162 NA
ATOM     34  C   UNL     1      33.387 -12.944 -24.352  0.00  0.00    +0.077 C 
ATOM     35  C   UNL     1      33.752 -11.597 -24.217  0.00  0.00    +0.133 C 
ATOM     36  H   UNL     1      32.622 -12.292 -21.515  0.00  0.00    +0.197 HD
ENDBRANCH  30  34
ENDBRANCH  27  30
ENDBRANCH  26  27
ENDBRANCH  21  26
ENDBRANCH   5  20
TORSDOF 8
ENDMDL
MODEL 3
REMARK VINA RESULT:     -11.8      4.336     11.653
REMARK  Name = 11224409
REMARK  8 active torsions:
REMARK  status: ('A' for Active; 'I' for Inactive)
REMARK    1  A    between atoms: C_2  and  N_10
REMARK    2  A    between atoms: C_5  and  C_20
REMARK    3  A    between atoms: C_11  and  C_14
REMARK    4  A    between atoms: C_14  and  N_16
REMARK    5  A    between atoms: C_21  and  C_26
REMARK    6  A    between atoms: C_26  and  N_27
REMARK    7  A    between atoms: N_27  and  C_30
REMARK    8  A    between atoms: C_30  and  C_34
REMARK                            x       y       z     vdW  Elec       q    Type
REMARK                         _______ _______ _______ _____ _____    ______ ____
ROOT
ATOM      1  F   UNL     1      32.987 -20.817 -19.716  0.00  0.00    -0.204 F 
ATOM      2  C   UNL     1      34.978 -18.714 -21.912  0.00  0.00    +0.059 C 
ATOM      3  C   UNL     1      33.881 -19.375 -21.358  0.00  0.00    +0.045 C 
ATOM      4  C   UNL     1      36.243 -18.867 -21.345  0.00  0.00    +0.015 C 
ATOM      5  C   UNL     1      35.316 -20.341 -19.671  0.00  0.00    +0.028 C 
ATOM      6  C   UNL     1      34.051 -20.189 -20.238  0.00  0.00    +0.141 C 
ATOM      7  C   UNL     1      36.413 -19.680 -20.225  0.00  0.00    +0.004 C 
ENDROOT
BRANCH   2  10
ATOM      8  O   UNL     1      34.252 -17.138 -25.113  0.00  0.00    -0.434 OA
ATOM      9  O   UNL     1      33.746 -19.296 -24.632  0.00  0.00    -0.226 OA
ATOM     10  N   UNL     1      34.805 -17.884 -23.056  0.00  0.00    -0.221 N 
ATOM     11  C   UNL     1      34.663 -15.983 -24.369  0.00  0.00    +0.210 C 
ATOM     12  C   UNL     1      35.338 -16.551 -23.139  0.00  0.00    +0.147 C 
ATOM     13  C   UNL     1      34.216 -18.226 -24.271  0.00  0.00    +0.409 C 
BRANCH  11  14
ATOM     14  C   UNL     1      33.434 -15.144 -24.046  0.00  0.00    +0.135 C 
BRANCH  14  16
ATOM     15  O   UNL     1      34.206 -13.089 -22.145  0.00  0.00    -0.275 OA
ATOM     16  N   UNL     1      33.669 -13.756 -24.312  0.00  0.00    -0.301 N 
ATOM     17  C   UNL     1      34.038 -12.837 -23.335  0.00  0.00    +0.223 C 
ATOM     18  C   UNL     1      34.245 -11.453 -23.891  0.00  0.00    +0.095 C 
ATOM     19  H   UNL     1      33.563 -13.435 -25.238  0.00  0.00    +0.150 HD
ENDBRANCH  14  16
ENDBRANCH  11  14
ENDBRANCH   2  10
BRANCH   5  20
ATOM     20  C   UNL     1      35.496 -21.184 -18.509  0.00  0.00    +0.002 C 
ATOM     21  C   UNL     1      35.845 -22.812 -16.271  0.00  0.00    -0.044 C 
ATOM     22  C   UNL     1      34.453 -21.999 -18.071  0.00  0.00    -0.000 C 
ATOM     23  C   UNL     1      36.714 -21.183 -17.828  0.00  0.00    -0.000 C 
ATOM     24  C   UNL     1      34.628 -22.814 -16.951  0.00  0.00    -0.006 C 
ATOM     25  C   UNL     1      36.889 -21.996 -16.709  0.00  0.00    -0.006 C 
BRANCH  21  26
ATOM     26  C   UNL     1      36.031 -23.683 -15.074  0.00  0.00    -0.054 C 
BRANCH  26  27
ATOM     27  N   UNL     1      37.398 -24.195 -14.964  0.00  0.00    +0.390 N 
ATOM     28  H   UNL     1      38.021 -23.433 -14.696  0.00  0.00    -0.083 HD
ATOM     29  H   UNL     1      37.678 -24.580 -15.866  0.00  0.00    -0.083 HD
BRANCH  27  30
ATOM     30  C   UNL     1      37.473 -25.247 -13.963  0.00  0.00    -0.031 C 
BRANCH  30  34
ATOM     31  N   UNL     1      38.453 -23.878 -12.149  0.00  0.00    -0.170 NA
ATOM     32  N   UNL     1      38.063 -23.636 -10.887  0.00  0.00    -0.157 N 
ATOM     33  N   UNL     1      36.933 -24.211 -10.444  0.00  0.00    -0.162 NA
ATOM     34  C   UNL     1      37.476 -24.690 -12.564  0.00  0.00    +0.077 C 
ATOM     35  C   UNL     1      36.554 -24.893 -11.528  0.00  0.00    +0.133 C 
ATOM     36  H   UNL     1      38.595 -23.052 -10.300  0.00  0.00    +0.197 HD
ENDBRANCH  30  34
ENDBRANCH  27  30
ENDBRANCH  26  27
ENDBRANCH  21  26
ENDBRANCH   5  20
TORSDOF 8
ENDMDL
MODEL 4
REMARK VINA RESULT:     -11.7      4.352     11.699
REMARK  Name = 11224409
REMARK  8 active torsions:
REMARK  status: ('A' for Active; 'I' for Inactive)
REMARK    1  A    between atoms: C_2  and  N_10
REMARK    2  A    between atoms: C_5  and  C_20
REMARK    3  A    between atoms: C_11  and  C_14
REMARK    4  A    between atoms: C_14  and  N_16
REMARK    5  A    between atoms: C_21  and  C_26
REMARK    6  A    between atoms: C_26  and  N_27
REMARK    7  A    between atoms: N_27  and  C_30
REMARK    8  A    between atoms: C_30  and  C_34
REMARK                            x       y       z     vdW  Elec       q    Type
REMARK                         _______ _______ _______ _____ _____    ______ ____
ROOT
ATOM      1  F   UNL     1      36.927 -20.652 -19.510  0.00  0.00    -0.204 F 
ATOM      2  C   UNL     1      34.568 -19.031 -21.750  0.00  0.00    +0.059 C 
ATOM      3  C   UNL     1      35.771 -19.426 -21.164  0.00  0.00    +0.045 C 
ATOM      4  C   UNL     1      33.357 -19.492 -21.233  0.00  0.00    +0.015 C 
ATOM      5  C   UNL     1      34.551 -20.741 -19.545  0.00  0.00    +0.028 C 
ATOM      6  C   UNL     1      35.762 -20.281 -20.062  0.00  0.00    +0.141 C 
ATOM      7  C   UNL     1      33.348 -20.347 -20.131  0.00  0.00    +0.004 C 
ENDROOT
BRANCH   2  10
ATOM      8  O   UNL     1      34.150 -17.237 -24.890  0.00  0.00    -0.434 OA
ATOM      9  O   UNL     1      33.080 -19.176 -24.399  0.00  0.00    -0.226 OA
ATOM     10  N   UNL     1      34.577 -18.158 -22.874  0.00  0.00    -0.221 N 
ATOM     11  C   UNL     1      34.909 -16.263 -24.161  0.00  0.00    +0.210 C 
ATOM     12  C   UNL     1      35.460 -17.028 -22.976  0.00  0.00    +0.147 C 
ATOM     13  C   UNL     1      33.852 -18.291 -24.057  0.00  0.00    +0.409 C 
BRANCH  11  14
ATOM     14  C   UNL     1      33.986 -15.120 -23.761  0.00  0.00    +0.135 C 
BRANCH  14  16
ATOM     15  O   UNL     1      33.832 -12.238 -24.080  0.00  0.00    -0.275 OA
ATOM     16  N   UNL     1      33.532 -14.394 -24.910  0.00  0.00    -0.301 N 
ATOM     17  C   UNL     1      33.492 -13.005 -24.976  0.00  0.00    +0.223 C 
ATOM     18  C   UNL     1      32.997 -12.503 -26.307  0.00  0.00    +0.095 C 
ATOM     19  H   UNL     1      33.231 -14.907 -25.696  0.00  0.00    +0.150 HD
ENDBRANCH  14  16
ENDBRANCH  11  14
ENDBRANCH   2  10
BRANCH   5  20
ATOM     20  C   UNL     1      34.538 -21.628 -18.402  0.00  0.00    +0.002 C 
ATOM     21  C   UNL     1      34.512 -23.339 -16.199  0.00  0.00    -0.044 C 
ATOM     22  C   UNL     1      33.389 -22.357 -18.099  0.00  0.00    -0.000 C 
ATOM     23  C   UNL     1      35.675 -21.754 -17.603  0.00  0.00    -0.000 C 
ATOM     24  C   UNL     1      33.376 -23.214 -16.998  0.00  0.00    -0.006 C 
ATOM     25  C   UNL     1      35.662 -22.609 -16.501  0.00  0.00    -0.006 C 
BRANCH  21  26
ATOM     26  C   UNL     1      34.498 -24.255 -15.022  0.00  0.00    -0.054 C 
BRANCH  26  27
ATOM     27  N   UNL     1      35.797 -24.320 -14.350  0.00  0.00    +0.390 N 
ATOM     28  H   UNL     1      35.682 -24.054 -13.372  0.00  0.00    -0.083 HD
ATOM     29  H   UNL     1      36.440 -23.680 -14.816  0.00  0.00    -0.083 HD
BRANCH  27  30
ATOM     30  C   UNL     1      36.344 -25.665 -14.417  0.00  0.00    -0.031 C 
BRANCH  30  34
ATOM     31  N   UNL     1      38.524 -26.818 -14.205  0.00  0.00    -0.170 NA
ATOM     32  N   UNL     1      39.744 -26.387 -13.849  0.00  0.00    -0.157 N 
ATOM     33  N   UNL     1      39.898 -25.091 -13.529  0.00  0.00    -0.162 NA
ATOM     34  C   UNL     1      37.818 -25.688 -14.107  0.00  0.00    +0.077 C 
ATOM     35  C   UNL     1      38.652 -24.639 -13.696  0.00  0.00    +0.133 C 
ATOM     36  H   UNL     1      40.509 -27.006 -13.821  0.00  0.00    +0.197 HD
ENDBRANCH  30  34
ENDBRANCH  27  30
ENDBRANCH  26  27
ENDBRANCH  21  26
ENDBRANCH   5  20
TORSDOF 8
ENDMDL
MODEL 5
REMARK VINA RESULT:     -11.6      4.524     11.741
REMARK  Name = 11224409
REMARK  8 active torsions:
REMARK  status: ('A' for Active; 'I' for Inactive)
REMARK    1  A    between atoms: C_2  and  N_10
REMARK    2  A    between atoms: C_5  and  C_20
REMARK    3  A    between atoms: C_11  and  C_14
REMARK    4  A    between atoms: C_14  and  N_16
REMARK    5  A    between atoms: C_21  and  C_26
REMARK    6  A    between atoms: C_26  and  N_27
REMARK    7  A    between atoms: N_27  and  C_30
REMARK    8  A    between atoms: C_30  and  C_34
REMARK                            x       y       z     vdW  Elec       q    Type
REMARK                         _______ _______ _______ _____ _____    ______ ____
ROOT
ATOM      1  F   UNL     1      37.450 -19.570 -19.799  0.00  0.00    -0.204 F 
ATOM      2  C   UNL     1      34.836 -18.598 -22.130  0.00  0.00    +0.059 C 
ATOM      3  C   UNL     1      36.081 -18.681 -21.504  0.00  0.00    +0.045 C 
ATOM      4  C   UNL     1      33.760 -19.338 -21.640  0.00  0.00    +0.015 C 
ATOM      5  C   UNL     1      35.171 -20.241 -19.900  0.00  0.00    +0.028 C 
ATOM      6  C   UNL     1      36.248 -19.502 -20.389  0.00  0.00    +0.141 C 
ATOM      7  C   UNL     1      33.927 -20.160 -20.526  0.00  0.00    +0.004 C 
ENDROOT
BRANCH   2  10
ATOM      8  O   UNL     1      34.095 -16.990 -25.311  0.00  0.00    -0.434 OA
ATOM      9  O   UNL     1      33.534 -19.133 -24.826  0.00  0.00    -0.226 OA
ATOM     10  N   UNL     1      34.666 -17.759 -23.267  0.00  0.00    -0.221 N 
ATOM     11  C   UNL     1      34.555 -15.850 -24.572  0.00  0.00    +0.210 C 
ATOM     12  C   UNL     1      35.237 -16.442 -23.357  0.00  0.00    +0.147 C 
ATOM     13  C   UNL     1      34.043 -18.080 -24.472  0.00  0.00    +0.409 C 
BRANCH  11  14
ATOM     14  C   UNL     1      33.358 -14.976 -24.222  0.00  0.00    +0.135 C 
BRANCH  14  16
ATOM     15  O   UNL     1      32.989 -12.699 -25.986  0.00  0.00    -0.275 OA
ATOM     16  N   UNL     1      33.758 -13.620 -23.989  0.00  0.00    -0.301 N 
ATOM     17  C   UNL     1      33.540 -12.587 -24.894  0.00  0.00    +0.223 C 
ATOM     18  C   UNL     1      34.037 -11.259 -24.388  0.00  0.00    +0.095 C 
ATOM     19  H   UNL     1      34.213 -13.409 -23.141  0.00  0.00    +0.150 HD
ENDBRANCH  14  16
ENDBRANCH  11  14
ENDBRANCH   2  10
BRANCH   5  20
ATOM     20  C   UNL     1      35.340 -21.095 -18.744  0.00  0.00    +0.002 C 
ATOM     21  C   UNL     1      35.665 -22.738 -16.514  0.00  0.00    -0.044 C 
ATOM     22  C   UNL     1      36.563 -21.128 -18.074  0.00  0.00    -0.000 C 
ATOM     23  C   UNL     1      34.279 -21.884 -18.298  0.00  0.00    -0.000 C 
ATOM     24  C   UNL     1      36.725 -21.949 -16.959  0.00  0.00    -0.006 C 
ATOM     25  C   UNL     1      34.441 -22.706 -17.183  0.00  0.00    -0.006 C 
BRANCH  21  26
ATOM     26  C   UNL     1      35.839 -23.616 -15.320  0.00  0.00    -0.054 C 
BRANCH  26  27
ATOM     27  N   UNL     1      37.248 -23.877 -15.020  0.00  0.00    +0.390 N 
ATOM     28  H   UNL     1      37.654 -23.052 -14.579  0.00  0.00    -0.083 HD
ATOM     29  H   UNL     1      37.735 -24.089 -15.890  0.00  0.00    -0.083 HD
BRANCH  27  30
ATOM     30  C   UNL     1      37.380 -25.012 -14.121  0.00  0.00    -0.031 C 
BRANCH  30  34
ATOM     31  N   UNL     1      38.484 -23.819 -12.255  0.00  0.00    -0.170 NA
ATOM     32  N   UNL     1      38.172 -23.684 -10.957  0.00  0.00    -0.157 N 
ATOM     33  N   UNL     1      37.059 -24.281 -10.500  0.00  0.00    -0.162 NA
ATOM     34  C   UNL     1      37.472 -24.580 -12.681  0.00  0.00    +0.077 C 
ATOM     35  C   UNL     1      36.606 -24.861 -11.615  0.00  0.00    +0.133 C 
ATOM     36  H   UNL     1      38.745 -23.159 -10.353  0.00  0.00    +0.197 HD
ENDBRANCH  30  34
ENDBRANCH  27  30
ENDBRANCH  26  27
ENDBRANCH  21  26
ENDBRANCH   5  20
TORSDOF 8
ENDMDL
MODEL 6
REMARK VINA RESULT:     -11.4      7.319     13.294
REMARK  Name = 11224409
REMARK  8 active torsions:
REMARK  status: ('A' for Active; 'I' for Inactive)
REMARK    1  A    between atoms: C_2  and  N_10
REMARK    2  A    between atoms: C_5  and  C_20
REMARK    3  A    between atoms: C_11  and  C_14
REMARK    4  A    between atoms: C_14  and  N_16
REMARK    5  A    between atoms: C_21  and  C_26
REMARK    6  A    between atoms: C_26  and  N_27
REMARK    7  A    between atoms: N_27  and  C_30
REMARK    8  A    between atoms: C_30  and  C_34
REMARK                            x       y       z     vdW  Elec       q    Type
REMARK                         _______ _______ _______ _____ _____    ______ ____
ROOT
ATOM      1  F   UNL     1      31.837 -12.936 -20.843  0.00  0.00    -0.204 F 
ATOM      2  C   UNL     1      32.268  -9.560 -22.119  0.00  0.00    +0.059 C 
ATOM      3  C   UNL     1      31.821 -10.628 -21.340  0.00  0.00    +0.045 C 
ATOM      4  C   UNL     1      33.169  -9.786 -23.159  0.00  0.00    +0.015 C 
ATOM      5  C   UNL     1      33.176 -12.145 -22.642  0.00  0.00    +0.028 C 
ATOM      6  C   UNL     1      32.275 -11.920 -21.602  0.00  0.00    +0.141 C 
ATOM      7  C   UNL     1      33.624 -11.078 -23.421  0.00  0.00    +0.004 C 
ENDROOT
BRANCH   2  10
ATOM      8  O   UNL     1      31.485  -6.220 -20.897  0.00  0.00    -0.434 OA
ATOM      9  O   UNL     1      32.927  -7.632 -19.860  0.00  0.00    -0.226 OA
ATOM     10  N   UNL     1      31.804  -8.241 -21.852  0.00  0.00    -0.221 N 
ATOM     11  C   UNL     1      30.835  -6.163 -22.174  0.00  0.00    +0.210 C 
ATOM     12  C   UNL     1      30.771  -7.606 -22.627  0.00  0.00    +0.147 C 
ATOM     13  C   UNL     1      32.165  -7.413 -20.792  0.00  0.00    +0.409 C 
BRANCH  11  14
ATOM     14  C   UNL     1      31.654  -5.278 -23.103  0.00  0.00    +0.135 C 
BRANCH  14  16
ATOM     15  O   UNL     1      30.176  -2.781 -22.996  0.00  0.00    -0.275 OA
ATOM     16  N   UNL     1      32.044  -4.063 -22.451  0.00  0.00    -0.301 N 
ATOM     17  C   UNL     1      31.270  -2.907 -22.451  0.00  0.00    +0.223 C 
ATOM     18  C   UNL     1      31.903  -1.786 -21.671  0.00  0.00    +0.095 C 
ATOM     19  H   UNL     1      32.907  -4.045 -21.978  0.00  0.00    +0.150 HD
ENDBRANCH  14  16
ENDBRANCH  11  14
ENDBRANCH   2  10
BRANCH   5  20
ATOM     20  C   UNL     1      33.650 -13.485 -22.917  0.00  0.00    +0.002 C 
ATOM     21  C   UNL     1      34.562 -16.067 -23.446  0.00  0.00    -0.044 C 
ATOM     22  C   UNL     1      34.505 -14.121 -22.017  0.00  0.00    -0.000 C 
ATOM     23  C   UNL     1      33.251 -14.141 -24.082  0.00  0.00    -0.000 C 
ATOM     24  C   UNL     1      34.960 -15.412 -22.281  0.00  0.00    -0.006 C 
ATOM     25  C   UNL     1      33.707 -15.431 -24.347  0.00  0.00    -0.006 C 
BRANCH  21  26
ATOM     26  C   UNL     1      35.049 -17.449 -23.728  0.00  0.00    -0.054 C 
BRANCH  26  27
ATOM     27  N   UNL     1      35.774 -18.027 -22.595  0.00  0.00    +0.390 N 
ATOM     28  H   UNL     1      36.106 -17.275 -21.991  0.00  0.00    -0.083 HD
ATOM     29  H   UNL     1      36.561 -18.568 -22.952  0.00  0.00    -0.083 HD
BRANCH  27  30
ATOM     30  C   UNL     1      34.909 -18.909 -21.828  0.00  0.00    -0.031 C 
BRANCH  30  34
ATOM     31  N   UNL     1      36.728 -18.930 -20.151  0.00  0.00    -0.170 NA
ATOM     32  N   UNL     1      37.010 -19.758 -19.132  0.00  0.00    -0.157 N 
ATOM     33  N   UNL     1      36.197 -20.805 -18.913  0.00  0.00    -0.162 NA
ATOM     34  C   UNL     1      35.621 -19.497 -20.639  0.00  0.00    +0.077 C 
ATOM     35  C   UNL     1      35.299 -20.636 -19.887  0.00  0.00    +0.133 C 
ATOM     36  H   UNL     1      37.796 -19.602 -18.560  0.00  0.00    +0.197 HD
ENDBRANCH  30  34
ENDBRANCH  27  30
ENDBRANCH  26  27
ENDBRANCH  21  26
ENDBRANCH   5  20
TORSDOF 8
ENDMDL
MODEL 7
REMARK VINA RESULT:     -11.4      3.835     10.938
REMARK  Name = 11224409
REMARK  8 active torsions:
REMARK  status: ('A' for Active; 'I' for Inactive)
REMARK    1  A    between atoms: C_2  and  N_10
REMARK    2  A    between atoms: C_5  and  C_20
REMARK    3  A    between atoms: C_11  and  C_14
REMARK    4  A    between atoms: C_14  and  N_16
REMARK    5  A    between atoms: C_21  and  C_26
REMARK    6  A    between atoms: C_26  and  N_27
REMARK    7  A    between atoms: N_27  and  C_30
REMARK    8  A    between atoms: C_30  and  C_34
REMARK                            x       y       z     vdW  Elec       q    Type
REMARK                         _______ _______ _______ _____ _____    ______ ____
ROOT
ATOM      1  F   UNL     1      37.102 -20.208 -19.811  0.00  0.00    -0.204 F 
ATOM      2  C   UNL     1      34.608 -18.846 -22.078  0.00  0.00    +0.059 C 
ATOM      3  C   UNL     1      35.843 -19.126 -21.490  0.00  0.00    +0.045 C 
ATOM      4  C   UNL     1      33.441 -19.388 -21.539  0.00  0.00    +0.015 C 
ATOM      5  C   UNL     1      34.741 -20.489 -19.827  0.00  0.00    +0.028 C 
ATOM      6  C   UNL     1      35.909 -19.947 -20.364  0.00  0.00    +0.141 C 
ATOM      7  C   UNL     1      33.507 -20.210 -20.414  0.00  0.00    +0.004 C 
ENDROOT
BRANCH   2  10
ATOM      8  O   UNL     1      33.976 -17.145 -25.234  0.00  0.00    -0.434 OA
ATOM      9  O   UNL     1      32.937 -19.062 -24.610  0.00  0.00    -0.226 OA
ATOM     10  N   UNL     1      34.541 -18.008 -23.226  0.00  0.00    -0.221 N 
ATOM     11  C   UNL     1      34.789 -16.154 -24.590  0.00  0.00    +0.210 C 
ATOM     12  C   UNL     1      35.419 -16.886 -23.425  0.00  0.00    +0.147 C 
ATOM     13  C   UNL     1      33.734 -18.172 -24.350  0.00  0.00    +0.409 C 
BRANCH  11  14
ATOM     14  C   UNL     1      33.901 -14.994 -24.161  0.00  0.00    +0.135 C 
BRANCH  14  16
ATOM     15  O   UNL     1      32.456 -13.025 -22.590  0.00  0.00    -0.275 OA
ATOM     16  N   UNL     1      34.032 -14.733 -22.758  0.00  0.00    -0.301 N 
ATOM     17  C   UNL     1      33.296 -13.765 -22.083  0.00  0.00    +0.223 C 
ATOM     18  C   UNL     1      33.612 -13.716 -20.612  0.00  0.00    +0.095 C 
ATOM     19  H   UNL     1      34.680 -15.268 -22.244  0.00  0.00    +0.150 HD
ENDBRANCH  14  16
ENDBRANCH  11  14
ENDBRANCH   2  10
BRANCH   5  20
ATOM     20  C   UNL     1      34.805 -21.341 -18.659  0.00  0.00    +0.002 C 
ATOM     21  C   UNL     1      34.928 -22.982 -16.407  0.00  0.00    -0.044 C 
ATOM     22  C   UNL     1      35.994 -21.448 -17.938  0.00  0.00    -0.000 C 
ATOM     23  C   UNL     1      33.677 -22.055 -18.253  0.00  0.00    -0.000 C 
ATOM     24  C   UNL     1      36.055 -22.268 -16.811  0.00  0.00    -0.006 C 
ATOM     25  C   UNL     1      33.738 -22.876 -17.128  0.00  0.00    -0.006 C 
BRANCH  21  26
ATOM     26  C   UNL     1      34.994 -23.859 -15.202  0.00  0.00    -0.054 C 
BRANCH  26  27
ATOM     27  N   UNL     1      34.371 -23.243 -14.028  0.00  0.00    +0.390 N 
ATOM     28  H   UNL     1      33.653 -22.587 -14.336  0.00  0.00    -0.083 HD
ATOM     29  H   UNL     1      35.090 -22.755 -13.494  0.00  0.00    -0.083 HD
BRANCH  27  30
ATOM     30  C   UNL     1      33.763 -24.254 -13.179  0.00  0.00    -0.031 C 
BRANCH  30  34
ATOM     31  N   UNL     1      31.520 -25.141 -12.624  0.00  0.00    -0.170 NA
ATOM     32  N   UNL     1      30.293 -24.850 -13.084  0.00  0.00    -0.157 N 
ATOM     33  N   UNL     1      30.171 -23.906 -14.032  0.00  0.00    -0.162 NA
ATOM     34  C   UNL     1      32.267 -24.300 -13.345  0.00  0.00    +0.077 C 
ATOM     35  C   UNL     1      31.448 -23.550 -14.201  0.00  0.00    +0.133 C 
ATOM     36  H   UNL     1      29.501 -25.318 -12.736  0.00  0.00    +0.197 HD
ENDBRANCH  30  34
ENDBRANCH  27  30
ENDBRANCH  26  27
ENDBRANCH  21  26
ENDBRANCH   5  20
TORSDOF 8
ENDMDL
MODEL 8
REMARK VINA RESULT:     -11.3      5.128     11.704
REMARK  Name = 11224409
REMARK  8 active torsions:
REMARK  status: ('A' for Active; 'I' for Inactive)
REMARK    1  A    between atoms: C_2  and  N_10
REMARK    2  A    between atoms: C_5  and  C_20
REMARK    3  A    between atoms: C_11  and  C_14
REMARK    4  A    between atoms: C_14  and  N_16
REMARK    5  A    between atoms: C_21  and  C_26
REMARK    6  A    between atoms: C_26  and  N_27
REMARK    7  A    between atoms: N_27  and  C_30
REMARK    8  A    between atoms: C_30  and  C_34
REMARK                            x       y       z     vdW  Elec       q    Type
REMARK                         _______ _______ _______ _____ _____    ______ ____
ROOT
ATOM      1  F   UNL     1      34.934 -15.649 -19.617  0.00  0.00    -0.204 F 
ATOM      2  C   UNL     1      34.431 -14.311 -22.959  0.00  0.00    +0.059 C 
ATOM      3  C   UNL     1      34.539 -14.382 -21.570  0.00  0.00    +0.045 C 
ATOM      4  C   UNL     1      34.620 -15.458 -23.732  0.00  0.00    +0.015 C 
ATOM      5  C   UNL     1      35.023 -16.743 -21.726  0.00  0.00    +0.028 C 
ATOM      6  C   UNL     1      34.834 -15.598 -20.954  0.00  0.00    +0.141 C 
ATOM      7  C   UNL     1      34.916 -16.674 -23.116  0.00  0.00    +0.004 C 
ENDROOT
BRANCH   2  10
ATOM      8  O   UNL     1      33.325 -11.517 -25.014  0.00  0.00    -0.434 OA
ATOM      9  O   UNL     1      32.825 -13.683 -25.465  0.00  0.00    -0.226 OA
ATOM     10  N   UNL     1      34.130 -13.070 -23.588  0.00  0.00    -0.221 N 
ATOM     11  C   UNL     1      33.867 -10.792 -23.902  0.00  0.00    +0.210 C 
ATOM     12  C   UNL     1      34.686 -11.819 -23.149  0.00  0.00    +0.147 C 
ATOM     13  C   UNL     1      33.372 -12.865 -24.738  0.00  0.00    +0.409 C 
BRANCH  11  14
ATOM     14  C   UNL     1      32.719 -10.221 -23.081  0.00  0.00    +0.135 C 
BRANCH  14  16
ATOM     15  O   UNL     1      31.612  -9.087 -20.648  0.00  0.00    -0.275 OA
ATOM     16  N   UNL     1      33.099  -8.997 -22.439  0.00  0.00    -0.301 N 
ATOM     17  C   UNL     1      32.512  -8.527 -21.269  0.00  0.00    +0.223 C 
ATOM     18  C   UNL     1      33.117  -7.232 -20.797  0.00  0.00    +0.095 C 
ATOM     19  H   UNL     1      33.816  -8.460 -22.850  0.00  0.00    +0.150 HD
ENDBRANCH  14  16
ENDBRANCH  11  14
ENDBRANCH   2  10
BRANCH   5  20
ATOM     20  C   UNL     1      35.329 -18.007 -21.091  0.00  0.00    +0.002 C 
ATOM     21  C   UNL     1      35.920 -20.444 -19.870  0.00  0.00    -0.044 C 
ATOM     22  C   UNL     1      34.304 -18.904 -20.793  0.00  0.00    -0.000 C 
ATOM     23  C   UNL     1      36.650 -18.329 -20.779  0.00  0.00    -0.000 C 
ATOM     24  C   UNL     1      34.599 -20.123 -20.183  0.00  0.00    -0.006 C 
ATOM     25  C   UNL     1      36.946 -19.547 -20.168  0.00  0.00    -0.006 C 
BRANCH  21  26
ATOM     26  C   UNL     1      36.235 -21.748 -19.217  0.00  0.00    -0.054 C 
BRANCH  26  27
ATOM     27  N   UNL     1      35.806 -21.790 -17.818  0.00  0.00    +0.390 N 
ATOM     28  H   UNL     1      35.395 -22.703 -17.621  0.00  0.00    -0.083 HD
ATOM     29  H   UNL     1      35.119 -21.052 -17.664  0.00  0.00    -0.083 HD
BRANCH  27  30
ATOM     30  C   UNL     1      36.935 -21.572 -16.928  0.00  0.00    -0.031 C 
BRANCH  30  34
ATOM     31  N   UNL     1      37.883 -22.983 -15.129  0.00  0.00    -0.170 NA
ATOM     32  N   UNL     1      37.332 -23.568 -14.053  0.00  0.00    -0.157 N 
ATOM     33  N   UNL     1      36.016 -23.406 -13.838  0.00  0.00    -0.162 NA
ATOM     34  C   UNL     1      36.816 -22.382 -15.663  0.00  0.00    +0.077 C 
ATOM     35  C   UNL     1      35.682 -22.639 -14.880  0.00  0.00    +0.133 C 
ATOM     36  H   UNL     1      37.881 -24.104 -13.436  0.00  0.00    +0.197 HD
ENDBRANCH  30  34
ENDBRANCH  27  30
ENDBRANCH  26  27
ENDBRANCH  21  26
ENDBRANCH   5  20
TORSDOF 8
ENDMDL
MODEL 9
REMARK VINA RESULT:     -11.3      6.895     13.207
REMARK  Name = 11224409
REMARK  8 active torsions:
REMARK  status: ('A' for Active; 'I' for Inactive)
REMARK    1  A    between atoms: C_2  and  N_10
REMARK    2  A    between atoms: C_5  and  C_20
REMARK    3  A    between atoms: C_11  and  C_14
REMARK    4  A    between atoms: C_14  and  N_16
REMARK    5  A    between atoms: C_21  and  C_26
REMARK    6  A    between atoms: C_26  and  N_27
REMARK    7  A    between atoms: N_27  and  C_30
REMARK    8  A    between atoms: C_30  and  C_34
REMARK                            x       y       z     vdW  Elec       q    Type
REMARK                         _______ _______ _______ _____ _____    ______ ____
ROOT
ATOM      1  F   UNL     1      31.651 -12.738 -20.994  0.00  0.00    -0.204 F 
ATOM      2  C   UNL     1      32.267  -9.309 -22.030  0.00  0.00    +0.059 C 
ATOM      3  C   UNL     1      31.730 -10.406 -21.356  0.00  0.00    +0.045 C 
ATOM      4  C   UNL     1      33.253  -9.501 -22.998  0.00  0.00    +0.015 C 
ATOM      5  C   UNL     1      33.163 -11.885 -22.619  0.00  0.00    +0.028 C 
ATOM      6  C   UNL     1      32.177 -11.694 -21.651  0.00  0.00    +0.141 C 
ATOM      7  C   UNL     1      33.702 -10.789 -23.293  0.00  0.00    +0.004 C 
ENDROOT
BRANCH   2  10
ATOM      8  O   UNL     1      31.290  -6.093 -20.631  0.00  0.00    -0.434 OA
ATOM      9  O   UNL     1      32.213  -7.767 -19.409  0.00  0.00    -0.226 OA
ATOM     10  N   UNL     1      31.810  -7.995 -21.729  0.00  0.00    -0.221 N 
ATOM     11  C   UNL     1      31.121  -5.805 -22.025  0.00  0.00    +0.210 C 
ATOM     12  C   UNL     1      31.140  -7.163 -22.693  0.00  0.00    +0.147 C 
ATOM     13  C   UNL     1      31.829  -7.353 -20.494  0.00  0.00    +0.409 C 
BRANCH  11  14
ATOM     14  C   UNL     1      32.254  -4.896 -22.480  0.00  0.00    +0.135 C 
BRANCH  14  16
ATOM     15  O   UNL     1      34.464  -5.157 -24.346  0.00  0.00    -0.275 OA
ATOM     16  N   UNL     1      32.223  -4.700 -23.899  0.00  0.00    -0.301 N 
ATOM     17  C   UNL     1      33.336  -4.847 -24.721  0.00  0.00    +0.223 C 
ATOM     18  C   UNL     1      33.019  -4.607 -26.173  0.00  0.00    +0.095 C 
ATOM     19  H   UNL     1      31.367  -4.447 -24.315  0.00  0.00    +0.150 HD
ENDBRANCH  14  16
ENDBRANCH  11  14
ENDBRANCH   2  10
BRANCH   5  20
ATOM     20  C   UNL     1      33.631 -13.219 -22.928  0.00  0.00    +0.002 C 
ATOM     21  C   UNL     1      34.530 -15.792 -23.523  0.00  0.00    -0.044 C 
ATOM     22  C   UNL     1      34.506 -13.870 -22.059  0.00  0.00    -0.000 C 
ATOM     23  C   UNL     1      33.205 -13.855 -24.095  0.00  0.00    -0.000 C 
ATOM     24  C   UNL     1      34.955 -15.157 -22.356  0.00  0.00    -0.006 C 
ATOM     25  C   UNL     1      33.655 -15.141 -24.393  0.00  0.00    -0.006 C 
BRANCH  21  26
ATOM     26  C   UNL     1      35.010 -17.168 -23.840  0.00  0.00    -0.054 C 
BRANCH  26  27
ATOM     27  N   UNL     1      35.740 -17.775 -22.726  0.00  0.00    +0.390 N 
ATOM     28  H   UNL     1      35.952 -17.056 -22.033  0.00  0.00    -0.083 HD
ATOM     29  H   UNL     1      36.602 -18.186 -23.084  0.00  0.00    -0.083 HD
BRANCH  27  30
ATOM     30  C   UNL     1      34.947 -18.821 -22.101  0.00  0.00    -0.031 C 
BRANCH  30  34
ATOM     31  N   UNL     1      36.705 -18.792 -20.360  0.00  0.00    -0.170 NA
ATOM     32  N   UNL     1      36.955 -19.594 -19.313  0.00  0.00    -0.157 N 
ATOM     33  N   UNL     1      36.140 -20.640 -19.098  0.00  0.00    -0.162 NA
ATOM     34  C   UNL     1      35.619 -19.376 -20.873  0.00  0.00    +0.077 C 
ATOM     35  C   UNL     1      35.276 -20.499 -20.107  0.00  0.00    +0.133 C 
ATOM     36  H   UNL     1      37.719 -19.420 -18.716  0.00  0.00    +0.197 HD
ENDBRANCH  30  34
ENDBRANCH  27  30
ENDBRANCH  26  27
ENDBRANCH  21  26
ENDBRANCH   5  20
TORSDOF 8
ENDMDL
