MODEL 1
REMARK VINA RESULT:     -12.4      0.000      0.000
REMARK  Name = 445480
REMARK  5 active torsions:
REMARK  status: ('A' for Active; 'I' for Inactive)
REMARK    1  A    between atoms: N_2  and  C_21
REMARK    2  A    between atoms: C_3  and  N_7
REMARK    3  A    between atoms: N_7  and  S_9
REMARK    4  A    between atoms: S_9  and  C_14
REMARK    5  A    between atoms: C_21  and  C_24
REMARK                            x       y       z     vdW  Elec       q    Type
REMARK                         _______ _______ _______ _____ _____    ______ ____
ROOT
ATOM      1  O   UNL     1      36.719 -20.693 -19.507  0.00  0.00    -0.273 OA
ATOM      2  N   UNL     1      35.180 -19.553 -20.871  0.00  0.00    -0.274 N 
ATOM      3  C   UNL     1      34.370 -21.312 -19.576  0.00  0.00    +0.153 C 
ATOM      4  C   UNL     1      33.211 -20.422 -20.009  0.00  0.00    +0.048 C 
ATOM      5  C   UNL     1      33.774 -19.653 -21.188  0.00  0.00    +0.096 C 
ATOM      6  C   UNL     1      35.591 -20.505 -19.939  0.00  0.00    +0.242 C 
ENDROOT
BRANCH   3   7
ATOM      7  N   UNL     1      34.348 -21.540 -18.127  0.00  0.00    -0.171 NA
ATOM      8  H   UNL     1      35.313 -21.684 -17.828  0.00  0.00    +0.149 HD
BRANCH   7   9
ATOM      9  S   UNL     1      33.428 -22.858 -17.530  0.00  0.00    +0.066 S 
ATOM     10  O   UNL     1      33.749 -24.049 -18.293  0.00  0.00    -0.152 OA
ATOM     11  O   UNL     1      32.055 -22.431 -17.341  0.00  0.00    -0.152 OA
BRANCH   9  14
ATOM     12  S   UNL     1      35.613 -22.745 -15.597  0.00  0.00    -0.066 S 
ATOM     13  N   UNL     1      33.943 -24.275 -12.434  0.00  0.00    -0.243 NA
ATOM     14  C   UNL     1      34.000 -23.189 -15.863  0.00  0.00    +0.153 C 
ATOM     15  C   UNL     1      33.385 -23.725 -14.786  0.00  0.00    +0.046 C 
ATOM     16  C   UNL     1      34.265 -23.787 -13.664  0.00  0.00    +0.089 C 
ATOM     17  C   UNL     1      35.530 -23.281 -13.966  0.00  0.00    +0.048 C 
ATOM     18  C   UNL     1      36.530 -23.259 -12.983  0.00  0.00    +0.010 C 
ATOM     19  C   UNL     1      36.208 -23.755 -11.727  0.00  0.00    +0.021 C 
ATOM     20  C   UNL     1      34.930 -24.238 -11.515  0.00  0.00    +0.099 C 
ENDBRANCH   9  14
ENDBRANCH   7   9
ENDBRANCH   3   7
BRANCH   2  21
ATOM     21  C   UNL     1      36.050 -18.632 -21.569  0.00  0.00    +0.120 C 
BRANCH  21  24
ATOM     22  N   UNL     1      33.501 -13.557 -24.045  0.00  0.00    -0.230 NA
ATOM     23  N   UNL     1      34.157 -15.493 -25.212  0.00  0.00    -0.343 N 
ATOM     24  C   UNL     1      35.454 -17.252 -21.584  0.00  0.00    -0.002 C 
ATOM     25  C   UNL     1      35.036 -16.698 -22.787  0.00  0.00    +0.000 C 
ATOM     26  C   UNL     1      35.330 -16.548 -20.395  0.00  0.00    -0.003 C 
ATOM     27  C   UNL     1      34.480 -15.408 -22.808  0.00  0.00    +0.031 C 
ATOM     28  C   UNL     1      34.348 -14.681 -21.606  0.00  0.00    +0.004 C 
ATOM     29  C   UNL     1      34.779 -15.266 -20.404  0.00  0.00    -0.000 C 
ATOM     30  C   UNL     1      34.041 -14.795 -23.983  0.00  0.00    +0.125 C 
ATOM     31  C   UNL     1      33.791 -13.398 -21.648  0.00  0.00    +0.021 C 
ATOM     32  C   UNL     1      33.390 -12.891 -22.875  0.00  0.00    +0.100 C 
ATOM     33  H   UNL     1      33.852 -15.072 -26.048  0.00  0.00    +0.144 HD
ATOM     34  H   UNL     1      34.543 -16.399 -25.229  0.00  0.00    +0.144 HD
ENDBRANCH  21  24
ENDBRANCH   2  21
TORSDOF 5
ENDMDL
MODEL 2
REMARK VINA RESULT:     -12.1      2.873     10.437
REMARK  Name = 445480
REMARK  5 active torsions:
REMARK  status: ('A' for Active; 'I' for Inactive)
REMARK    1  A    between atoms: N_2  and  C_21
REMARK    2  A    between atoms: C_3  and  N_7
REMARK    3  A    between atoms: N_7  and  S_9
REMARK    4  A    between atoms: S_9  and  C_14
REMARK    5  A    between atoms: C_21  and  C_24
REMARK                            x       y       z     vdW  Elec       q    Type
REMARK                         _______ _______ _______ _____ _____    ______ ____
ROOT
ATOM      1  O   UNL     1      36.242 -21.288 -19.594  0.00  0.00    -0.273 OA
ATOM      2  N   UNL     1      34.032 -21.894 -19.064  0.00  0.00    -0.274 N 
ATOM      3  C   UNL     1      34.372 -19.795 -20.018  0.00  0.00    +0.153 C 
ATOM      4  C   UNL     1      32.910 -20.196 -20.177  0.00  0.00    +0.048 C 
ATOM      5  C   UNL     1      32.725 -21.284 -19.135  0.00  0.00    +0.096 C 
ATOM      6  C   UNL     1      35.040 -21.067 -19.558  0.00  0.00    +0.242 C 
ENDROOT
BRANCH   3   7
ATOM      7  N   UNL     1      34.947 -19.378 -21.301  0.00  0.00    -0.171 NA
ATOM      8  H   UNL     1      35.508 -20.156 -21.650  0.00  0.00    +0.149 HD
BRANCH   7   9
ATOM      9  S   UNL     1      35.943 -17.982 -21.324  0.00  0.00    +0.066 S 
ATOM     10  O   UNL     1      37.239 -18.329 -21.877  0.00  0.00    -0.152 OA
ATOM     11  O   UNL     1      35.825 -17.295 -20.054  0.00  0.00    -0.152 OA
BRANCH   9  14
ATOM     12  S   UNL     1      34.887 -15.309 -21.837  0.00  0.00    -0.066 S 
ATOM     13  N   UNL     1      33.893 -15.564 -25.590  0.00  0.00    -0.243 NA
ATOM     14  C   UNL     1      35.216 -16.835 -22.495  0.00  0.00    +0.153 C 
ATOM     15  C   UNL     1      34.884 -16.963 -23.799  0.00  0.00    +0.046 C 
ATOM     16  C   UNL     1      34.325 -15.754 -24.313  0.00  0.00    +0.089 C 
ATOM     17  C   UNL     1      34.265 -14.754 -23.341  0.00  0.00    +0.048 C 
ATOM     18  C   UNL     1      33.745 -13.492 -23.663  0.00  0.00    +0.010 C 
ATOM     19  C   UNL     1      33.302 -13.293 -24.963  0.00  0.00    +0.021 C 
ATOM     20  C   UNL     1      33.399 -14.339 -25.862  0.00  0.00    +0.099 C 
ENDBRANCH   9  14
ENDBRANCH   7   9
ENDBRANCH   3   7
BRANCH   2  21
ATOM     21  C   UNL     1      34.236 -23.175 -18.423  0.00  0.00    +0.120 C 
BRANCH  21  24
ATOM     22  N   UNL     1      29.820 -23.007 -14.081  0.00  0.00    -0.230 NA
ATOM     23  N   UNL     1      29.481 -22.963 -16.411  0.00  0.00    -0.343 N 
ATOM     24  C   UNL     1      33.666 -23.165 -17.032  0.00  0.00    -0.002 C 
ATOM     25  C   UNL     1      32.290 -23.098 -16.855  0.00  0.00    +0.000 C 
ATOM     26  C   UNL     1      34.522 -23.220 -15.942  0.00  0.00    -0.003 C 
ATOM     27  C   UNL     1      31.750 -23.086 -15.559  0.00  0.00    +0.031 C 
ATOM     28  C   UNL     1      32.610 -23.142 -14.441  0.00  0.00    +0.004 C 
ATOM     29  C   UNL     1      33.997 -23.208 -14.649  0.00  0.00    -0.000 C 
ATOM     30  C   UNL     1      30.378 -23.021 -15.313  0.00  0.00    +0.125 C 
ATOM     31  C   UNL     1      32.052 -23.129 -13.157  0.00  0.00    +0.021 C 
ATOM     32  C   UNL     1      30.673 -23.062 -13.036  0.00  0.00    +0.100 C 
ATOM     33  H   UNL     1      28.511 -22.916 -16.252  0.00  0.00    +0.144 HD
ATOM     34  H   UNL     1      29.830 -22.970 -17.331  0.00  0.00    +0.144 HD
ENDBRANCH  21  24
ENDBRANCH   2  21
TORSDOF 5
ENDMDL
MODEL 3
REMARK VINA RESULT:     -11.9      1.897      2.297
REMARK  Name = 445480
REMARK  5 active torsions:
REMARK  status: ('A' for Active; 'I' for Inactive)
REMARK    1  A    between atoms: N_2  and  C_21
REMARK    2  A    between atoms: C_3  and  N_7
REMARK    3  A    between atoms: N_7  and  S_9
REMARK    4  A    between atoms: S_9  and  C_14
REMARK    5  A    between atoms: C_21  and  C_24
REMARK                            x       y       z     vdW  Elec       q    Type
REMARK                         _______ _______ _______ _____ _____    ______ ____
ROOT
ATOM      1  O   UNL     1      36.349 -20.240 -19.522  0.00  0.00    -0.273 OA
ATOM      2  N   UNL     1      35.015 -19.132 -21.111  0.00  0.00    -0.274 N 
ATOM      3  C   UNL     1      34.068 -20.939 -19.984  0.00  0.00    +0.153 C 
ATOM      4  C   UNL     1      32.964 -20.083 -20.593  0.00  0.00    +0.048 C 
ATOM      5  C   UNL     1      33.685 -19.276 -21.656  0.00  0.00    +0.096 C 
ATOM      6  C   UNL     1      35.302 -20.084 -20.132  0.00  0.00    +0.242 C 
ENDROOT
BRANCH   3   7
ATOM      7  N   UNL     1      33.817 -21.190 -18.560  0.00  0.00    -0.171 NA
ATOM      8  H   UNL     1      34.305 -20.465 -18.034  0.00  0.00    +0.149 HD
BRANCH   7   9
ATOM      9  S   UNL     1      34.296 -22.702 -17.910  0.00  0.00    +0.066 S 
ATOM     10  O   UNL     1      35.575 -22.551 -17.241  0.00  0.00    -0.152 OA
ATOM     11  O   UNL     1      34.084 -23.735 -18.905  0.00  0.00    -0.152 OA
BRANCH   9  14
ATOM     12  S   UNL     1      33.850 -23.738 -15.218  0.00  0.00    -0.066 S 
ATOM     13  N   UNL     1      29.978 -23.513 -14.920  0.00  0.00    -0.243 NA
ATOM     14  C   UNL     1      33.126 -23.115 -16.616  0.00  0.00    +0.153 C 
ATOM     15  C   UNL     1      31.779 -23.021 -16.551  0.00  0.00    +0.046 C 
ATOM     16  C   UNL     1      31.287 -23.480 -15.293  0.00  0.00    +0.089 C 
ATOM     17  C   UNL     1      32.319 -23.907 -14.455  0.00  0.00    +0.048 C 
ATOM     18  C   UNL     1      32.026 -24.393 -13.172  0.00  0.00    +0.010 C 
ATOM     19  C   UNL     1      30.693 -24.428 -12.788  0.00  0.00    +0.021 C 
ATOM     20  C   UNL     1      29.735 -23.986 -13.681  0.00  0.00    +0.099 C 
ENDBRANCH   9  14
ENDBRANCH   7   9
ENDBRANCH   3   7
BRANCH   2  21
ATOM     21  C   UNL     1      35.953 -18.170 -21.647  0.00  0.00    +0.120 C 
BRANCH  21  24
ATOM     22  N   UNL     1      33.303 -13.254 -24.328  0.00  0.00    -0.230 NA
ATOM     23  N   UNL     1      34.006 -15.220 -25.416  0.00  0.00    -0.343 N 
ATOM     24  C   UNL     1      35.327 -16.806 -21.717  0.00  0.00    -0.002 C 
ATOM     25  C   UNL     1      34.902 -16.309 -22.942  0.00  0.00    +0.000 C 
ATOM     26  C   UNL     1      35.183 -16.059 -20.557  0.00  0.00    -0.003 C 
ATOM     27  C   UNL     1      34.318 -15.034 -23.016  0.00  0.00    +0.031 C 
ATOM     28  C   UNL     1      34.165 -14.263 -21.844  0.00  0.00    +0.004 C 
ATOM     29  C   UNL     1      34.604 -14.791 -20.618  0.00  0.00    -0.000 C 
ATOM     30  C   UNL     1      33.870 -14.477 -24.215  0.00  0.00    +0.125 C 
ATOM     31  C   UNL     1      33.580 -12.995 -21.939  0.00  0.00    +0.021 C 
ATOM     32  C   UNL     1      33.173 -12.546 -23.185  0.00  0.00    +0.100 C 
ATOM     33  H   UNL     1      33.696 -14.840 -26.269  0.00  0.00    +0.144 HD
ATOM     34  H   UNL     1      34.412 -16.117 -25.396  0.00  0.00    +0.144 HD
ENDBRANCH  21  24
ENDBRANCH   2  21
TORSDOF 5
ENDMDL
MODEL 4
REMARK VINA RESULT:     -11.7      5.578     11.578
REMARK  Name = 445480
REMARK  5 active torsions:
REMARK  status: ('A' for Active; 'I' for Inactive)
REMARK    1  A    between atoms: N_2  and  C_21
REMARK    2  A    between atoms: C_3  and  N_7
REMARK    3  A    between atoms: N_7  and  S_9
REMARK    4  A    between atoms: S_9  and  C_14
REMARK    5  A    between atoms: C_21  and  C_24
REMARK                            x       y       z     vdW  Elec       q    Type
REMARK                         _______ _______ _______ _____ _____    ______ ____
ROOT
ATOM      1  O   UNL     1      34.112 -15.321 -24.865  0.00  0.00    -0.273 OA
ATOM      2  N   UNL     1      34.748 -16.321 -22.833  0.00  0.00    -0.274 N 
ATOM      3  C   UNL     1      34.494 -14.004 -22.858  0.00  0.00    +0.153 C 
ATOM      4  C   UNL     1      34.440 -14.508 -21.421  0.00  0.00    +0.048 C 
ATOM      5  C   UNL     1      35.083 -15.879 -21.500  0.00  0.00    +0.096 C 
ATOM      6  C   UNL     1      34.403 -15.267 -23.679  0.00  0.00    +0.242 C 
ENDROOT
BRANCH   3   7
ATOM      7  N   UNL     1      33.346 -13.142 -23.160  0.00  0.00    -0.171 NA
ATOM      8  H   UNL     1      32.657 -13.714 -23.650  0.00  0.00    +0.149 HD
BRANCH   7   9
ATOM      9  S   UNL     1      33.615 -11.743 -24.113  0.00  0.00    +0.066 S 
ATOM     10  O   UNL     1      32.657 -11.714 -25.202  0.00  0.00    -0.152 OA
ATOM     11  O   UNL     1      35.038 -11.601 -24.357  0.00  0.00    -0.152 OA
BRANCH   9  14
ATOM     12  S   UNL     1      34.162  -8.958 -23.428  0.00  0.00    -0.066 S 
ATOM     13  N   UNL     1      31.585  -8.329 -20.581  0.00  0.00    -0.243 NA
ATOM     14  C   UNL     1      33.219 -10.324 -23.091  0.00  0.00    +0.153 C 
ATOM     15  C   UNL     1      32.310 -10.145 -22.106  0.00  0.00    +0.046 C 
ATOM     16  C   UNL     1      32.370  -8.819 -21.580  0.00  0.00    +0.089 C 
ATOM     17  C   UNL     1      33.347  -8.052 -22.215  0.00  0.00    +0.048 C 
ATOM     18  C   UNL     1      33.552  -6.718 -21.831  0.00  0.00    +0.010 C 
ATOM     19  C   UNL     1      32.755  -6.213 -20.813  0.00  0.00    +0.021 C 
ATOM     20  C   UNL     1      31.811  -7.045 -20.238  0.00  0.00    +0.099 C 
ENDBRANCH   9  14
ENDBRANCH   7   9
ENDBRANCH   3   7
BRANCH   2  21
ATOM     21  C   UNL     1      34.894 -17.704 -23.233  0.00  0.00    +0.120 C 
BRANCH  21  24
ATOM     22  N   UNL     1      34.247 -21.682 -18.528  0.00  0.00    -0.230 NA
ATOM     23  N   UNL     1      32.536 -20.938 -19.964  0.00  0.00    -0.343 N 
ATOM     24  C   UNL     1      35.329 -18.546 -22.066  0.00  0.00    -0.002 C 
ATOM     25  C   UNL     1      34.394 -19.321 -21.394  0.00  0.00    +0.000 C 
ATOM     26  C   UNL     1      36.659 -18.536 -21.674  0.00  0.00    -0.003 C 
ATOM     27  C   UNL     1      34.792 -20.109 -20.301  0.00  0.00    +0.031 C 
ATOM     28  C   UNL     1      36.142 -20.109 -19.892  0.00  0.00    +0.004 C 
ATOM     29  C   UNL     1      37.067 -19.315 -20.590  0.00  0.00    -0.000 C 
ATOM     30  C   UNL     1      33.903 -20.910 -19.584  0.00  0.00    +0.125 C 
ATOM     31  C   UNL     1      36.520 -20.901 -18.801  0.00  0.00    +0.021 C 
ATOM     32  C   UNL     1      35.547 -21.656 -18.166  0.00  0.00    +0.100 C 
ATOM     33  H   UNL     1      31.897 -21.498 -19.467  0.00  0.00    +0.144 HD
ATOM     34  H   UNL     1      32.227 -20.396 -20.726  0.00  0.00    +0.144 HD
ENDBRANCH  21  24
ENDBRANCH   2  21
TORSDOF 5
ENDMDL
MODEL 5
REMARK VINA RESULT:     -11.6      4.697     10.770
REMARK  Name = 445480
REMARK  5 active torsions:
REMARK  status: ('A' for Active; 'I' for Inactive)
REMARK    1  A    between atoms: N_2  and  C_21
REMARK    2  A    between atoms: C_3  and  N_7
REMARK    3  A    between atoms: N_7  and  S_9
REMARK    4  A    between atoms: S_9  and  C_14
REMARK    5  A    between atoms: C_21  and  C_24
REMARK                            x       y       z     vdW  Elec       q    Type
REMARK                         _______ _______ _______ _____ _____    ______ ____
ROOT
ATOM      1  O   UNL     1      35.316 -15.747 -20.659  0.00  0.00    -0.273 OA
ATOM      2  N   UNL     1      35.655 -17.367 -22.330  0.00  0.00    -0.274 N 
ATOM      3  C   UNL     1      34.347 -15.517 -22.876  0.00  0.00    +0.153 C 
ATOM      4  C   UNL     1      34.837 -16.189 -24.153  0.00  0.00    +0.048 C 
ATOM      5  C   UNL     1      35.230 -17.581 -23.694  0.00  0.00    +0.096 C 
ATOM      6  C   UNL     1      35.163 -16.178 -21.792  0.00  0.00    +0.242 C 
ENDROOT
BRANCH   3   7
ATOM      7  N   UNL     1      34.634 -14.078 -22.893  0.00  0.00    -0.171 NA
ATOM      8  H   UNL     1      34.617 -13.753 -21.925  0.00  0.00    +0.149 HD
BRANCH   7   9
ATOM      9  S   UNL     1      33.590 -13.057 -23.791  0.00  0.00    +0.066 S 
ATOM     10  O   UNL     1      32.400 -13.799 -24.164  0.00  0.00    -0.152 OA
ATOM     11  O   UNL     1      34.368 -12.335 -24.780  0.00  0.00    -0.152 OA
BRANCH   9  14
ATOM     12  S   UNL     1      32.308 -12.365 -21.262  0.00  0.00    -0.066 S 
ATOM     13  N   UNL     1      32.361  -8.477 -21.393  0.00  0.00    -0.243 NA
ATOM     14  C   UNL     1      33.023 -11.771 -22.678  0.00  0.00    +0.153 C 
ATOM     15  C   UNL     1      33.060 -10.422 -22.761  0.00  0.00    +0.046 C 
ATOM     16  C   UNL     1      32.475  -9.816 -21.609  0.00  0.00    +0.089 C 
ATOM     17  C   UNL     1      32.016 -10.767 -20.696  0.00  0.00    +0.048 C 
ATOM     18  C   UNL     1      31.410 -10.358 -19.500  0.00  0.00    +0.010 C 
ATOM     19  C   UNL     1      31.291  -8.993 -19.274  0.00  0.00    +0.021 C 
ATOM     20  C   UNL     1      31.773  -8.120 -20.233  0.00  0.00    +0.099 C 
ENDBRANCH   9  14
ENDBRANCH   7   9
ENDBRANCH   3   7
BRANCH   2  21
ATOM     21  C   UNL     1      36.404 -18.369 -21.604  0.00  0.00    +0.120 C 
BRANCH  21  24
ATOM     22  N   UNL     1      34.765 -22.638 -17.425  0.00  0.00    -0.230 NA
ATOM     23  N   UNL     1      36.940 -21.816 -17.791  0.00  0.00    -0.343 N 
ATOM     24  C   UNL     1      35.474 -19.278 -20.849  0.00  0.00    -0.002 C 
ATOM     25  C   UNL     1      35.980 -20.100 -19.851  0.00  0.00    +0.000 C 
ATOM     26  C   UNL     1      34.123 -19.285 -21.160  0.00  0.00    -0.003 C 
ATOM     27  C   UNL     1      35.118 -20.953 -19.142  0.00  0.00    +0.031 C 
ATOM     28  C   UNL     1      33.741 -20.970 -19.449  0.00  0.00    +0.004 C 
ATOM     29  C   UNL     1      33.256 -20.128 -20.464  0.00  0.00    -0.000 C 
ATOM     30  C   UNL     1      35.562 -21.803 -18.129  0.00  0.00    +0.125 C 
ATOM     31  C   UNL     1      32.898 -21.827 -18.732  0.00  0.00    +0.021 C 
ATOM     32  C   UNL     1      33.453 -22.627 -17.745  0.00  0.00    +0.100 C 
ATOM     33  H   UNL     1      37.268 -22.411 -17.079  0.00  0.00    +0.144 HD
ATOM     34  H   UNL     1      37.569 -21.229 -18.270  0.00  0.00    +0.144 HD
ENDBRANCH  21  24
ENDBRANCH   2  21
TORSDOF 5
ENDMDL
MODEL 6
REMARK VINA RESULT:     -11.5      2.685     10.442
REMARK  Name = 445480
REMARK  5 active torsions:
REMARK  status: ('A' for Active; 'I' for Inactive)
REMARK    1  A    between atoms: N_2  and  C_21
REMARK    2  A    between atoms: C_3  and  N_7
REMARK    3  A    between atoms: N_7  and  S_9
REMARK    4  A    between atoms: S_9  and  C_14
REMARK    5  A    between atoms: C_21  and  C_24
REMARK                            x       y       z     vdW  Elec       q    Type
REMARK                         _______ _______ _______ _____ _____    ______ ____
ROOT
ATOM      1  O   UNL     1      32.605 -20.529 -19.866  0.00  0.00    -0.273 OA
ATOM      2  N   UNL     1      34.019 -21.853 -18.533  0.00  0.00    -0.274 N 
ATOM      3  C   UNL     1      35.011 -20.569 -20.206  0.00  0.00    +0.153 C 
ATOM      4  C   UNL     1      36.064 -20.971 -19.180  0.00  0.00    +0.048 C 
ATOM      5  C   UNL     1      35.431 -22.149 -18.464  0.00  0.00    +0.096 C 
ATOM      6  C   UNL     1      33.709 -20.940 -19.540  0.00  0.00    +0.242 C 
ENDROOT
BRANCH   3   7
ATOM      7  N   UNL     1      35.038 -19.123 -20.451  0.00  0.00    -0.171 NA
ATOM      8  H   UNL     1      34.070 -18.799 -20.464  0.00  0.00    +0.149 HD
BRANCH   7   9
ATOM      9  S   UNL     1      35.781 -18.562 -21.891  0.00  0.00    +0.066 S 
ATOM     10  O   UNL     1      35.324 -19.366 -23.009  0.00  0.00    -0.152 OA
ATOM     11  O   UNL     1      37.194 -18.349 -21.644  0.00  0.00    -0.152 OA
BRANCH   9  14
ATOM     12  S   UNL     1      34.658 -16.662 -23.802  0.00  0.00    -0.066 S 
ATOM     13  N   UNL     1      34.179 -13.504 -21.580  0.00  0.00    -0.243 NA
ATOM     14  C   UNL     1      35.152 -16.912 -22.201  0.00  0.00    +0.153 C 
ATOM     15  C   UNL     1      35.001 -15.836 -21.397  0.00  0.00    +0.046 C 
ATOM     16  C   UNL     1      34.450 -14.729 -22.110  0.00  0.00    +0.089 C 
ATOM     17  C   UNL     1      34.210 -15.040 -23.449  0.00  0.00    +0.048 C 
ATOM     18  C   UNL     1      33.666 -14.074 -24.308  0.00  0.00    +0.010 C 
ATOM     19  C   UNL     1      33.388 -12.823 -23.773  0.00  0.00    +0.021 C 
ATOM     20  C   UNL     1      33.658 -12.601 -22.435  0.00  0.00    +0.099 C 
ENDBRANCH   9  14
ENDBRANCH   7   9
ENDBRANCH   3   7
BRANCH   2  21
ATOM     21  C   UNL     1      33.058 -22.553 -17.709  0.00  0.00    +0.120 C 
BRANCH  21  24
ATOM     22  N   UNL     1      37.550 -23.365 -13.521  0.00  0.00    -0.230 NA
ATOM     23  N   UNL     1      37.841 -22.694 -15.759  0.00  0.00    -0.343 N 
ATOM     24  C   UNL     1      33.655 -22.885 -16.369  0.00  0.00    -0.002 C 
ATOM     25  C   UNL     1      35.030 -22.815 -16.195  0.00  0.00    +0.000 C 
ATOM     26  C   UNL     1      32.823 -23.259 -15.324  0.00  0.00    -0.003 C 
ATOM     27  C   UNL     1      35.595 -23.125 -14.947  0.00  0.00    +0.031 C 
ATOM     28  C   UNL     1      34.761 -23.507 -13.876  0.00  0.00    +0.004 C 
ATOM     29  C   UNL     1      33.372 -23.570 -14.080  0.00  0.00    -0.000 C 
ATOM     30  C   UNL     1      36.969 -23.074 -14.706  0.00  0.00    +0.125 C 
ATOM     31  C   UNL     1      35.342 -23.813 -12.640  0.00  0.00    +0.021 C 
ATOM     32  C   UNL     1      36.721 -23.727 -12.519  0.00  0.00    +0.100 C 
ATOM     33  H   UNL     1      38.813 -22.655 -15.604  0.00  0.00    +0.144 HD
ATOM     34  H   UNL     1      37.475 -22.471 -16.645  0.00  0.00    +0.144 HD
ENDBRANCH  21  24
ENDBRANCH   2  21
TORSDOF 5
ENDMDL
MODEL 7
REMARK VINA RESULT:     -11.5      4.388     10.686
REMARK  Name = 445480
REMARK  5 active torsions:
REMARK  status: ('A' for Active; 'I' for Inactive)
REMARK    1  A    between atoms: N_2  and  C_21
REMARK    2  A    between atoms: C_3  and  N_7
REMARK    3  A    between atoms: N_7  and  S_9
REMARK    4  A    between atoms: S_9  and  C_14
REMARK    5  A    between atoms: C_21  and  C_24
REMARK                            x       y       z     vdW  Elec       q    Type
REMARK                         _______ _______ _______ _____ _____    ______ ____
ROOT
ATOM      1  O   UNL     1      35.865 -16.401 -21.411  0.00  0.00    -0.273 OA
ATOM      2  N   UNL     1      35.707 -18.684 -21.953  0.00  0.00    -0.274 N 
ATOM      3  C   UNL     1      34.577 -17.174 -23.322  0.00  0.00    +0.153 C 
ATOM      4  C   UNL     1      34.755 -18.495 -24.059  0.00  0.00    +0.048 C 
ATOM      5  C   UNL     1      35.036 -19.488 -22.948  0.00  0.00    +0.096 C 
ATOM      6  C   UNL     1      35.469 -17.319 -22.114  0.00  0.00    +0.242 C 
ENDROOT
BRANCH   3   7
ATOM      7  N   UNL     1      35.041 -16.046 -24.138  0.00  0.00    -0.171 NA
ATOM      8  H   UNL     1      35.492 -15.381 -23.509  0.00  0.00    +0.149 HD
BRANCH   7   9
ATOM      9  S   UNL     1      33.878 -15.177 -25.050  0.00  0.00    +0.066 S 
ATOM     10  O   UNL     1      32.655 -15.953 -25.128  0.00  0.00    -0.152 OA
ATOM     11  O   UNL     1      34.510 -14.646 -26.242  0.00  0.00    -0.152 OA
BRANCH   9  14
ATOM     12  S   UNL     1      33.782 -12.262 -24.920  0.00  0.00    -0.066 S 
ATOM     13  N   UNL     1      32.267 -11.684 -21.383  0.00  0.00    -0.243 NA
ATOM     14  C   UNL     1      33.456 -13.712 -24.107  0.00  0.00    +0.153 C 
ATOM     15  C   UNL     1      32.928 -13.552 -22.873  0.00  0.00    +0.046 C 
ATOM     16  C   UNL     1      32.771 -12.171 -22.551  0.00  0.00    +0.089 C 
ATOM     17  C   UNL     1      33.202 -11.342 -23.588  0.00  0.00    +0.048 C 
ATOM     18  C   UNL     1      33.124  -9.949 -23.453  0.00  0.00    +0.010 C 
ATOM     19  C   UNL     1      32.611  -9.447 -22.264  0.00  0.00    +0.021 C 
ATOM     20  C   UNL     1      32.208 -10.340 -21.288  0.00  0.00    +0.099 C 
ENDBRANCH   9  14
ENDBRANCH   7   9
ENDBRANCH   3   7
BRANCH   2  21
ATOM     21  C   UNL     1      36.430 -19.286 -20.854  0.00  0.00    +0.120 C 
BRANCH  21  24
ATOM     22  N   UNL     1      34.844 -23.185 -16.309  0.00  0.00    -0.230 NA
ATOM     23  N   UNL     1      37.005 -22.355 -16.737  0.00  0.00    -0.343 N 
ATOM     24  C   UNL     1      35.513 -20.140 -20.024  0.00  0.00    -0.002 C 
ATOM     25  C   UNL     1      36.027 -20.857 -18.952  0.00  0.00    +0.000 C 
ATOM     26  C   UNL     1      34.165 -20.204 -20.342  0.00  0.00    -0.003 C 
ATOM     27  C   UNL     1      35.177 -21.659 -18.173  0.00  0.00    +0.031 C 
ATOM     28  C   UNL     1      33.803 -21.733 -18.485  0.00  0.00    +0.004 C 
ATOM     29  C   UNL     1      33.310 -20.998 -19.576  0.00  0.00    -0.000 C 
ATOM     30  C   UNL     1      35.630 -22.403 -17.083  0.00  0.00    +0.125 C 
ATOM     31  C   UNL     1      32.971 -22.537 -17.697  0.00  0.00    +0.021 C 
ATOM     32  C   UNL     1      33.535 -23.231 -16.638  0.00  0.00    +0.100 C 
ATOM     33  H   UNL     1      37.338 -22.875 -15.970  0.00  0.00    +0.144 HD
ATOM     34  H   UNL     1      37.626 -21.801 -17.264  0.00  0.00    +0.144 HD
ENDBRANCH  21  24
ENDBRANCH   2  21
TORSDOF 5
ENDMDL
MODEL 8
REMARK VINA RESULT:     -11.4      2.532     10.629
REMARK  Name = 445480
REMARK  5 active torsions:
REMARK  status: ('A' for Active; 'I' for Inactive)
REMARK    1  A    between atoms: N_2  and  C_21
REMARK    2  A    between atoms: C_3  and  N_7
REMARK    3  A    between atoms: N_7  and  S_9
REMARK    4  A    between atoms: S_9  and  C_14
REMARK    5  A    between atoms: C_21  and  C_24
REMARK                            x       y       z     vdW  Elec       q    Type
REMARK                         _______ _______ _______ _____ _____    ______ ____
ROOT
ATOM      1  O   UNL     1      36.173 -21.154 -19.529  0.00  0.00    -0.273 OA
ATOM      2  N   UNL     1      33.956 -21.819 -19.112  0.00  0.00    -0.274 N 
ATOM      3  C   UNL     1      34.284 -19.735 -20.101  0.00  0.00    +0.153 C 
ATOM      4  C   UNL     1      32.848 -20.189 -20.333  0.00  0.00    +0.048 C 
ATOM      5  C   UNL     1      32.637 -21.255 -19.275  0.00  0.00    +0.096 C 
ATOM      6  C   UNL     1      34.965 -20.972 -19.569  0.00  0.00    +0.242 C 
ENDROOT
BRANCH   3   7
ATOM      7  N   UNL     1      34.920 -19.332 -21.360  0.00  0.00    -0.171 NA
ATOM      8  H   UNL     1      35.429 -20.141 -21.716  0.00  0.00    +0.149 HD
BRANCH   7   9
ATOM      9  S   UNL     1      36.018 -18.015 -21.324  0.00  0.00    +0.066 S 
ATOM     10  O   UNL     1      37.219 -18.374 -22.055  0.00  0.00    -0.152 OA
ATOM     11  O   UNL     1      36.086 -17.491 -19.974  0.00  0.00    -0.152 OA
BRANCH   9  14
ATOM     12  S   UNL     1      34.715 -17.149 -23.789  0.00  0.00    -0.066 S 
ATOM     13  N   UNL     1      34.088 -13.378 -23.063  0.00  0.00    -0.243 NA
ATOM     14  C   UNL     1      35.271 -16.680 -22.259  0.00  0.00    +0.153 C 
ATOM     15  C   UNL     1      35.071 -15.374 -21.970  0.00  0.00    +0.046 C 
ATOM     16  C   UNL     1      34.426 -14.697 -23.048  0.00  0.00    +0.089 C 
ATOM     17  C   UNL     1      34.169 -15.552 -24.120  0.00  0.00    +0.048 C 
ATOM     18  C   UNL     1      33.538 -15.063 -25.273  0.00  0.00    +0.010 C 
ATOM     19  C   UNL     1      33.191 -13.719 -25.294  0.00  0.00    +0.021 C 
ATOM     20  C   UNL     1      33.484 -12.943 -24.187  0.00  0.00    +0.099 C 
ENDBRANCH   9  14
ENDBRANCH   7   9
ENDBRANCH   3   7
BRANCH   2  21
ATOM     21  C   UNL     1      34.163 -23.076 -18.425  0.00  0.00    +0.120 C 
BRANCH  21  24
ATOM     22  N   UNL     1      33.346 -23.800 -12.327  0.00  0.00    -0.230 NA
ATOM     23  N   UNL     1      35.367 -24.081 -13.501  0.00  0.00    -0.343 N 
ATOM     24  C   UNL     1      33.408 -23.097 -17.125  0.00  0.00    -0.002 C 
ATOM     25  C   UNL     1      34.074 -23.423 -15.951  0.00  0.00    +0.000 C 
ATOM     26  C   UNL     1      32.055 -22.793 -17.116  0.00  0.00    -0.003 C 
ATOM     27  C   UNL     1      33.375 -23.447 -14.733  0.00  0.00    +0.031 C 
ATOM     28  C   UNL     1      31.998 -23.139 -14.709  0.00  0.00    +0.004 C 
ATOM     29  C   UNL     1      31.349 -22.814 -15.912  0.00  0.00    -0.000 C 
ATOM     30  C   UNL     1      33.984 -23.766 -13.519  0.00  0.00    +0.125 C 
ATOM     31  C   UNL     1      31.319 -23.169 -13.485  0.00  0.00    +0.021 C 
ATOM     32  C   UNL     1      32.030 -23.500 -12.343  0.00  0.00    +0.100 C 
ATOM     33  H   UNL     1      35.810 -24.309 -12.652  0.00  0.00    +0.144 HD
ATOM     34  H   UNL     1      35.884 -24.073 -14.339  0.00  0.00    +0.144 HD
ENDBRANCH  21  24
ENDBRANCH   2  21
TORSDOF 5
ENDMDL
MODEL 9
REMARK VINA RESULT:     -11.3      2.432     10.841
REMARK  Name = 445480
REMARK  5 active torsions:
REMARK  status: ('A' for Active; 'I' for Inactive)
REMARK    1  A    between atoms: N_2  and  C_21
REMARK    2  A    between atoms: C_3  and  N_7
REMARK    3  A    between atoms: N_7  and  S_9
REMARK    4  A    between atoms: S_9  and  C_14
REMARK    5  A    between atoms: C_21  and  C_24
REMARK                            x       y       z     vdW  Elec       q    Type
REMARK                         _______ _______ _______ _____ _____    ______ ____
ROOT
ATOM      1  O   UNL     1      32.441 -20.939 -19.820  0.00  0.00    -0.273 OA
ATOM      2  N   UNL     1      34.273 -21.920 -18.719  0.00  0.00    -0.274 N 
ATOM      3  C   UNL     1      34.732 -20.412 -20.436  0.00  0.00    +0.153 C 
ATOM      4  C   UNL     1      35.966 -20.575 -19.557  0.00  0.00    +0.048 C 
ATOM      5  C   UNL     1      35.713 -21.879 -18.826  0.00  0.00    +0.096 C 
ATOM      6  C   UNL     1      33.641 -21.087 -19.642  0.00  0.00    +0.242 C 
ENDROOT
BRANCH   3   7
ATOM      7  N   UNL     1      34.396 -18.996 -20.619  0.00  0.00    -0.171 NA
ATOM      8  H   UNL     1      33.723 -18.939 -21.383  0.00  0.00    +0.149 HD
BRANCH   7   9
ATOM      9  S   UNL     1      35.668 -17.905 -20.980  0.00  0.00    +0.066 S 
ATOM     10  O   UNL     1      36.766 -18.634 -21.588  0.00  0.00    -0.152 OA
ATOM     11  O   UNL     1      35.883 -17.032 -19.842  0.00  0.00    -0.152 OA
BRANCH   9  14
ATOM     12  S   UNL     1      34.702 -15.243 -21.688  0.00  0.00    -0.066 S 
ATOM     13  N   UNL     1      34.047 -15.633 -25.503  0.00  0.00    -0.243 NA
ATOM     14  C   UNL     1      35.067 -16.796 -22.254  0.00  0.00    +0.153 C 
ATOM     15  C   UNL     1      34.852 -16.971 -23.578  0.00  0.00    +0.046 C 
ATOM     16  C   UNL     1      34.360 -15.778 -24.186  0.00  0.00    +0.089 C 
ATOM     17  C   UNL     1      34.226 -14.740 -23.262  0.00  0.00    +0.048 C 
ATOM     18  C   UNL     1      33.755 -13.486 -23.677  0.00  0.00    +0.010 C 
ATOM     19  C   UNL     1      33.435 -13.333 -25.019  0.00  0.00    +0.021 C 
ATOM     20  C   UNL     1      33.597 -14.415 -25.866  0.00  0.00    +0.099 C 
ENDBRANCH   9  14
ENDBRANCH   7   9
ENDBRANCH   3   7
BRANCH   2  21
ATOM     21  C   UNL     1      33.606 -22.837 -17.821  0.00  0.00    +0.120 C 
BRANCH  21  24
ATOM     22  N   UNL     1      34.474 -24.321 -11.870  0.00  0.00    -0.230 NA
ATOM     23  N   UNL     1      32.563 -24.805 -13.158  0.00  0.00    -0.343 N 
ATOM     24  C   UNL     1      34.335 -22.915 -16.509  0.00  0.00    -0.002 C 
ATOM     25  C   UNL     1      33.732 -23.540 -15.426  0.00  0.00    +0.000 C 
ATOM     26  C   UNL     1      35.601 -22.359 -16.396  0.00  0.00    -0.003 C 
ATOM     27  C   UNL     1      34.407 -23.615 -14.196  0.00  0.00    +0.031 C 
ATOM     28  C   UNL     1      35.695 -23.054 -14.067  0.00  0.00    +0.004 C 
ATOM     29  C   UNL     1      36.281 -22.427 -15.180  0.00  0.00    -0.000 C 
ATOM     30  C   UNL     1      33.857 -24.229 -13.069  0.00  0.00    +0.125 C 
ATOM     31  C   UNL     1      36.351 -23.139 -12.834  0.00  0.00    +0.021 C 
ATOM     32  C   UNL     1      35.705 -23.774 -11.784  0.00  0.00    +0.100 C 
ATOM     33  H   UNL     1      32.163 -25.240 -12.371  0.00  0.00    +0.144 HD
ATOM     34  H   UNL     1      32.066 -24.768 -14.007  0.00  0.00    +0.144 HD
ENDBRANCH  21  24
ENDBRANCH   2  21
TORSDOF 5
ENDMDL
