MODEL 1
REMARK VINA RESULT:     -11.9      0.000      0.000
REMARK  Name = 46937091
REMARK  8 active torsions:
REMARK  status: ('A' for Active; 'I' for Inactive)
REMARK    1  A    between atoms: C_1  and  C_4
REMARK    2  A    between atoms: C_1  and  C_18
REMARK    3  A    between atoms: C_10  and  C_12
REMARK    4  A    between atoms: C_18  and  C_19
REMARK    5  A    between atoms: C_19  and  N_20
REMARK    6  A    between atoms: C_19  and  C_30
REMARK    7  A    between atoms: C_24  and  C_27
REMARK    8  A    between atoms: C_30  and  O_32
REMARK                            x       y       z     vdW  Elec       q    Type
REMARK                         _______ _______ _______ _____ _____    ______ ____
ROOT
ATOM      1  C   UNL     1      34.658 -24.466 -13.948  0.00  0.00    +0.031 C 
ENDROOT
BRANCH   1   4
ATOM      2  O   UNL     1      33.679 -22.935 -16.406  0.00  0.00    -0.425 OA
ATOM      3  N   UNL     1      31.539 -22.591 -17.068  0.00  0.00    -0.368 NA
ATOM      4  C   UNL     1      33.226 -24.254 -14.366  0.00  0.00    +0.014 C 
ATOM      5  C   UNL     1      32.856 -23.542 -15.502  0.00  0.00    +0.170 C 
ATOM      6  C   UNL     1      32.172 -24.776 -13.609  0.00  0.00    -0.005 C 
ATOM      7  C   UNL     1      31.547 -23.331 -15.910  0.00  0.00    +0.151 C 
ATOM      8  C   UNL     1      30.837 -24.585 -13.986  0.00  0.00    -0.019 C 
ATOM      9  C   UNL     1      30.502 -23.861 -15.141  0.00  0.00    +0.088 C 
ATOM     10  C   UNL     1      32.815 -22.391 -17.309  0.00  0.00    +0.282 C 
BRANCH  10  12
ATOM     11 CL   UNL     1      35.377 -19.435 -21.789  0.00  0.00    -0.082 Cl
ATOM     12  C   UNL     1      33.435 -21.677 -18.391  0.00  0.00    +0.066 C 
ATOM     13  C   UNL     1      32.664 -20.862 -19.220  0.00  0.00    +0.007 C 
ATOM     14  C   UNL     1      34.806 -21.797 -18.612  0.00  0.00    +0.007 C 
ATOM     15  C   UNL     1      33.265 -20.169 -20.271  0.00  0.00    +0.012 C 
ATOM     16  C   UNL     1      35.407 -21.104 -19.663  0.00  0.00    +0.012 C 
ATOM     17  C   UNL     1      34.636 -20.290 -20.492  0.00  0.00    +0.058 C 
ENDBRANCH  10  12
ENDBRANCH   1   4
BRANCH   1  18
ATOM     18  C   UNL     1      34.944 -24.140 -12.472  0.00  0.00    +0.023 C 
BRANCH  18  19
ATOM     19  C   UNL     1      36.309 -23.453 -12.202  0.00  0.00    +0.087 C 
BRANCH  19  20
ATOM     20  N   UNL     1      37.391 -23.886 -13.183  0.00  0.00    -0.246 NA
ATOM     21  N   UNL     1      38.649 -23.917 -15.013  0.00  0.00    -0.251 NA
ATOM     22  C   UNL     1      38.277 -24.911 -13.010  0.00  0.00    +0.125 C 
ATOM     23  C   UNL     1      37.652 -23.319 -14.399  0.00  0.00    +0.201 C 
ATOM     24  C   UNL     1      39.044 -24.911 -14.152  0.00  0.00    +0.124 C 
BRANCH  24  27
ATOM     25  O   UNL     1      40.570 -25.952 -15.612  0.00  0.00    -0.269 OA
ATOM     26  N   UNL     1      40.696 -26.534 -13.398  0.00  0.00    -0.324 N 
ATOM     27  C   UNL     1      40.118 -25.807 -14.449  0.00  0.00    +0.257 C 
ATOM     28  H   UNL     1      41.437 -27.157 -13.579  0.00  0.00    +0.145 HD
ATOM     29  H   UNL     1      40.361 -26.422 -12.479  0.00  0.00    +0.145 HD
ENDBRANCH  24  27
ENDBRANCH  19  20
BRANCH  19  30
ATOM     30  C   UNL     1      36.728 -23.639 -10.718  0.00  0.00    +0.125 C 
ATOM     31  C   UNL     1      35.636 -24.242  -9.841  0.00  0.00    +0.033 C 
BRANCH  30  32
ATOM     32  O   UNL     1      37.155 -22.402 -10.153  0.00  0.00    -0.383 OA
ATOM     33  H   UNL     1      37.789 -22.575  -9.439  0.00  0.00    +0.210 HD
ENDBRANCH  30  32
ENDBRANCH  19  30
ENDBRANCH  18  19
ENDBRANCH   1  18
TORSDOF 8
ENDMDL
MODEL 2
REMARK VINA RESULT:     -11.5      3.609      7.484
REMARK  Name = 46937091
REMARK  8 active torsions:
REMARK  status: ('A' for Active; 'I' for Inactive)
REMARK    1  A    between atoms: C_1  and  C_4
REMARK    2  A    between atoms: C_1  and  C_18
REMARK    3  A    between atoms: C_10  and  C_12
REMARK    4  A    between atoms: C_18  and  C_19
REMARK    5  A    between atoms: C_19  and  N_20
REMARK    6  A    between atoms: C_19  and  C_30
REMARK    7  A    between atoms: C_24  and  C_27
REMARK    8  A    between atoms: C_30  and  O_32
REMARK                            x       y       z     vdW  Elec       q    Type
REMARK                         _______ _______ _______ _____ _____    ______ ____
ROOT
ATOM      1  C   UNL     1      32.898 -23.533 -16.653  0.00  0.00    +0.031 C 
ENDROOT
BRANCH   1   4
ATOM      2  O   UNL     1      34.666 -21.657 -18.299  0.00  0.00    -0.425 OA
ATOM      3  N   UNL     1      36.819 -21.073 -17.902  0.00  0.00    -0.368 NA
ATOM      4  C   UNL     1      34.330 -23.160 -16.366  0.00  0.00    +0.014 C 
ATOM      5  C   UNL     1      35.073 -22.297 -17.164  0.00  0.00    +0.170 C 
ATOM      6  C   UNL     1      34.997 -23.680 -15.252  0.00  0.00    -0.005 C 
ATOM      7  C   UNL     1      36.391 -21.937 -16.923  0.00  0.00    +0.151 C 
ATOM      8  C   UNL     1      36.328 -23.342 -14.974  0.00  0.00    -0.019 C 
ATOM      9  C   UNL     1      37.045 -22.467 -15.802  0.00  0.00    +0.088 C 
ATOM     10  C   UNL     1      35.765 -20.948 -18.677  0.00  0.00    +0.282 C 
BRANCH  10  12
ATOM     11 CL   UNL     1      35.102 -17.715 -23.625  0.00  0.00    -0.082 Cl
ATOM     12  C   UNL     1      35.604 -20.167 -19.873  0.00  0.00    +0.066 C 
ATOM     13  C   UNL     1      36.672 -19.414 -20.362  0.00  0.00    +0.007 C 
ATOM     14  C   UNL     1      34.382 -20.162 -20.544  0.00  0.00    +0.007 C 
ATOM     15  C   UNL     1      36.516 -18.656 -21.523  0.00  0.00    +0.012 C 
ATOM     16  C   UNL     1      34.227 -19.403 -21.704  0.00  0.00    +0.012 C 
ATOM     17  C   UNL     1      35.294 -18.651 -22.194  0.00  0.00    +0.058 C 
ENDBRANCH  10  12
ENDBRANCH   1   4
BRANCH   1  18
ATOM     18  C   UNL     1      31.889 -23.037 -15.603  0.00  0.00    +0.023 C 
BRANCH  18  19
ATOM     19  C   UNL     1      30.803 -24.068 -15.195  0.00  0.00    +0.087 C 
BRANCH  19  20
ATOM     20  N   UNL     1      29.420 -23.707 -15.723  0.00  0.00    -0.246 NA
ATOM     21  N   UNL     1      27.486 -23.907 -16.796  0.00  0.00    -0.251 NA
ATOM     22  C   UNL     1      28.751 -22.537 -15.507  0.00  0.00    +0.125 C 
ATOM     23  C   UNL     1      28.622 -24.499 -16.502  0.00  0.00    +0.201 C 
ATOM     24  C   UNL     1      27.559 -22.683 -16.178  0.00  0.00    +0.124 C 
BRANCH  24  27
ATOM     25  O   UNL     1      26.383 -20.932 -17.226  0.00  0.00    -0.269 OA
ATOM     26  N   UNL     1      25.572 -21.661 -15.209  0.00  0.00    -0.324 N 
ATOM     27  C   UNL     1      26.507 -21.717 -16.253  0.00  0.00    +0.257 C 
ATOM     28  H   UNL     1      24.839 -21.004 -15.238  0.00  0.00    +0.145 HD
ATOM     29  H   UNL     1      25.649 -22.278 -14.446  0.00  0.00    +0.145 HD
ENDBRANCH  24  27
ENDBRANCH  19  20
BRANCH  19  30
ATOM     30  C   UNL     1      30.823 -24.298 -13.660  0.00  0.00    +0.125 C 
ATOM     31  C   UNL     1      32.183 -24.725 -13.118  0.00  0.00    +0.033 C 
BRANCH  30  32
ATOM     32  O   UNL     1      29.842 -25.261 -13.279  0.00  0.00    -0.383 OA
ATOM     33  H   UNL     1      29.479 -25.683 -14.074  0.00  0.00    +0.210 HD
ENDBRANCH  30  32
ENDBRANCH  19  30
ENDBRANCH  18  19
ENDBRANCH   1  18
TORSDOF 8
ENDMDL
MODEL 3
REMARK VINA RESULT:     -10.4      2.960      5.798
REMARK  Name = 46937091
REMARK  8 active torsions:
REMARK  status: ('A' for Active; 'I' for Inactive)
REMARK    1  A    between atoms: C_1  and  C_4
REMARK    2  A    between atoms: C_1  and  C_18
REMARK    3  A    between atoms: C_10  and  C_12
REMARK    4  A    between atoms: C_18  and  C_19
REMARK    5  A    between atoms: C_19  and  N_20
REMARK    6  A    between atoms: C_19  and  C_30
REMARK    7  A    between atoms: C_24  and  C_27
REMARK    8  A    between atoms: C_30  and  O_32
REMARK                            x       y       z     vdW  Elec       q    Type
REMARK                         _______ _______ _______ _____ _____    ______ ____
ROOT
ATOM      1  C   UNL     1      32.883 -22.417 -17.930  0.00  0.00    +0.031 C 
ENDROOT
BRANCH   1   4
ATOM      2  O   UNL     1      34.481 -20.530 -19.728  0.00  0.00    -0.425 OA
ATOM      3  N   UNL     1      36.683 -20.014 -19.593  0.00  0.00    -0.368 NA
ATOM      4  C   UNL     1      34.350 -22.090 -17.817  0.00  0.00    +0.014 C 
ATOM      5  C   UNL     1      35.010 -21.219 -18.676  0.00  0.00    +0.170 C 
ATOM      6  C   UNL     1      35.139 -22.665 -16.815  0.00  0.00    -0.005 C 
ATOM      7  C   UNL     1      36.358 -20.900 -18.595  0.00  0.00    +0.151 C 
ATOM      8  C   UNL     1      36.503 -22.371 -16.699  0.00  0.00    -0.019 C 
ATOM      9  C   UNL     1      37.134 -21.485 -17.585  0.00  0.00    +0.088 C 
ATOM     10  C   UNL     1      35.543 -19.835 -20.222  0.00  0.00    +0.282 C 
BRANCH  10  12
ATOM     11 CL   UNL     1      34.348 -16.414 -24.938  0.00  0.00    -0.082 Cl
ATOM     12  C   UNL     1      35.254 -19.009 -21.362  0.00  0.00    +0.066 C 
ATOM     13  C   UNL     1      35.613 -17.661 -21.355  0.00  0.00    +0.007 C 
ATOM     14  C   UNL     1      34.615 -19.554 -22.475  0.00  0.00    +0.007 C 
ATOM     15  C   UNL     1      35.333 -16.859 -22.461  0.00  0.00    +0.012 C 
ATOM     16  C   UNL     1      34.335 -18.751 -23.581  0.00  0.00    +0.012 C 
ATOM     17  C   UNL     1      34.694 -17.404 -23.574  0.00  0.00    +0.058 C 
ENDBRANCH  10  12
ENDBRANCH   1   4
BRANCH   1  18
ATOM     18  C   UNL     1      32.374 -23.425 -16.885  0.00  0.00    +0.023 C 
BRANCH  18  19
ATOM     19  C   UNL     1      31.720 -22.795 -15.626  0.00  0.00    +0.087 C 
BRANCH  19  20
ATOM     20  N   UNL     1      32.401 -23.222 -14.332  0.00  0.00    -0.246 NA
ATOM     21  N   UNL     1      32.739 -23.510 -12.156  0.00  0.00    -0.251 NA
ATOM     22  C   UNL     1      33.600 -23.865 -14.223  0.00  0.00    +0.125 C 
ATOM     23  C   UNL     1      31.921 -23.030 -13.066  0.00  0.00    +0.201 C 
ATOM     24  C   UNL     1      33.788 -24.033 -12.871  0.00  0.00    +0.124 C 
BRANCH  24  27
ATOM     25  O   UNL     1      35.006 -24.778 -10.997  0.00  0.00    -0.269 OA
ATOM     26  N   UNL     1      35.930 -25.178 -13.057  0.00  0.00    -0.324 N 
ATOM     27  C   UNL     1      34.910 -24.661 -12.245  0.00  0.00    +0.257 C 
ATOM     28  H   UNL     1      36.713 -25.615 -12.648  0.00  0.00    +0.145 HD
ATOM     29  H   UNL     1      35.864 -25.105 -14.036  0.00  0.00    +0.145 HD
ENDBRANCH  24  27
ENDBRANCH  19  20
BRANCH  19  30
ATOM     30  C   UNL     1      30.190 -23.058 -15.620  0.00  0.00    +0.125 C 
ATOM     31  C   UNL     1      29.818 -24.534 -15.534  0.00  0.00    +0.033 C 
BRANCH  30  32
ATOM     32  O   UNL     1      29.573 -22.485 -16.771  0.00  0.00    -0.383 OA
ATOM     33  H   UNL     1      29.509 -23.154 -17.470  0.00  0.00    +0.210 HD
ENDBRANCH  30  32
ENDBRANCH  19  30
ENDBRANCH  18  19
ENDBRANCH   1  18
TORSDOF 8
ENDMDL
MODEL 4
REMARK VINA RESULT:     -10.4      3.614      7.598
REMARK  Name = 46937091
REMARK  8 active torsions:
REMARK  status: ('A' for Active; 'I' for Inactive)
REMARK    1  A    between atoms: C_1  and  C_4
REMARK    2  A    between atoms: C_1  and  C_18
REMARK    3  A    between atoms: C_10  and  C_12
REMARK    4  A    between atoms: C_18  and  C_19
REMARK    5  A    between atoms: C_19  and  N_20
REMARK    6  A    between atoms: C_19  and  C_30
REMARK    7  A    between atoms: C_24  and  C_27
REMARK    8  A    between atoms: C_30  and  O_32
REMARK                            x       y       z     vdW  Elec       q    Type
REMARK                         _______ _______ _______ _____ _____    ______ ____
ROOT
ATOM      1  C   UNL     1      36.997 -22.120 -16.693  0.00  0.00    +0.031 C 
ENDROOT
BRANCH   1   4
ATOM      2  O   UNL     1      34.397 -22.946 -15.312  0.00  0.00    -0.425 OA
ATOM      3  N   UNL     1      34.154 -24.214 -13.450  0.00  0.00    -0.368 NA
ATOM      4  C   UNL     1      36.864 -22.967 -15.454  0.00  0.00    +0.014 C 
ATOM      5  C   UNL     1      35.642 -23.302 -14.881  0.00  0.00    +0.170 C 
ATOM      6  C   UNL     1      37.995 -23.469 -14.802  0.00  0.00    -0.005 C 
ATOM      7  C   UNL     1      35.490 -24.078 -13.741  0.00  0.00    +0.151 C 
ATOM      8  C   UNL     1      37.886 -24.256 -13.649  0.00  0.00    -0.019 C 
ATOM      9  C   UNL     1      36.634 -24.574 -13.101  0.00  0.00    +0.088 C 
ATOM     10  C   UNL     1      33.565 -23.530 -14.406  0.00  0.00    +0.282 C 
BRANCH  10  12
ATOM     11 CL   UNL     1      27.766 -22.607 -15.345  0.00  0.00    -0.082 Cl
ATOM     12  C   UNL     1      32.164 -23.307 -14.632  0.00  0.00    +0.066 C 
ATOM     13  C   UNL     1      31.702 -23.022 -15.917  0.00  0.00    +0.007 C 
ATOM     14  C   UNL     1      31.265 -23.375 -13.568  0.00  0.00    +0.007 C 
ATOM     15  C   UNL     1      30.342 -22.806 -16.137  0.00  0.00    +0.012 C 
ATOM     16  C   UNL     1      29.905 -23.159 -13.788  0.00  0.00    +0.012 C 
ATOM     17  C   UNL     1      29.444 -22.874 -15.073  0.00  0.00    +0.058 C 
ENDBRANCH  10  12
ENDBRANCH   1   4
BRANCH   1  18
ATOM     18  C   UNL     1      35.660 -21.623 -17.270  0.00  0.00    +0.023 C 
BRANCH  18  19
ATOM     19  C   UNL     1      35.487 -21.826 -18.799  0.00  0.00    +0.087 C 
BRANCH  19  20
ATOM     20  N   UNL     1      35.809 -20.571 -19.600  0.00  0.00    -0.246 NA
ATOM     21  N   UNL     1      36.922 -18.787 -20.314  0.00  0.00    -0.251 NA
ATOM     22  C   UNL     1      35.026 -20.004 -20.565  0.00  0.00    +0.125 C 
ATOM     23  C   UNL     1      36.936 -19.807 -19.484  0.00  0.00    +0.201 C 
ATOM     24  C   UNL     1      35.734 -18.905 -20.992  0.00  0.00    +0.124 C 
BRANCH  24  27
ATOM     25  O   UNL     1      35.662 -16.766 -21.977  0.00  0.00    -0.269 OA
ATOM     26  N   UNL     1      34.541 -18.445 -23.066  0.00  0.00    -0.324 N 
ATOM     27  C   UNL     1      35.327 -17.977 -22.002  0.00  0.00    +0.257 C 
ATOM     28  H   UNL     1      34.250 -17.824 -23.773  0.00  0.00    +0.145 HD
ATOM     29  H   UNL     1      34.282 -19.393 -23.106  0.00  0.00    +0.145 HD
ENDBRANCH  24  27
ENDBRANCH  19  20
BRANCH  19  30
ATOM     30  C   UNL     1      34.079 -22.401 -19.114  0.00  0.00    +0.125 C 
ATOM     31  C   UNL     1      32.936 -21.450 -18.778  0.00  0.00    +0.033 C 
BRANCH  30  32
ATOM     32  O   UNL     1      33.875 -23.639 -18.437  0.00  0.00    -0.383 OA
ATOM     33  H   UNL     1      32.928 -23.849 -18.426  0.00  0.00    +0.210 HD
ENDBRANCH  30  32
ENDBRANCH  19  30
ENDBRANCH  18  19
ENDBRANCH   1  18
TORSDOF 8
ENDMDL
MODEL 5
REMARK VINA RESULT:     -10.4      1.645      3.447
REMARK  Name = 46937091
REMARK  8 active torsions:
REMARK  status: ('A' for Active; 'I' for Inactive)
REMARK    1  A    between atoms: C_1  and  C_4
REMARK    2  A    between atoms: C_1  and  C_18
REMARK    3  A    between atoms: C_10  and  C_12
REMARK    4  A    between atoms: C_18  and  C_19
REMARK    5  A    between atoms: C_19  and  N_20
REMARK    6  A    between atoms: C_19  and  C_30
REMARK    7  A    between atoms: C_24  and  C_27
REMARK    8  A    between atoms: C_30  and  O_32
REMARK                            x       y       z     vdW  Elec       q    Type
REMARK                         _______ _______ _______ _____ _____    ______ ____
ROOT
ATOM      1  C   UNL     1      34.006 -24.236 -14.279  0.00  0.00    +0.031 C 
ENDROOT
BRANCH   1   4
ATOM      2  O   UNL     1      33.364 -22.609 -16.788  0.00  0.00    -0.425 OA
ATOM      3  N   UNL     1      31.323 -22.075 -17.613  0.00  0.00    -0.368 NA
ATOM      4  C   UNL     1      32.636 -23.895 -14.807  0.00  0.00    +0.014 C 
ATOM      5  C   UNL     1      32.422 -23.147 -15.959  0.00  0.00    +0.170 C 
ATOM      6  C   UNL     1      31.483 -24.327 -14.143  0.00  0.00    -0.005 C 
ATOM      7  C   UNL     1      31.174 -22.819 -16.468  0.00  0.00    +0.151 C 
ATOM      8  C   UNL     1      30.204 -24.017 -14.623  0.00  0.00    -0.019 C 
ATOM      9  C   UNL     1      30.028 -23.260 -15.790  0.00  0.00    +0.088 C 
ATOM     10  C   UNL     1      32.627 -21.986 -17.749  0.00  0.00    +0.282 C 
BRANCH  10  12
ATOM     11 CL   UNL     1      35.793 -19.244 -21.971  0.00  0.00    -0.082 Cl
ATOM     12  C   UNL     1      33.392 -21.323 -18.769  0.00  0.00    +0.066 C 
ATOM     13  C   UNL     1      34.766 -21.544 -18.865  0.00  0.00    +0.007 C 
ATOM     14  C   UNL     1      32.761 -20.460 -19.664  0.00  0.00    +0.007 C 
ATOM     15  C   UNL     1      35.508 -20.901 -19.855  0.00  0.00    +0.012 C 
ATOM     16  C   UNL     1      33.503 -19.817 -20.654  0.00  0.00    +0.012 C 
ATOM     17  C   UNL     1      34.877 -20.038 -20.749  0.00  0.00    +0.058 C 
ENDBRANCH  10  12
ENDBRANCH   1   4
BRANCH   1  18
ATOM     18  C   UNL     1      35.135 -24.120 -15.318  0.00  0.00    +0.023 C 
BRANCH  18  19
ATOM     19  C   UNL     1      36.568 -24.332 -14.761  0.00  0.00    +0.087 C 
BRANCH  19  20
ATOM     20  N   UNL     1      36.576 -24.704 -13.283  0.00  0.00    -0.246 NA
ATOM     21  N   UNL     1      36.909 -25.897 -11.440  0.00  0.00    -0.251 NA
ATOM     22  C   UNL     1      36.123 -23.932 -12.252  0.00  0.00    +0.125 C 
ATOM     23  C   UNL     1      37.039 -25.874 -12.748  0.00  0.00    +0.201 C 
ATOM     24  C   UNL     1      36.339 -24.688 -11.124  0.00  0.00    +0.124 C 
BRANCH  24  27
ATOM     25  O   UNL     1      35.300 -25.014  -9.036  0.00  0.00    -0.269 OA
ATOM     26  N   UNL     1      36.572 -23.121  -9.274  0.00  0.00    -0.324 N 
ATOM     27  C   UNL     1      36.028 -24.311  -9.780  0.00  0.00    +0.257 C 
ATOM     28  H   UNL     1      36.371 -22.841  -8.351  0.00  0.00    +0.145 HD
ATOM     29  H   UNL     1      37.154 -22.566  -9.840  0.00  0.00    +0.145 HD
ENDBRANCH  24  27
ENDBRANCH  19  20
BRANCH  19  30
ATOM     30  C   UNL     1      37.462 -23.104 -15.080  0.00  0.00    +0.125 C 
ATOM     31  C   UNL     1      36.913 -22.213 -16.190  0.00  0.00    +0.033 C 
BRANCH  30  32
ATOM     32  O   UNL     1      38.785 -23.515 -15.420  0.00  0.00    -0.383 OA
ATOM     33  H   UNL     1      39.336 -23.519 -14.622  0.00  0.00    +0.210 HD
ENDBRANCH  30  32
ENDBRANCH  19  30
ENDBRANCH  18  19
ENDBRANCH   1  18
TORSDOF 8
ENDMDL
MODEL 6
REMARK VINA RESULT:     -10.3     10.358     14.184
REMARK  Name = 46937091
REMARK  8 active torsions:
REMARK  status: ('A' for Active; 'I' for Inactive)
REMARK    1  A    between atoms: C_1  and  C_4
REMARK    2  A    between atoms: C_1  and  C_18
REMARK    3  A    between atoms: C_10  and  C_12
REMARK    4  A    between atoms: C_18  and  C_19
REMARK    5  A    between atoms: C_19  and  N_20
REMARK    6  A    between atoms: C_19  and  C_30
REMARK    7  A    between atoms: C_24  and  C_27
REMARK    8  A    between atoms: C_30  and  O_32
REMARK                            x       y       z     vdW  Elec       q    Type
REMARK                         _______ _______ _______ _____ _____    ______ ____
ROOT
ATOM      1  C   UNL     1      33.222 -12.681 -23.446  0.00  0.00    +0.031 C 
ENDROOT
BRANCH   1   4
ATOM      2  O   UNL     1      32.686  -9.714 -22.936  0.00  0.00    -0.425 OA
ATOM      3  N   UNL     1      31.917  -8.748 -21.036  0.00  0.00    -0.368 NA
ATOM      4  C   UNL     1      32.708 -12.064 -22.171  0.00  0.00    +0.014 C 
ATOM      5  C   UNL     1      32.489 -10.700 -22.012  0.00  0.00    +0.170 C 
ATOM      6  C   UNL     1      32.420 -12.857 -21.055  0.00  0.00    -0.005 C 
ATOM      7  C   UNL     1      32.017 -10.106 -20.851  0.00  0.00    +0.151 C 
ATOM      8  C   UNL     1      31.943 -12.296 -19.863  0.00  0.00    -0.019 C 
ATOM      9  C   UNL     1      31.734 -10.914 -19.742  0.00  0.00    +0.088 C 
ATOM     10  C   UNL     1      32.322  -8.580 -22.275  0.00  0.00    +0.282 C 
BRANCH  10  12
ATOM     11 CL   UNL     1      32.802  -3.560 -25.428  0.00  0.00    -0.082 Cl
ATOM     12  C   UNL     1      32.438  -7.367 -23.037  0.00  0.00    +0.066 C 
ATOM     13  C   UNL     1      33.694  -6.807 -23.270  0.00  0.00    +0.007 C 
ATOM     14  C   UNL     1      31.295  -6.750 -23.544  0.00  0.00    +0.007 C 
ATOM     15  C   UNL     1      33.806  -5.630 -24.009  0.00  0.00    +0.012 C 
ATOM     16  C   UNL     1      31.407  -5.573 -24.284  0.00  0.00    +0.012 C 
ATOM     17  C   UNL     1      32.664  -5.013 -24.516  0.00  0.00    +0.058 C 
ENDBRANCH  10  12
ENDBRANCH   1   4
BRANCH   1  18
ATOM     18  C   UNL     1      34.400 -13.651 -23.253  0.00  0.00    +0.023 C 
BRANCH  18  19
ATOM     19  C   UNL     1      34.031 -15.157 -23.323  0.00  0.00    +0.087 C 
BRANCH  19  20
ATOM     20  N   UNL     1      34.693 -15.977 -22.223  0.00  0.00    -0.246 NA
ATOM     21  N   UNL     1      35.373 -16.572 -20.195  0.00  0.00    -0.251 NA
ATOM     22  C   UNL     1      35.363 -17.156 -22.385  0.00  0.00    +0.125 C 
ATOM     23  C   UNL     1      34.725 -15.666 -20.893  0.00  0.00    +0.201 C 
ATOM     24  C   UNL     1      35.773 -17.505 -21.119  0.00  0.00    +0.124 C 
BRANCH  24  27
ATOM     25  O   UNL     1      37.759 -18.760 -20.952  0.00  0.00    -0.269 OA
ATOM     26  N   UNL     1      35.844 -19.746 -20.167  0.00  0.00    -0.324 N 
ATOM     27  C   UNL     1      36.520 -18.671 -20.764  0.00  0.00    +0.257 C 
ATOM     28  H   UNL     1      36.338 -20.560 -19.913  0.00  0.00    +0.145 HD
ATOM     29  H   UNL     1      34.876 -19.687 -20.001  0.00  0.00    +0.145 HD
ENDBRANCH  24  27
ENDBRANCH  19  20
BRANCH  19  30
ATOM     30  C   UNL     1      34.305 -15.718 -24.745  0.00  0.00    +0.125 C 
ATOM     31  C   UNL     1      34.199 -14.674 -25.851  0.00  0.00    +0.033 C 
BRANCH  30  32
ATOM     32  O   UNL     1      33.429 -16.805 -25.038  0.00  0.00    -0.383 OA
ATOM     33  H   UNL     1      32.706 -16.492 -25.605  0.00  0.00    +0.210 HD
ENDBRANCH  30  32
ENDBRANCH  19  30
ENDBRANCH  18  19
ENDBRANCH   1  18
TORSDOF 8
ENDMDL
MODEL 7
REMARK VINA RESULT:     -10.1     10.815     15.735
REMARK  Name = 46937091
REMARK  8 active torsions:
REMARK  status: ('A' for Active; 'I' for Inactive)
REMARK    1  A    between atoms: C_1  and  C_4
REMARK    2  A    between atoms: C_1  and  C_18
REMARK    3  A    between atoms: C_10  and  C_12
REMARK    4  A    between atoms: C_18  and  C_19
REMARK    5  A    between atoms: C_19  and  N_20
REMARK    6  A    between atoms: C_19  and  C_30
REMARK    7  A    between atoms: C_24  and  C_27
REMARK    8  A    between atoms: C_30  and  O_32
REMARK                            x       y       z     vdW  Elec       q    Type
REMARK                         _______ _______ _______ _____ _____    ______ ____
ROOT
ATOM      1  C   UNL     1      33.491 -11.808 -22.782  0.00  0.00    +0.031 C 
ENDROOT
BRANCH   1   4
ATOM      2  O   UNL     1      34.210 -14.758 -23.143  0.00  0.00    -0.425 OA
ATOM      3  N   UNL     1      34.388 -15.918 -25.082  0.00  0.00    -0.368 NA
ATOM      4  C   UNL     1      33.602 -12.556 -24.086  0.00  0.00    +0.014 C 
ATOM      5  C   UNL     1      33.936 -13.903 -24.171  0.00  0.00    +0.170 C 
ATOM      6  C   UNL     1      33.369 -11.912 -25.306  0.00  0.00    -0.005 C 
ATOM      7  C   UNL     1      34.045 -14.616 -25.356  0.00  0.00    +0.151 C 
ATOM      8  C   UNL     1      33.470 -12.595 -26.524  0.00  0.00    -0.019 C 
ATOM      9  C   UNL     1      33.808 -13.955 -26.570  0.00  0.00    +0.088 C 
ATOM     10  C   UNL     1      34.470 -15.939 -23.770  0.00  0.00    +0.282 C 
BRANCH  10  12
ATOM     11 CL   UNL     1      35.820 -20.466 -20.157  0.00  0.00    -0.082 Cl
ATOM     12  C   UNL     1      34.796 -17.033 -22.897  0.00  0.00    +0.066 C 
ATOM     13  C   UNL     1      35.357 -16.783 -21.645  0.00  0.00    +0.007 C 
ATOM     14  C   UNL     1      34.551 -18.345 -23.301  0.00  0.00    +0.007 C 
ATOM     15  C   UNL     1      35.674 -17.844 -20.798  0.00  0.00    +0.012 C 
ATOM     16  C   UNL     1      34.868 -19.407 -22.454  0.00  0.00    +0.012 C 
ATOM     17  C   UNL     1      35.429 -19.156 -21.202  0.00  0.00    +0.058 C 
ENDBRANCH  10  12
ENDBRANCH   1   4
BRANCH   1  18
ATOM     18  C   UNL     1      33.391 -10.280 -22.933  0.00  0.00    +0.023 C 
BRANCH  18  19
ATOM     19  C   UNL     1      32.198  -9.622 -22.189  0.00  0.00    +0.087 C 
BRANCH  19  20
ATOM     20  N   UNL     1      32.385  -8.123 -21.987  0.00  0.00    -0.246 NA
ATOM     21  N   UNL     1      33.409  -6.164 -21.779  0.00  0.00    -0.251 NA
ATOM     22  C   UNL     1      31.395  -7.205 -21.784  0.00  0.00    +0.125 C 
ATOM     23  C   UNL     1      33.576  -7.453 -21.976  0.00  0.00    +0.201 C 
ATOM     24  C   UNL     1      32.050  -6.002 -21.659  0.00  0.00    +0.124 C 
BRANCH  24  27
ATOM     25  O   UNL     1      32.091  -3.740 -21.002  0.00  0.00    -0.269 OA
ATOM     26  N   UNL     1      30.078  -4.574 -21.717  0.00  0.00    -0.324 N 
ATOM     27  C   UNL     1      31.443  -4.728 -21.432  0.00  0.00    +0.257 C 
ATOM     28  H   UNL     1      29.638  -3.705 -21.568  0.00  0.00    +0.145 HD
ATOM     29  H   UNL     1      29.560  -5.334 -22.065  0.00  0.00    +0.145 HD
ENDBRANCH  24  27
ENDBRANCH  19  20
BRANCH  19  30
ATOM     30  C   UNL     1      31.898 -10.378 -20.867  0.00  0.00    +0.125 C 
ATOM     31  C   UNL     1      30.455 -10.854 -20.743  0.00  0.00    +0.033 C 
BRANCH  30  32
ATOM     32  O   UNL     1      32.226  -9.572 -19.737  0.00  0.00    -0.383 OA
ATOM     33  H   UNL     1      32.632 -10.126 -19.052  0.00  0.00    +0.210 HD
ENDBRANCH  30  32
ENDBRANCH  19  30
ENDBRANCH  18  19
ENDBRANCH   1  18
TORSDOF 8
ENDMDL
MODEL 8
REMARK VINA RESULT:     -10.1      8.175     13.174
REMARK  Name = 46937091
REMARK  8 active torsions:
REMARK  status: ('A' for Active; 'I' for Inactive)
REMARK    1  A    between atoms: C_1  and  C_4
REMARK    2  A    between atoms: C_1  and  C_18
REMARK    3  A    between atoms: C_10  and  C_12
REMARK    4  A    between atoms: C_18  and  C_19
REMARK    5  A    between atoms: C_19  and  N_20
REMARK    6  A    between atoms: C_19  and  C_30
REMARK    7  A    between atoms: C_24  and  C_27
REMARK    8  A    between atoms: C_30  and  O_32
REMARK                            x       y       z     vdW  Elec       q    Type
REMARK                         _______ _______ _______ _____ _____    ______ ____
ROOT
ATOM      1  C   UNL     1      34.766 -14.884 -21.032  0.00  0.00    +0.031 C 
ENDROOT
BRANCH   1   4
ATOM      2  O   UNL     1      34.632 -17.934 -20.868  0.00  0.00    -0.425 OA
ATOM      3  N   UNL     1      34.621 -19.419 -22.580  0.00  0.00    -0.368 NA
ATOM      4  C   UNL     1      34.759 -15.850 -22.189  0.00  0.00    +0.014 C 
ATOM      5  C   UNL     1      34.697 -17.230 -22.036  0.00  0.00    +0.170 C 
ATOM      6  C   UNL     1      34.819 -15.390 -23.509  0.00  0.00    -0.005 C 
ATOM      7  C   UNL     1      34.690 -18.141 -23.081  0.00  0.00    +0.151 C 
ATOM      8  C   UNL     1      34.814 -16.276 -24.593  0.00  0.00    -0.019 C 
ATOM      9  C   UNL     1      34.749 -17.664 -24.398  0.00  0.00    +0.088 C 
ATOM     10  C   UNL     1      34.590 -19.232 -21.279  0.00  0.00    +0.282 C 
BRANCH  10  12
ATOM     11 CL   UNL     1      34.292 -23.254 -16.909  0.00  0.00    -0.082 Cl
ATOM     12  C   UNL     1      34.517 -20.204 -20.223  0.00  0.00    +0.066 C 
ATOM     13  C   UNL     1      35.689 -20.722 -19.671  0.00  0.00    +0.007 C 
ATOM     14  C   UNL     1      33.276 -20.629 -19.749  0.00  0.00    +0.007 C 
ATOM     15  C   UNL     1      35.619 -21.665 -18.646  0.00  0.00    +0.012 C 
ATOM     16  C   UNL     1      33.207 -21.572 -18.725  0.00  0.00    +0.012 C 
ATOM     17  C   UNL     1      34.378 -22.090 -18.173  0.00  0.00    +0.058 C 
ENDBRANCH  10  12
ENDBRANCH   1   4
BRANCH   1  18
ATOM     18  C   UNL     1      34.652 -13.404 -21.438  0.00  0.00    +0.023 C 
BRANCH  18  19
ATOM     19  C   UNL     1      33.208 -12.905 -21.710  0.00  0.00    +0.087 C 
BRANCH  19  20
ATOM     20  N   UNL     1      33.174 -11.584 -22.468  0.00  0.00    -0.246 NA
ATOM     21  N   UNL     1      33.523 -10.106 -24.088  0.00  0.00    -0.251 NA
ATOM     22  C   UNL     1      32.597 -10.422 -22.043  0.00  0.00    +0.125 C 
ATOM     23  C   UNL     1      33.717 -11.347 -23.700  0.00  0.00    +0.201 C 
ATOM     24  C   UNL     1      32.824  -9.524 -23.059  0.00  0.00    +0.124 C 
BRANCH  24  27
ATOM     25  O   UNL     1      33.193  -7.221 -23.391  0.00  0.00    -0.269 OA
ATOM     26  N   UNL     1      31.075  -7.851 -22.778  0.00  0.00    -0.324 N 
ATOM     27  C   UNL     1      32.409  -8.155 -23.086  0.00  0.00    +0.257 C 
ATOM     28  H   UNL     1      30.767  -6.916 -22.790  0.00  0.00    +0.145 HD
ATOM     29  H   UNL     1      30.447  -8.573 -22.549  0.00  0.00    +0.145 HD
ENDBRANCH  24  27
ENDBRANCH  19  20
BRANCH  19  30
ATOM     30  C   UNL     1      32.389 -12.868 -20.392  0.00  0.00    +0.125 C 
ATOM     31  C   UNL     1      32.213 -14.234 -19.736  0.00  0.00    +0.033 C 
BRANCH  30  32
ATOM     32  O   UNL     1      31.107 -12.282 -20.608  0.00  0.00    -0.383 OA
ATOM     33  H   UNL     1      30.541 -12.911 -21.083  0.00  0.00    +0.210 HD
ENDBRANCH  30  32
ENDBRANCH  19  30
ENDBRANCH  18  19
ENDBRANCH   1  18
TORSDOF 8
ENDMDL
MODEL 9
REMARK VINA RESULT:     -10.0      8.938     13.906
REMARK  Name = 46937091
REMARK  8 active torsions:
REMARK  status: ('A' for Active; 'I' for Inactive)
REMARK    1  A    between atoms: C_1  and  C_4
REMARK    2  A    between atoms: C_1  and  C_18
REMARK    3  A    between atoms: C_10  and  C_12
REMARK    4  A    between atoms: C_18  and  C_19
REMARK    5  A    between atoms: C_19  and  N_20
REMARK    6  A    between atoms: C_19  and  C_30
REMARK    7  A    between atoms: C_24  and  C_27
REMARK    8  A    between atoms: C_30  and  O_32
REMARK                            x       y       z     vdW  Elec       q    Type
REMARK                         _______ _______ _______ _____ _____    ______ ____
ROOT
ATOM      1  C   UNL     1      34.597 -13.743 -22.142  0.00  0.00    +0.031 C 
ENDROOT
BRANCH   1   4
ATOM      2  O   UNL     1      34.980 -16.765 -21.872  0.00  0.00    -0.425 OA
ATOM      3  N   UNL     1      34.646 -18.355 -23.452  0.00  0.00    -0.368 NA
ATOM      4  C   UNL     1      34.366 -14.780 -23.211  0.00  0.00    +0.014 C 
ATOM      5  C   UNL     1      34.563 -16.142 -23.013  0.00  0.00    +0.170 C 
ATOM      6  C   UNL     1      33.932 -14.411 -24.488  0.00  0.00    -0.005 C 
ATOM      7  C   UNL     1      34.359 -17.118 -23.978  0.00  0.00    +0.151 C 
ATOM      8  C   UNL     1      33.715 -15.365 -25.491  0.00  0.00    -0.019 C 
ATOM      9  C   UNL     1      33.924 -16.731 -25.253  0.00  0.00    +0.088 C 
ATOM     10  C   UNL     1      35.004 -18.082 -22.216  0.00  0.00    +0.282 C 
BRANCH  10  12
ATOM     11 CL   UNL     1      36.721 -21.788 -17.894  0.00  0.00    -0.082 Cl
ATOM     12  C   UNL     1      35.418 -18.978 -21.172  0.00  0.00    +0.066 C 
ATOM     13  C   UNL     1      36.737 -18.958 -20.719  0.00  0.00    +0.007 C 
ATOM     14  C   UNL     1      34.502 -19.866 -20.610  0.00  0.00    +0.007 C 
ATOM     15  C   UNL     1      37.140 -19.828 -19.706  0.00  0.00    +0.012 C 
ATOM     16  C   UNL     1      34.905 -20.735 -19.596  0.00  0.00    +0.012 C 
ATOM     17  C   UNL     1      36.224 -20.716 -19.144  0.00  0.00    +0.058 C 
ENDBRANCH  10  12
ENDBRANCH   1   4
BRANCH   1  18
ATOM     18  C   UNL     1      34.052 -12.346 -22.484  0.00  0.00    +0.023 C 
BRANCH  18  19
ATOM     19  C   UNL     1      32.710 -11.976 -21.798  0.00  0.00    +0.087 C 
BRANCH  19  20
ATOM     20  N   UNL     1      32.339 -10.509 -21.981  0.00  0.00    -0.246 NA
ATOM     21  N   UNL     1      31.133  -8.645 -21.923  0.00  0.00    -0.251 NA
ATOM     22  C   UNL     1      33.132  -9.535 -22.516  0.00  0.00    +0.125 C 
ATOM     23  C   UNL     1      31.149  -9.929 -21.639  0.00  0.00    +0.201 C 
ATOM     24  C   UNL     1      32.367  -8.393 -22.469  0.00  0.00    +0.124 C 
BRANCH  24  27
ATOM     25  O   UNL     1      32.095  -6.445 -23.765  0.00  0.00    -0.269 OA
ATOM     26  N   UNL     1      33.920  -6.518 -22.379  0.00  0.00    -0.324 N 
ATOM     27  C   UNL     1      32.760  -7.093 -22.918  0.00  0.00    +0.257 C 
ATOM     28  H   UNL     1      34.210  -5.624 -22.674  0.00  0.00    +0.145 HD
ATOM     29  H   UNL     1      34.445  -7.008 -21.706  0.00  0.00    +0.145 HD
ENDBRANCH  24  27
ENDBRANCH  19  20
BRANCH  19  30
ATOM     30  C   UNL     1      32.722 -12.415 -20.309  0.00  0.00    +0.125 C 
ATOM     31  C   UNL     1      31.972 -13.716 -20.044  0.00  0.00    +0.033 C 
BRANCH  30  32
ATOM     32  O   UNL     1      32.192 -11.389 -19.473  0.00  0.00    -0.383 OA
ATOM     33  H   UNL     1      32.697 -10.571 -19.607  0.00  0.00    +0.210 HD
ENDBRANCH  30  32
ENDBRANCH  19  30
ENDBRANCH  18  19
ENDBRANCH   1  18
TORSDOF 8
ENDMDL
