MODEL 1
REMARK VINA RESULT:     -11.8      0.000      0.000
REMARK  Name = 5288018
REMARK  3 active torsions:
REMARK  status: ('A' for Active; 'I' for Inactive)
REMARK    1  A    between atoms: C_9  and  N_24
REMARK    2  A    between atoms: C_10  and  C_17
REMARK    3  A    between atoms: N_23  and  N_29
REMARK                            x       y       z     vdW  Elec       q    Type
REMARK                         _______ _______ _______ _____ _____    ______ ____
ROOT
ATOM      1  O   UNL     1      32.418 -22.228 -17.942  0.00  0.00    -0.286 OA
ATOM      2  N   UNL     1      32.365 -24.002 -13.849  0.00  0.00    -0.278 N 
ATOM      3  N   UNL     1      33.720 -23.864 -13.800  0.00  0.00    -0.173 NA
ATOM      4  C   UNL     1      34.661 -22.389 -16.963  0.00  0.00    +0.054 C 
ATOM      5  C   UNL     1      32.831 -23.119 -15.765  0.00  0.00    +0.072 A 
ATOM      6  C   UNL     1      35.125 -22.877 -15.709  0.00  0.00    +0.024 C 
ATOM      7  C   UNL     1      33.976 -23.324 -14.982  0.00  0.00    +0.105 A 
ATOM      8  C   UNL     1      33.165 -22.533 -17.035  0.00  0.00    +0.199 C 
ATOM      9  C   UNL     1      35.530 -21.887 -17.889  0.00  0.00    +0.055 C 
ATOM     10  C   UNL     1      31.784 -23.563 -15.022  0.00  0.00    +0.073 A 
ATOM     11  C   UNL     1      36.461 -22.862 -15.379  0.00  0.00    +0.002 C 
ATOM     12  C   UNL     1      36.883 -21.862 -17.579  0.00  0.00    +0.015 C 
ATOM     13  C   UNL     1      37.344 -22.347 -16.334  0.00  0.00    +0.001 C 
ATOM     14  H   UNL     1      31.842 -24.383 -13.107  0.00  0.00    +0.189 HD
ENDROOT
BRANCH  10  17
ATOM     15  S   UNL     1      29.578 -22.323 -16.059  0.00  0.00    -0.075 S 
ATOM     16  N   UNL     1      28.182 -24.382 -15.356  0.00  0.00    -0.407 NA
ATOM     17  C   UNL     1      30.397 -23.614 -15.276  0.00  0.00    +0.141 C 
ATOM     18  C   UNL     1      29.490 -24.616 -14.981  0.00  0.00    +0.103 C 
ATOM     19  C   UNL     1      28.110 -23.204 -15.934  0.00  0.00    +0.135 C 
ATOM     20  C   UNL     1      29.795 -25.898 -14.308  0.00  0.00    +0.063 C 
ATOM     21  C   UNL     1      26.866 -22.608 -16.468  0.00  0.00    +0.074 C 
ENDBRANCH  10  17
BRANCH   9  24
ATOM     22  O   UNL     1      36.497 -19.567 -19.528  0.00  0.00    -0.251 OA
ATOM     23  N   UNL     1      34.861 -20.160 -21.051  0.00  0.00    -0.231 N 
ATOM     24  N   UNL     1      35.084 -21.401 -19.139  0.00  0.00    -0.267 N 
ATOM     25  C   UNL     1      35.576 -20.308 -19.861  0.00  0.00    +0.318 C 
ATOM     26  H   UNL     1      34.130 -20.780 -21.273  0.00  0.00    +0.171 HD
ATOM     27  H   UNL     1      34.336 -21.890 -19.553  0.00  0.00    +0.156 HD
BRANCH  23  29
ATOM     28  N   UNL     1      34.580 -16.696 -23.337  0.00  0.00    +0.387 N 
ATOM     29  N   UNL     1      35.192 -19.132 -21.913  0.00  0.00    -0.209 NA
ATOM     30  C   UNL     1      35.472 -16.693 -22.171  0.00  0.00    -0.058 C 
ATOM     31  C   UNL     1      34.644 -17.989 -24.031  0.00  0.00    -0.058 C 
ATOM     32  C   UNL     1      35.128 -17.844 -21.218  0.00  0.00    +0.069 C 
ATOM     33  C   UNL     1      34.300 -19.138 -23.078  0.00  0.00    +0.069 C 
ATOM     34  C   UNL     1      34.910 -15.601 -24.247  0.00  0.00    -0.101 C 
ATOM     35  H   UNL     1      33.624 -16.556 -23.010  0.00  0.00    -0.080 HD
ENDBRANCH  23  29
ENDBRANCH   9  24
TORSDOF 3
ENDMDL
MODEL 2
REMARK VINA RESULT:     -11.8      2.814      5.604
REMARK  Name = 5288018
REMARK  3 active torsions:
REMARK  status: ('A' for Active; 'I' for Inactive)
REMARK    1  A    between atoms: C_9  and  N_24
REMARK    2  A    between atoms: C_10  and  C_17
REMARK    3  A    between atoms: N_23  and  N_29
REMARK                            x       y       z     vdW  Elec       q    Type
REMARK                         _______ _______ _______ _____ _____    ______ ____
ROOT
ATOM      1  O   UNL     1      35.678 -22.917 -16.346  0.00  0.00    -0.286 OA
ATOM      2  N   UNL     1      34.484 -24.865 -12.514  0.00  0.00    -0.278 N 
ATOM      3  N   UNL     1      33.178 -24.662 -12.848  0.00  0.00    -0.173 NA
ATOM      4  C   UNL     1      33.244 -23.007 -16.060  0.00  0.00    +0.054 C 
ATOM      5  C   UNL     1      34.622 -23.879 -14.432  0.00  0.00    +0.072 A 
ATOM      6  C   UNL     1      32.420 -23.523 -15.021  0.00  0.00    +0.024 C 
ATOM      7  C   UNL     1      33.294 -24.059 -14.021  0.00  0.00    +0.105 A 
ATOM      8  C   UNL     1      34.691 -23.222 -15.708  0.00  0.00    +0.199 C 
ATOM      9  C   UNL     1      32.698 -22.423 -17.168  0.00  0.00    +0.055 C 
ATOM     10  C   UNL     1      35.394 -24.406 -13.445  0.00  0.00    +0.073 A 
ATOM     11  C   UNL     1      31.048 -23.458 -15.088  0.00  0.00    +0.002 C 
ATOM     12  C   UNL     1      31.315 -22.345 -17.258  0.00  0.00    +0.015 C 
ATOM     13  C   UNL     1      30.497 -22.858 -16.225  0.00  0.00    +0.001 C 
ATOM     14  H   UNL     1      34.757 -25.304 -11.676  0.00  0.00    +0.189 HD
ENDROOT
BRANCH  10  17
ATOM     15  S   UNL     1      37.718 -25.597 -14.260  0.00  0.00    -0.075 S 
ATOM     16  N   UNL     1      38.975 -24.168 -12.509  0.00  0.00    -0.407 NA
ATOM     17  C   UNL     1      36.793 -24.518 -13.295  0.00  0.00    +0.141 C 
ATOM     18  C   UNL     1      37.635 -23.848 -12.426  0.00  0.00    +0.103 C 
ATOM     19  C   UNL     1      39.137 -25.081 -13.442  0.00  0.00    +0.135 C 
ATOM     20  C   UNL     1      37.232 -22.831 -11.430  0.00  0.00    +0.063 C 
ATOM     21  C   UNL     1      40.439 -25.672 -13.819  0.00  0.00    +0.074 C 
ENDBRANCH  10  17
BRANCH   9  24
ATOM     22  O   UNL     1      32.167 -20.197 -19.109  0.00  0.00    -0.251 OA
ATOM     23  N   UNL     1      34.265 -20.655 -19.969  0.00  0.00    -0.231 N 
ATOM     24  N   UNL     1      33.502 -21.905 -18.208  0.00  0.00    -0.267 N 
ATOM     25  C   UNL     1      33.202 -20.859 -19.088  0.00  0.00    +0.318 C 
ATOM     26  H   UNL     1      35.074 -21.213 -19.911  0.00  0.00    +0.171 HD
ATOM     27  H   UNL     1      34.381 -22.332 -18.329  0.00  0.00    +0.156 HD
BRANCH  23  29
ATOM     28  N   UNL     1      35.325 -17.843 -22.845  0.00  0.00    +0.387 N 
ATOM     29  N   UNL     1      34.168 -19.662 -20.925  0.00  0.00    -0.209 NA
ATOM     30  C   UNL     1      34.593 -19.041 -23.275  0.00  0.00    -0.058 C 
ATOM     31  C   UNL     1      34.815 -17.365 -21.554  0.00  0.00    -0.058 C 
ATOM     32  C   UNL     1      34.677 -20.143 -22.212  0.00  0.00    +0.069 C 
ATOM     33  C   UNL     1      34.898 -18.466 -20.492  0.00  0.00    +0.069 C 
ATOM     34  C   UNL     1      35.242 -16.793 -23.857  0.00  0.00    -0.101 C 
ATOM     35  H   UNL     1      36.308 -18.092 -22.728  0.00  0.00    -0.080 HD
ENDBRANCH  23  29
ENDBRANCH   9  24
TORSDOF 3
ENDMDL
MODEL 3
REMARK VINA RESULT:     -10.3      2.972      6.138
REMARK  Name = 5288018
REMARK  3 active torsions:
REMARK  status: ('A' for Active; 'I' for Inactive)
REMARK    1  A    between atoms: C_9  and  N_24
REMARK    2  A    between atoms: C_10  and  C_17
REMARK    3  A    between atoms: N_23  and  N_29
REMARK                            x       y       z     vdW  Elec       q    Type
REMARK                         _______ _______ _______ _____ _____    ______ ____
ROOT
ATOM      1  O   UNL     1      34.833 -23.785 -16.213  0.00  0.00    -0.286 OA
ATOM      2  N   UNL     1      35.326 -24.678 -11.869  0.00  0.00    -0.278 N 
ATOM      3  N   UNL     1      33.993 -24.453 -11.698  0.00  0.00    -0.173 NA
ATOM      4  C   UNL     1      32.723 -23.606 -14.974  0.00  0.00    +0.054 C 
ATOM      5  C   UNL     1      34.659 -24.183 -13.864  0.00  0.00    +0.072 A 
ATOM      6  C   UNL     1      32.400 -23.796 -13.602  0.00  0.00    +0.024 C 
ATOM      7  C   UNL     1      33.613 -24.153 -12.931  0.00  0.00    +0.105 A 
ATOM      8  C   UNL     1      34.193 -23.851 -15.183  0.00  0.00    +0.199 C 
ATOM      9  C   UNL     1      31.765 -23.255 -15.882  0.00  0.00    +0.055 C 
ATOM     10  C   UNL     1      35.774 -24.526 -13.166  0.00  0.00    +0.073 A 
ATOM     11  C   UNL     1      31.116 -23.636 -13.134  0.00  0.00    +0.002 C 
ATOM     12  C   UNL     1      30.462 -23.087 -15.435  0.00  0.00    +0.015 C 
ATOM     13  C   UNL     1      30.141 -23.275 -14.071  0.00  0.00    +0.001 C 
ATOM     14  H   UNL     1      35.922 -24.930 -11.128  0.00  0.00    +0.189 HD
ENDROOT
BRANCH  10  17
ATOM     15  S   UNL     1      38.022 -26.080 -13.046  0.00  0.00    -0.075 S 
ATOM     16  N   UNL     1      39.200 -24.361 -14.576  0.00  0.00    -0.407 NA
ATOM     17  C   UNL     1      37.116 -24.713 -13.560  0.00  0.00    +0.141 C 
ATOM     18  C   UNL     1      37.911 -23.917 -14.364  0.00  0.00    +0.103 C 
ATOM     19  C   UNL     1      39.371 -25.493 -13.929  0.00  0.00    +0.135 C 
ATOM     20  C   UNL     1      37.505 -22.648 -15.008  0.00  0.00    +0.063 C 
ATOM     21  C   UNL     1      40.630 -26.270 -13.920  0.00  0.00    +0.074 C 
ENDBRANCH  10  17
BRANCH   9  24
ATOM     22  O   UNL     1      33.778 -21.453 -17.188  0.00  0.00    -0.251 OA
ATOM     23  N   UNL     1      33.014 -22.311 -19.195  0.00  0.00    -0.231 N 
ATOM     24  N   UNL     1      32.070 -23.062 -17.249  0.00  0.00    -0.267 N 
ATOM     25  C   UNL     1      33.025 -22.203 -17.804  0.00  0.00    +0.318 C 
ATOM     26  H   UNL     1      32.390 -22.927 -19.643  0.00  0.00    +0.171 HD
ATOM     27  H   UNL     1      31.547 -23.597 -17.889  0.00  0.00    +0.156 HD
BRANCH  23  29
ATOM     28  N   UNL     1      35.569 -19.222 -20.308  0.00  0.00    +0.387 N 
ATOM     29  N   UNL     1      33.888 -21.540 -19.938  0.00  0.00    -0.209 NA
ATOM     30  C   UNL     1      36.145 -20.549 -20.054  0.00  0.00    -0.058 C 
ATOM     31  C   UNL     1      34.279 -19.346 -20.998  0.00  0.00    -0.058 C 
ATOM     32  C   UNL     1      35.175 -21.420 -19.248  0.00  0.00    +0.069 C 
ATOM     33  C   UNL     1      33.310 -20.217 -20.192  0.00  0.00    +0.069 C 
ATOM     34  C   UNL     1      36.493 -18.393 -21.079  0.00  0.00    -0.101 C 
ATOM     35  H   UNL     1      35.409 -18.764 -19.410  0.00  0.00    -0.080 HD
ENDBRANCH  23  29
ENDBRANCH   9  24
TORSDOF 3
ENDMDL
MODEL 4
REMARK VINA RESULT:      -9.5      9.781     14.833
REMARK  Name = 5288018
REMARK  3 active torsions:
REMARK  status: ('A' for Active; 'I' for Inactive)
REMARK    1  A    between atoms: C_9  and  N_24
REMARK    2  A    between atoms: C_10  and  C_17
REMARK    3  A    between atoms: N_23  and  N_29
REMARK                            x       y       z     vdW  Elec       q    Type
REMARK                         _______ _______ _______ _____ _____    ______ ____
ROOT
ATOM      1  O   UNL     1      33.921  -9.687 -23.797  0.00  0.00    -0.286 OA
ATOM      2  N   UNL     1      31.793 -12.056 -20.673  0.00  0.00    -0.278 N 
ATOM      3  N   UNL     1      31.357 -10.888 -20.121  0.00  0.00    -0.173 NA
ATOM      4  C   UNL     1      32.728  -8.264 -22.194  0.00  0.00    +0.054 C 
ATOM      5  C   UNL     1      32.656 -10.557 -21.969  0.00  0.00    +0.072 A 
ATOM      6  C   UNL     1      31.931  -8.566 -21.055  0.00  0.00    +0.024 C 
ATOM      7  C   UNL     1      31.899  -9.992 -20.932  0.00  0.00    +0.105 A 
ATOM      8  C   UNL     1      33.219  -9.543 -22.817  0.00  0.00    +0.199 C 
ATOM      9  C   UNL     1      32.950  -6.972 -22.577  0.00  0.00    +0.055 C 
ATOM     10  C   UNL     1      32.584 -11.903 -21.794  0.00  0.00    +0.073 A 
ATOM     11  C   UNL     1      31.353  -7.575 -20.296  0.00  0.00    +0.002 C 
ATOM     12  C   UNL     1      32.377  -5.954 -21.827  0.00  0.00    +0.015 C 
ATOM     13  C   UNL     1      31.586  -6.255 -20.695  0.00  0.00    +0.001 C 
ATOM     14  H   UNL     1      31.563 -12.938 -20.301  0.00  0.00    +0.189 HD
ENDROOT
BRANCH  10  17
ATOM     15  S   UNL     1      32.819 -13.201 -24.191  0.00  0.00    -0.075 S 
ATOM     16  N   UNL     1      34.356 -14.921 -23.023  0.00  0.00    -0.407 NA
ATOM     17  C   UNL     1      33.137 -12.982 -22.517  0.00  0.00    +0.141 C 
ATOM     18  C   UNL     1      33.971 -13.993 -22.076  0.00  0.00    +0.103 C 
ATOM     19  C   UNL     1      33.808 -14.604 -24.175  0.00  0.00    +0.135 C 
ATOM     20  C   UNL     1      34.482 -14.165 -20.698  0.00  0.00    +0.063 C 
ATOM     21  C   UNL     1      33.991 -15.368 -25.428  0.00  0.00    +0.074 C 
ENDBRANCH  10  17
BRANCH   9  24
ATOM     22  O   UNL     1      33.275  -4.382 -24.058  0.00  0.00    -0.251 OA
ATOM     23  N   UNL     1      34.739  -5.531 -25.432  0.00  0.00    -0.231 N 
ATOM     24  N   UNL     1      33.740  -6.656 -23.706  0.00  0.00    -0.267 N 
ATOM     25  C   UNL     1      33.853  -5.424 -24.358  0.00  0.00    +0.318 C 
ATOM     26  H   UNL     1      35.177  -6.389 -25.632  0.00  0.00    +0.171 HD
ATOM     27  H   UNL     1      34.275  -7.393 -24.080  0.00  0.00    +0.156 HD
BRANCH  23  29
ATOM     28  N   UNL     1      35.707  -3.157 -28.708  0.00  0.00    +0.387 N 
ATOM     29  N   UNL     1      34.991  -4.418 -26.211  0.00  0.00    -0.209 NA
ATOM     30  C   UNL     1      34.326  -3.131 -28.210  0.00  0.00    -0.058 C 
ATOM     31  C   UNL     1      36.656  -3.227 -27.590  0.00  0.00    -0.058 C 
ATOM     32  C   UNL     1      34.041  -4.351 -27.326  0.00  0.00    +0.069 C 
ATOM     33  C   UNL     1      36.371  -4.445 -26.707  0.00  0.00    +0.069 C 
ATOM     34  C   UNL     1      35.978  -1.993 -29.548  0.00  0.00    -0.101 C 
ATOM     35  H   UNL     1      35.825  -3.993 -29.281  0.00  0.00    -0.080 HD
ENDBRANCH  23  29
ENDBRANCH   9  24
TORSDOF 3
ENDMDL
MODEL 5
REMARK VINA RESULT:      -9.5      9.775     16.054
REMARK  Name = 5288018
REMARK  3 active torsions:
REMARK  status: ('A' for Active; 'I' for Inactive)
REMARK    1  A    between atoms: C_9  and  N_24
REMARK    2  A    between atoms: C_10  and  C_17
REMARK    3  A    between atoms: N_23  and  N_29
REMARK                            x       y       z     vdW  Elec       q    Type
REMARK                         _______ _______ _______ _____ _____    ______ ____
ROOT
ATOM      1  O   UNL     1      33.390  -8.078 -24.006  0.00  0.00    -0.286 OA
ATOM      2  N   UNL     1      32.288  -4.129 -22.247  0.00  0.00    -0.278 N 
ATOM      3  N   UNL     1      31.878  -4.775 -21.119  0.00  0.00    -0.173 NA
ATOM      4  C   UNL     1      32.466  -8.286 -21.744  0.00  0.00    +0.054 C 
ATOM      5  C   UNL     1      32.675  -6.203 -22.710  0.00  0.00    +0.072 A 
ATOM      6  C   UNL     1      31.988  -7.322 -20.813  0.00  0.00    +0.024 C 
ATOM      7  C   UNL     1      32.126  -6.038 -21.431  0.00  0.00    +0.105 A 
ATOM      8  C   UNL     1      32.924  -7.590 -22.997  0.00  0.00    +0.199 C 
ATOM      9  C   UNL     1      32.465  -9.618 -21.442  0.00  0.00    +0.055 C 
ATOM     10  C   UNL     1      32.778  -4.955 -23.238  0.00  0.00    +0.073 A 
ATOM     11  C   UNL     1      31.508  -7.689 -19.577  0.00  0.00    +0.002 C 
ATOM     12  C   UNL     1      31.985 -10.013 -20.201  0.00  0.00    +0.015 C 
ATOM     13  C   UNL     1      31.510  -9.055 -19.277  0.00  0.00    +0.001 C 
ATOM     14  H   UNL     1      32.239  -3.151 -22.347  0.00  0.00    +0.189 HD
ENDROOT
BRANCH  10  17
ATOM     15  S   UNL     1      34.741  -5.046 -25.141  0.00  0.00    -0.075 S 
ATOM     16  N   UNL     1      33.389  -3.319 -26.510  0.00  0.00    -0.407 NA
ATOM     17  C   UNL     1      33.255  -4.491 -24.482  0.00  0.00    +0.141 C 
ATOM     18  C   UNL     1      32.683  -3.580 -25.353  0.00  0.00    +0.103 C 
ATOM     19  C   UNL     1      34.492  -4.035 -26.506  0.00  0.00    +0.135 C 
ATOM     20  C   UNL     1      31.400  -2.872 -25.155  0.00  0.00    +0.063 C 
ATOM     21  C   UNL     1      35.504  -4.021 -27.584  0.00  0.00    +0.074 C 
ENDBRANCH  10  17
BRANCH   9  24
ATOM     22  O   UNL     1      32.307 -12.613 -21.352  0.00  0.00    -0.251 OA
ATOM     23  N   UNL     1      33.427 -12.579 -23.375  0.00  0.00    -0.231 N 
ATOM     24  N   UNL     1      32.936 -10.588 -22.356  0.00  0.00    -0.267 N 
ATOM     25  C   UNL     1      32.834 -11.980 -22.263  0.00  0.00    +0.318 C 
ATOM     26  H   UNL     1      33.838 -12.027 -24.079  0.00  0.00    +0.171 HD
ATOM     27  H   UNL     1      33.393 -10.242 -23.157  0.00  0.00    +0.156 HD
BRANCH  23  29
ATOM     28  N   UNL     1      34.562 -16.445 -24.410  0.00  0.00    +0.387 N 
ATOM     29  N   UNL     1      33.434 -13.957 -23.475  0.00  0.00    -0.209 NA
ATOM     30  C   UNL     1      34.684 -16.033 -23.006  0.00  0.00    -0.058 C 
ATOM     31  C   UNL     1      33.337 -15.893 -25.003  0.00  0.00    -0.058 C 
ATOM     32  C   UNL     1      34.656 -14.506 -22.881  0.00  0.00    +0.069 C 
ATOM     33  C   UNL     1      33.310 -14.366 -24.878  0.00  0.00    +0.069 C 
ATOM     34  C   UNL     1      34.585 -17.901 -24.528  0.00  0.00    -0.101 C 
ATOM     35  H   UNL     1      35.362 -16.075 -24.924  0.00  0.00    -0.080 HD
ENDBRANCH  23  29
ENDBRANCH   9  24
TORSDOF 3
ENDMDL
MODEL 6
REMARK VINA RESULT:      -9.1     11.454     18.785
REMARK  Name = 5288018
REMARK  3 active torsions:
REMARK  status: ('A' for Active; 'I' for Inactive)
REMARK    1  A    between atoms: C_9  and  N_24
REMARK    2  A    between atoms: C_10  and  C_17
REMARK    3  A    between atoms: N_23  and  N_29
REMARK                            x       y       z     vdW  Elec       q    Type
REMARK                         _______ _______ _______ _____ _____    ______ ____
ROOT
ATOM      1  O   UNL     1      34.204  -6.128 -24.511  0.00  0.00    -0.286 OA
ATOM      2  N   UNL     1      33.535  -2.093 -26.294  0.00  0.00    -0.278 N 
ATOM      3  N   UNL     1      32.628  -1.837 -25.310  0.00  0.00    -0.173 NA
ATOM      4  C   UNL     1      32.548  -4.816 -23.265  0.00  0.00    +0.054 C 
ATOM      5  C   UNL     1      33.556  -3.914 -25.132  0.00  0.00    +0.072 A 
ATOM      6  C   UNL     1      32.025  -3.507 -23.455  0.00  0.00    +0.024 C 
ATOM      7  C   UNL     1      32.662  -2.965 -24.617  0.00  0.00    +0.105 A 
ATOM      8  C   UNL     1      33.553  -5.117 -24.344  0.00  0.00    +0.199 C 
ATOM      9  C   UNL     1      32.132  -5.598 -22.225  0.00  0.00    +0.055 C 
ATOM     10  C   UNL     1      34.122  -3.341 -26.226  0.00  0.00    +0.073 A 
ATOM     11  C   UNL     1      31.083  -2.976 -22.604  0.00  0.00    +0.002 C 
ATOM     12  C   UNL     1      31.182  -5.084 -21.353  0.00  0.00    +0.015 C 
ATOM     13  C   UNL     1      30.662  -3.783 -21.542  0.00  0.00    +0.001 C 
ATOM     14  H   UNL     1      33.755  -1.441 -26.998  0.00  0.00    +0.189 HD
ENDROOT
BRANCH  10  17
ATOM     15  S   UNL     1      36.638  -4.336 -26.632  0.00  0.00    -0.075 S 
ATOM     16  N   UNL     1      36.117  -4.415 -29.163  0.00  0.00    -0.407 NA
ATOM     17  C   UNL     1      35.087  -3.805 -27.145  0.00  0.00    +0.141 C 
ATOM     18  C   UNL     1      34.999  -3.922 -28.521  0.00  0.00    +0.103 C 
ATOM     19  C   UNL     1      37.045  -4.667 -28.266  0.00  0.00    +0.135 C 
ATOM     20  C   UNL     1      33.827  -3.571 -29.353  0.00  0.00    +0.063 C 
ATOM     21  C   UNL     1      38.386  -5.208 -28.577  0.00  0.00    +0.074 C 
ENDBRANCH  10  17
BRANCH   9  24
ATOM     22  O   UNL     1      31.501  -8.171 -23.633  0.00  0.00    -0.251 OA
ATOM     23  N   UNL     1      33.039  -9.148 -22.209  0.00  0.00    -0.231 N 
ATOM     24  N   UNL     1      32.642  -6.900 -22.023  0.00  0.00    -0.267 N 
ATOM     25  C   UNL     1      32.310  -8.071 -22.714  0.00  0.00    +0.318 C 
ATOM     26  H   UNL     1      33.676  -9.016 -21.469  0.00  0.00    +0.171 HD
ATOM     27  H   UNL     1      33.313  -6.997 -21.309  0.00  0.00    +0.156 HD
BRANCH  23  29
ATOM     28  N   UNL     1      33.641 -13.151 -23.167  0.00  0.00    +0.387 N 
ATOM     29  N   UNL     1      32.856 -10.403 -22.757  0.00  0.00    -0.209 NA
ATOM     30  C   UNL     1      32.512 -12.803 -22.295  0.00  0.00    -0.058 C 
ATOM     31  C   UNL     1      33.803 -12.146 -24.226  0.00  0.00    -0.058 C 
ATOM     32  C   UNL     1      32.694 -11.403 -21.698  0.00  0.00    +0.069 C 
ATOM     33  C   UNL     1      33.985 -10.748 -23.628  0.00  0.00    +0.069 C 
ATOM     34  C   UNL     1      33.465 -14.484 -23.738  0.00  0.00    -0.101 C 
ATOM     35  H   UNL     1      34.491 -13.160 -22.602  0.00  0.00    -0.080 HD
ENDBRANCH  23  29
ENDBRANCH   9  24
TORSDOF 3
ENDMDL
MODEL 7
REMARK VINA RESULT:      -8.9      1.314      1.858
REMARK  Name = 5288018
REMARK  3 active torsions:
REMARK  status: ('A' for Active; 'I' for Inactive)
REMARK    1  A    between atoms: C_9  and  N_24
REMARK    2  A    between atoms: C_10  and  C_17
REMARK    3  A    between atoms: N_23  and  N_29
REMARK                            x       y       z     vdW  Elec       q    Type
REMARK                         _______ _______ _______ _____ _____    ______ ____
ROOT
ATOM      1  O   UNL     1      32.902 -23.033 -17.039  0.00  0.00    -0.286 OA
ATOM      2  N   UNL     1      31.485 -23.748 -12.869  0.00  0.00    -0.278 N 
ATOM      3  N   UNL     1      32.780 -23.690 -12.447  0.00  0.00    -0.173 NA
ATOM      4  C   UNL     1      34.744 -23.093 -15.422  0.00  0.00    +0.054 C 
ATOM      5  C   UNL     1      32.575 -23.392 -14.701  0.00  0.00    +0.072 A 
ATOM      6  C   UNL     1      34.775 -23.289 -14.013  0.00  0.00    +0.024 C 
ATOM      7  C   UNL     1      33.421 -23.472 -13.586  0.00  0.00    +0.105 A 
ATOM      8  C   UNL     1      33.321 -23.155 -15.907  0.00  0.00    +0.199 C 
ATOM      9  C   UNL     1      35.894 -22.889 -16.131  0.00  0.00    +0.055 C 
ATOM     10  C   UNL     1      31.314 -23.573 -14.228  0.00  0.00    +0.073 A 
ATOM     11  C   UNL     1      35.958 -23.279 -13.309  0.00  0.00    +0.002 C 
ATOM     12  C   UNL     1      37.100 -22.875 -15.442  0.00  0.00    +0.015 C 
ATOM     13  C   UNL     1      37.130 -23.070 -14.043  0.00  0.00    +0.001 C 
ATOM     14  H   UNL     1      30.732 -23.903 -12.255  0.00  0.00    +0.189 HD
ENDROOT
BRANCH  10  17
ATOM     15  S   UNL     1      29.588 -22.367 -15.975  0.00  0.00    -0.075 S 
ATOM     16  N   UNL     1      27.909 -24.279 -15.518  0.00  0.00    -0.407 NA
ATOM     17  C   UNL     1      30.058 -23.596 -14.870  0.00  0.00    +0.141 C 
ATOM     18  C   UNL     1      29.036 -24.522 -14.759  0.00  0.00    +0.103 C 
ATOM     19  C   UNL     1      28.088 -23.169 -16.200  0.00  0.00    +0.135 C 
ATOM     20  C   UNL     1      29.045 -25.733 -13.909  0.00  0.00    +0.063 C 
ATOM     21  C   UNL     1      27.093 -22.586 -17.127  0.00  0.00    +0.074 C 
ENDBRANCH  10  17
BRANCH   9  24
ATOM     22  O   UNL     1      35.938 -20.357 -17.740  0.00  0.00    -0.251 OA
ATOM     23  N   UNL     1      35.878 -21.724 -19.605  0.00  0.00    -0.231 N 
ATOM     24  N   UNL     1      35.880 -22.694 -17.530  0.00  0.00    -0.267 N 
ATOM     25  C   UNL     1      35.902 -21.483 -18.231  0.00  0.00    +0.318 C 
ATOM     26  H   UNL     1      35.848 -22.646 -19.948  0.00  0.00    +0.171 HD
ATOM     27  H   UNL     1      35.850 -23.510 -18.081  0.00  0.00    +0.156 HD
BRANCH  23  29
ATOM     28  N   UNL     1      35.567 -17.850 -21.088  0.00  0.00    +0.387 N 
ATOM     29  N   UNL     1      35.893 -20.653 -20.478  0.00  0.00    -0.209 NA
ATOM     30  C   UNL     1      36.899 -18.462 -21.004  0.00  0.00    -0.058 C 
ATOM     31  C   UNL     1      34.571 -18.844 -21.511  0.00  0.00    -0.058 C 
ATOM     32  C   UNL     1      36.888 -19.664 -20.054  0.00  0.00    +0.069 C 
ATOM     33  C   UNL     1      34.561 -20.045 -20.561  0.00  0.00    +0.069 C 
ATOM     34  C   UNL     1      35.576 -16.706 -21.997  0.00  0.00    -0.101 C 
ATOM     35  H   UNL     1      35.309 -17.514 -20.160  0.00  0.00    -0.080 HD
ENDBRANCH  23  29
ENDBRANCH   9  24
TORSDOF 3
ENDMDL
MODEL 8
REMARK VINA RESULT:      -8.9      1.622      2.107
REMARK  Name = 5288018
REMARK  3 active torsions:
REMARK  status: ('A' for Active; 'I' for Inactive)
REMARK    1  A    between atoms: C_9  and  N_24
REMARK    2  A    between atoms: C_10  and  C_17
REMARK    3  A    between atoms: N_23  and  N_29
REMARK                            x       y       z     vdW  Elec       q    Type
REMARK                         _______ _______ _______ _____ _____    ______ ____
ROOT
ATOM      1  O   UNL     1      34.014 -21.844 -16.394  0.00  0.00    -0.286 OA
ATOM      2  N   UNL     1      33.175 -25.141 -13.507  0.00  0.00    -0.278 N 
ATOM      3  N   UNL     1      34.517 -25.350 -13.395  0.00  0.00    -0.173 NA
ATOM      4  C   UNL     1      36.062 -22.915 -15.575  0.00  0.00    +0.054 C 
ATOM      5  C   UNL     1      34.008 -23.652 -14.833  0.00  0.00    +0.072 A 
ATOM      6  C   UNL     1      36.285 -23.985 -14.664  0.00  0.00    +0.024 C 
ATOM      7  C   UNL     1      34.999 -24.428 -14.216  0.00  0.00    +0.105 A 
ATOM      8  C   UNL     1      34.584 -22.670 -15.710  0.00  0.00    +0.199 C 
ATOM      9  C   UNL     1      37.107 -22.276 -16.180  0.00  0.00    +0.055 C 
ATOM     10  C   UNL     1      32.821 -24.121 -14.368  0.00  0.00    +0.073 A 
ATOM     11  C   UNL     1      37.554 -24.417 -14.354  0.00  0.00    +0.002 C 
ATOM     12  C   UNL     1      38.397 -22.694 -15.884  0.00  0.00    +0.015 C 
ATOM     13  C   UNL     1      38.618 -23.757 -14.979  0.00  0.00    +0.001 C 
ATOM     14  H   UNL     1      32.511 -25.674 -13.013  0.00  0.00    +0.189 HD
ENDROOT
BRANCH  10  17
ATOM     15  S   UNL     1      30.960 -23.318 -16.206  0.00  0.00    -0.075 S 
ATOM     16  N   UNL     1      29.219 -23.239 -14.297  0.00  0.00    -0.407 NA
ATOM     17  C   UNL     1      31.486 -23.741 -14.626  0.00  0.00    +0.141 C 
ATOM     18  C   UNL     1      30.421 -23.639 -13.749  0.00  0.00    +0.103 C 
ATOM     19  C   UNL     1      29.384 -23.041 -15.586  0.00  0.00    +0.135 C 
ATOM     20  C   UNL     1      30.457 -23.918 -12.297  0.00  0.00    +0.063 C 
ATOM     21  C   UNL     1      28.315 -22.604 -16.510  0.00  0.00    +0.074 C 
ENDBRANCH  10  17
BRANCH   9  24
ATOM     22  O   UNL     1      36.189 -22.308 -19.037  0.00  0.00    -0.251 OA
ATOM     23  N   UNL     1      36.397 -20.006 -18.967  0.00  0.00    -0.231 N 
ATOM     24  N   UNL     1      36.903 -21.212 -17.087  0.00  0.00    -0.267 N 
ATOM     25  C   UNL     1      36.471 -21.286 -18.416  0.00  0.00    +0.318 C 
ATOM     26  H   UNL     1      36.635 -19.217 -18.428  0.00  0.00    +0.171 HD
ATOM     27  H   UNL     1      37.087 -20.308 -16.743  0.00  0.00    +0.156 HD
BRANCH  23  29
ATOM     28  N   UNL     1      34.721 -18.379 -22.409  0.00  0.00    +0.387 N 
ATOM     29  N   UNL     1      35.990 -19.859 -20.279  0.00  0.00    -0.209 NA
ATOM     30  C   UNL     1      36.182 -18.512 -22.339  0.00  0.00    -0.058 C 
ATOM     31  C   UNL     1      34.068 -19.543 -21.796  0.00  0.00    -0.058 C 
ATOM     32  C   UNL     1      36.643 -18.697 -20.889  0.00  0.00    +0.069 C 
ATOM     33  C   UNL     1      34.530 -19.728 -20.347  0.00  0.00    +0.069 C 
ATOM     34  C   UNL     1      34.281 -18.206 -23.792  0.00  0.00    -0.101 C 
ATOM     35  H   UNL     1      34.448 -17.547 -21.886  0.00  0.00    -0.080 HD
ENDBRANCH  23  29
ENDBRANCH   9  24
TORSDOF 3
ENDMDL
