MODEL 1
REMARK VINA RESULT:     -11.0      0.000      0.000
REMARK  Name = 46213929
REMARK  4 active torsions:
REMARK  status: ('A' for Active; 'I' for Inactive)
REMARK    1  A    between atoms: C_7  and  C_20
REMARK    2  A    between atoms: C_9  and  C_28
REMARK    3  A    between atoms: C_20  and  N_22
REMARK    4  A    between atoms: C_28  and  C_31
REMARK                            x       y       z     vdW  Elec       q    Type
REMARK                         _______ _______ _______ _____ _____    ______ ____
ROOT
ATOM      1  N   UNL     1      34.144 -23.449 -14.414  0.00  0.00    -0.179 N 
ATOM      2  N   UNL     1      33.274 -24.537 -12.677  0.00  0.00    -0.393 NA
ATOM      3  N   UNL     1      34.272 -22.882 -15.639  0.00  0.00    -0.160 NA
ATOM      4  N   UNL     1      33.236 -22.454 -17.677  0.00  0.00    -0.281 N 
ATOM      5  N   UNL     1      35.477 -21.514 -17.713  0.00  0.00    -0.166 NA
ATOM      6  N   UNL     1      36.130 -20.841 -18.675  0.00  0.00    -0.239 N 
ATOM      7  C   UNL     1      31.899 -24.242 -14.738  0.00  0.00    +0.005 C 
ATOM      8  C   UNL     1      33.047 -24.116 -13.907  0.00  0.00    +0.196 C 
ATOM      9  C   UNL     1      35.109 -23.458 -13.441  0.00  0.00    +0.151 C 
ATOM     10  C   UNL     1      31.968 -23.698 -15.966  0.00  0.00    +0.034 C 
ATOM     11  C   UNL     1      34.549 -24.133 -12.383  0.00  0.00    +0.109 C 
ATOM     12  C   UNL     1      33.218 -22.993 -16.410  0.00  0.00    +0.151 C 
ATOM     13  C   UNL     1      35.144 -24.437 -11.073  0.00  0.00    +0.063 C 
ATOM     14  C   UNL     1      34.290 -21.768 -18.272  0.00  0.00    +0.152 C 
ATOM     15  C   UNL     1      34.186 -21.260 -19.580  0.00  0.00    +0.048 C 
ATOM     16  C   UNL     1      35.401 -20.662 -19.814  0.00  0.00    +0.046 C 
ATOM     17  C   UNL     1      35.937 -19.948 -20.984  0.00  0.00    +0.049 C 
ATOM     18  H   UNL     1      32.421 -22.565 -18.216  0.00  0.00    +0.155 HD
ATOM     19  H   UNL     1      37.049 -20.508 -18.568  0.00  0.00    +0.174 HD
ENDROOT
BRANCH   7  20
ATOM     20  C   UNL     1      30.641 -24.946 -14.301  0.00  0.00    -0.046 C 
BRANCH  20  22
ATOM     21  O   UNL     1      28.096 -22.161 -16.141  0.00  0.00    -0.358 OA
ATOM     22  N   UNL     1      29.446 -24.190 -14.670  0.00  0.00    +0.393 N 
ATOM     23  C   UNL     1      29.604 -22.767 -14.341  0.00  0.00    -0.044 C 
ATOM     24  C   UNL     1      29.151 -24.345 -16.101  0.00  0.00    -0.044 C 
ATOM     25  C   UNL     1      28.350 -21.999 -14.745  0.00  0.00    +0.119 C 
ATOM     26  C   UNL     1      27.908 -23.539 -16.465  0.00  0.00    +0.119 C 
ATOM     27  H   UNL     1      28.662 -24.564 -14.134  0.00  0.00    -0.079 HD
ENDBRANCH  20  22
ENDBRANCH   7  20
BRANCH   9  28
ATOM     28  C   UNL     1      36.435 -22.837 -13.614  0.00  0.00    +0.057 C 
BRANCH  28  31
ATOM     29 CL   UNL     1      41.025 -26.749 -13.767  0.00  0.00    -0.082 Cl
ATOM     30  F   UNL     1      38.262 -23.015 -15.785  0.00  0.00    -0.204 F 
ATOM     31  C   UNL     1      37.594 -23.824 -13.655  0.00  0.00    +0.007 C 
ATOM     32  C   UNL     1      38.451 -23.852 -14.756  0.00  0.00    +0.137 C 
ATOM     33  C   UNL     1      37.800 -24.699 -12.588  0.00  0.00    -0.001 C 
ATOM     34  C   UNL     1      39.512 -24.758 -14.790  0.00  0.00    +0.041 C 
ATOM     35  C   UNL     1      38.860 -25.604 -12.623  0.00  0.00    +0.011 C 
ATOM     36  C   UNL     1      39.717 -25.633 -13.724  0.00  0.00    +0.060 C 
ENDBRANCH  28  31
ENDBRANCH   9  28
TORSDOF 4
ENDMDL
MODEL 2
REMARK VINA RESULT:     -11.0      2.841      6.192
REMARK  Name = 46213929
REMARK  4 active torsions:
REMARK  status: ('A' for Active; 'I' for Inactive)
REMARK    1  A    between atoms: C_7  and  C_20
REMARK    2  A    between atoms: C_9  and  C_28
REMARK    3  A    between atoms: C_20  and  N_22
REMARK    4  A    between atoms: C_28  and  C_31
REMARK                            x       y       z     vdW  Elec       q    Type
REMARK                         _______ _______ _______ _____ _____    ______ ____
ROOT
ATOM      1  N   UNL     1      34.019 -22.969 -16.445  0.00  0.00    -0.179 N 
ATOM      2  N   UNL     1      31.983 -22.261 -17.005  0.00  0.00    -0.393 NA
ATOM      3  N   UNL     1      35.039 -23.505 -15.731  0.00  0.00    -0.160 NA
ATOM      4  N   UNL     1      35.668 -24.490 -13.720  0.00  0.00    -0.281 N 
ATOM      5  N   UNL     1      37.611 -24.337 -15.172  0.00  0.00    -0.166 NA
ATOM      6  N   UNL     1      38.885 -24.717 -14.974  0.00  0.00    -0.239 N 
ATOM      7  C   UNL     1      32.339 -23.279 -14.755  0.00  0.00    +0.005 C 
ATOM      8  C   UNL     1      32.703 -22.824 -16.053  0.00  0.00    +0.196 C 
ATOM      9  C   UNL     1      34.120 -22.464 -17.715  0.00  0.00    +0.151 C 
ATOM     10  C   UNL     1      33.310 -23.821 -14.000  0.00  0.00    +0.034 C 
ATOM     11  C   UNL     1      32.855 -22.036 -18.036  0.00  0.00    +0.109 C 
ATOM     12  C   UNL     1      34.711 -23.927 -14.534  0.00  0.00    +0.151 C 
ATOM     13  C   UNL     1      32.389 -21.408 -19.283  0.00  0.00    +0.063 C 
ATOM     14  C   UNL     1      37.012 -24.676 -14.027  0.00  0.00    +0.152 C 
ATOM     15  C   UNL     1      37.897 -25.268 -13.106  0.00  0.00    +0.048 C 
ATOM     16  C   UNL     1      39.109 -25.280 -13.752  0.00  0.00    +0.046 C 
ATOM     17  C   UNL     1      40.438 -25.762 -13.343  0.00  0.00    +0.049 C 
ATOM     18  H   UNL     1      35.372 -24.790 -12.831  0.00  0.00    +0.155 HD
ATOM     19  H   UNL     1      39.591 -24.599 -15.649  0.00  0.00    +0.174 HD
ENDROOT
BRANCH   7  20
ATOM     20  C   UNL     1      30.938 -23.177 -14.211  0.00  0.00    -0.046 C 
BRANCH  20  22
ATOM     21  O   UNL     1      27.291 -23.639 -16.237  0.00  0.00    -0.358 OA
ATOM     22  N   UNL     1      29.941 -23.238 -15.278  0.00  0.00    +0.393 N 
ATOM     23  C   UNL     1      29.350 -24.580 -15.366  0.00  0.00    -0.044 C 
ATOM     24  C   UNL     1      28.887 -22.237 -15.064  0.00  0.00    -0.044 C 
ATOM     25  C   UNL     1      28.306 -24.614 -16.478  0.00  0.00    +0.119 C 
ATOM     26  C   UNL     1      27.853 -22.326 -16.182  0.00  0.00    +0.119 C 
ATOM     27  H   UNL     1      30.413 -23.030 -16.158  0.00  0.00    -0.079 HD
ENDBRANCH  20  22
ENDBRANCH   7  20
BRANCH   9  28
ATOM     28  C   UNL     1      35.383 -22.443 -18.477  0.00  0.00    +0.057 C 
BRANCH  28  31
ATOM     29 CL   UNL     1      36.169 -17.524 -21.879  0.00  0.00    -0.082 Cl
ATOM     30  F   UNL     1      37.365 -20.476 -17.942  0.00  0.00    -0.204 F 
ATOM     31  C   UNL     1      35.583 -21.201 -19.333  0.00  0.00    +0.007 C 
ATOM     32  C   UNL     1      36.578 -20.278 -19.008  0.00  0.00    +0.137 C 
ATOM     33  C   UNL     1      34.770 -20.986 -20.447  0.00  0.00    -0.001 C 
ATOM     34  C   UNL     1      36.759 -19.141 -19.796  0.00  0.00    +0.041 C 
ATOM     35  C   UNL     1      34.950 -19.849 -21.234  0.00  0.00    +0.011 C 
ATOM     36  C   UNL     1      35.946 -18.926 -20.908  0.00  0.00    +0.060 C 
ENDBRANCH  28  31
ENDBRANCH   9  28
TORSDOF 4
ENDMDL
MODEL 3
REMARK VINA RESULT:     -10.7      3.858      7.868
REMARK  Name = 46213929
REMARK  4 active torsions:
REMARK  status: ('A' for Active; 'I' for Inactive)
REMARK    1  A    between atoms: C_7  and  C_20
REMARK    2  A    between atoms: C_9  and  C_28
REMARK    3  A    between atoms: C_20  and  N_22
REMARK    4  A    between atoms: C_28  and  C_31
REMARK                            x       y       z     vdW  Elec       q    Type
REMARK                         _______ _______ _______ _____ _____    ______ ____
ROOT
ATOM      1  N   UNL     1      34.232 -22.505 -16.642  0.00  0.00    -0.179 N 
ATOM      2  N   UNL     1      36.455 -22.594 -16.539  0.00  0.00    -0.393 NA
ATOM      3  N   UNL     1      32.927 -22.580 -16.280  0.00  0.00    -0.160 NA
ATOM      4  N   UNL     1      31.432 -23.055 -14.564  0.00  0.00    -0.281 N 
ATOM      5  N   UNL     1      30.185 -22.427 -16.552  0.00  0.00    -0.166 NA
ATOM      6  N   UNL     1      28.861 -22.330 -16.762  0.00  0.00    -0.239 N 
ATOM      7  C   UNL     1      35.121 -23.170 -14.510  0.00  0.00    +0.005 C 
ATOM      8  C   UNL     1      35.338 -22.770 -15.859  0.00  0.00    +0.196 C 
ATOM      9  C   UNL     1      34.692 -22.145 -17.882  0.00  0.00    +0.151 C 
ATOM     10  C   UNL     1      33.846 -23.261 -14.095  0.00  0.00    +0.034 C 
ATOM     11  C   UNL     1      36.061 -22.207 -17.792  0.00  0.00    +0.109 C 
ATOM     12  C   UNL     1      32.720 -22.947 -15.039  0.00  0.00    +0.151 C 
ATOM     13  C   UNL     1      37.062 -21.921 -18.833  0.00  0.00    +0.063 C 
ATOM     14  C   UNL     1      30.262 -22.811 -15.275  0.00  0.00    +0.152 C 
ATOM     15  C   UNL     1      28.997 -22.957 -14.674  0.00  0.00    +0.048 C 
ATOM     16  C   UNL     1      28.106 -22.636 -15.668  0.00  0.00    +0.046 C 
ATOM     17  C   UNL     1      26.635 -22.589 -15.692  0.00  0.00    +0.049 C 
ATOM     18  H   UNL     1      31.330 -23.335 -13.626  0.00  0.00    +0.155 HD
ATOM     19  H   UNL     1      28.472 -22.062 -17.625  0.00  0.00    +0.174 HD
ENDROOT
BRANCH   7  20
ATOM     20  C   UNL     1      36.242 -23.486 -13.556  0.00  0.00    -0.046 C 
BRANCH  20  22
ATOM     21  O   UNL     1      38.433 -27.050 -13.901  0.00  0.00    -0.358 OA
ATOM     22  N   UNL     1      37.117 -24.533 -14.082  0.00  0.00    +0.393 N 
ATOM     23  C   UNL     1      38.280 -24.731 -13.207  0.00  0.00    -0.044 C 
ATOM     24  C   UNL     1      36.383 -25.797 -14.238  0.00  0.00    -0.044 C 
ATOM     25  C   UNL     1      39.170 -25.834 -13.771  0.00  0.00    +0.119 C 
ATOM     26  C   UNL     1      37.317 -26.876 -14.776  0.00  0.00    +0.119 C 
ATOM     27  H   UNL     1      37.446 -24.233 -15.000  0.00  0.00    -0.079 HD
ENDBRANCH  20  22
ENDBRANCH   7  20
BRANCH   9  28
ATOM     28  C   UNL     1      33.800 -21.785 -19.000  0.00  0.00    +0.057 C 
BRANCH  28  31
ATOM     29 CL   UNL     1      35.755 -17.175 -22.363  0.00  0.00    -0.082 Cl
ATOM     30  F   UNL     1      32.090 -20.218 -20.644  0.00  0.00    -0.204 F 
ATOM     31  C   UNL     1      34.291 -20.622 -19.850  0.00  0.00    +0.007 C 
ATOM     32  C   UNL     1      33.391 -19.897 -20.633  0.00  0.00    +0.137 C 
ATOM     33  C   UNL     1      35.643 -20.279 -19.844  0.00  0.00    -0.001 C 
ATOM     34  C   UNL     1      33.845 -18.831 -21.410  0.00  0.00    +0.041 C 
ATOM     35  C   UNL     1      36.096 -19.213 -20.621  0.00  0.00    +0.011 C 
ATOM     36  C   UNL     1      35.196 -18.489 -21.404  0.00  0.00    +0.060 C 
ENDBRANCH  28  31
ENDBRANCH   9  28
TORSDOF 4
ENDMDL
MODEL 4
REMARK VINA RESULT:      -9.0      4.078      8.664
REMARK  Name = 46213929
REMARK  4 active torsions:
REMARK  status: ('A' for Active; 'I' for Inactive)
REMARK    1  A    between atoms: C_7  and  C_20
REMARK    2  A    between atoms: C_9  and  C_28
REMARK    3  A    between atoms: C_20  and  N_22
REMARK    4  A    between atoms: C_28  and  C_31
REMARK                            x       y       z     vdW  Elec       q    Type
REMARK                         _______ _______ _______ _____ _____    ______ ____
ROOT
ATOM      1  N   UNL     1      35.123 -21.577 -17.961  0.00  0.00    -0.179 N 
ATOM      2  N   UNL     1      37.282 -21.174 -18.327  0.00  0.00    -0.393 NA
ATOM      3  N   UNL     1      33.982 -22.032 -17.386  0.00  0.00    -0.160 NA
ATOM      4  N   UNL     1      33.068 -23.231 -15.616  0.00  0.00    -0.281 N 
ATOM      5  N   UNL     1      31.274 -22.454 -17.059  0.00  0.00    -0.166 NA
ATOM      6  N   UNL     1      29.943 -22.617 -16.968  0.00  0.00    -0.239 N 
ATOM      7  C   UNL     1      36.617 -22.505 -16.323  0.00  0.00    +0.005 C 
ATOM      8  C   UNL     1      36.418 -21.758 -17.519  0.00  0.00    +0.196 C 
ATOM      9  C   UNL     1      35.189 -20.837 -19.113  0.00  0.00    +0.151 C 
ATOM     10  C   UNL     1      35.521 -22.982 -15.709  0.00  0.00    +0.034 C 
ATOM     11  C   UNL     1      36.527 -20.603 -19.316  0.00  0.00    +0.109 C 
ATOM     12  C   UNL     1      34.158 -22.720 -16.285  0.00  0.00    +0.151 C 
ATOM     13  C   UNL     1      37.172 -19.856 -20.408  0.00  0.00    +0.063 C 
ATOM     14  C   UNL     1      31.733 -23.101 -15.984  0.00  0.00    +0.152 C 
ATOM     15  C   UNL     1      30.703 -23.672 -15.212  0.00  0.00    +0.048 C 
ATOM     16  C   UNL     1      29.549 -23.338 -15.879  0.00  0.00    +0.046 C 
ATOM     17  C   UNL     1      28.133 -23.626 -15.600  0.00  0.00    +0.049 C 
ATOM     18  H   UNL     1      33.253 -23.741 -14.795  0.00  0.00    +0.155 HD
ATOM     19  H   UNL     1      29.311 -22.248 -17.625  0.00  0.00    +0.174 HD
ENDROOT
BRANCH   7  20
ATOM     20  C   UNL     1      37.978 -22.773 -15.739  0.00  0.00    -0.046 C 
BRANCH  20  22
ATOM     21  O   UNL     1      38.911 -25.458 -12.651  0.00  0.00    -0.358 OA
ATOM     22  N   UNL     1      37.971 -23.952 -14.876  0.00  0.00    +0.393 N 
ATOM     23  C   UNL     1      39.277 -24.625 -14.899  0.00  0.00    -0.044 C 
ATOM     24  C   UNL     1      37.617 -23.588 -13.497  0.00  0.00    -0.044 C 
ATOM     25  C   UNL     1      39.247 -25.845 -13.983  0.00  0.00    +0.119 C 
ATOM     26  C   UNL     1      37.627 -24.832 -12.613  0.00  0.00    +0.119 C 
ATOM     27  H   UNL     1      37.265 -24.596 -15.233  0.00  0.00    -0.079 HD
ENDBRANCH  20  22
ENDBRANCH   7  20
BRANCH   9  28
ATOM     28  C   UNL     1      33.997 -20.437 -19.885  0.00  0.00    +0.057 C 
BRANCH  28  31
ATOM     29 CL   UNL     1      35.128 -16.666 -24.456  0.00  0.00    -0.082 Cl
ATOM     30  F   UNL     1      34.750 -17.721 -19.517  0.00  0.00    -0.204 F 
ATOM     31  C   UNL     1      34.282 -19.484 -21.037  0.00  0.00    +0.007 C 
ATOM     32  C   UNL     1      34.648 -18.162 -20.778  0.00  0.00    +0.137 C 
ATOM     33  C   UNL     1      34.180 -19.934 -22.353  0.00  0.00    -0.001 C 
ATOM     34  C   UNL     1      34.909 -17.291 -21.836  0.00  0.00    +0.041 C 
ATOM     35  C   UNL     1      34.441 -19.063 -23.411  0.00  0.00    +0.011 C 
ATOM     36  C   UNL     1      34.806 -17.741 -23.152  0.00  0.00    +0.060 C 
ENDBRANCH  28  31
ENDBRANCH   9  28
TORSDOF 4
ENDMDL
MODEL 5
REMARK VINA RESULT:      -8.9      2.514      6.209
REMARK  Name = 46213929
REMARK  4 active torsions:
REMARK  status: ('A' for Active; 'I' for Inactive)
REMARK    1  A    between atoms: C_7  and  C_20
REMARK    2  A    between atoms: C_9  and  C_28
REMARK    3  A    between atoms: C_20  and  N_22
REMARK    4  A    between atoms: C_28  and  C_31
REMARK                            x       y       z     vdW  Elec       q    Type
REMARK                         _______ _______ _______ _____ _____    ______ ____
ROOT
ATOM      1  N   UNL     1      34.785 -22.544 -16.433  0.00  0.00    -0.179 N 
ATOM      2  N   UNL     1      36.394 -21.596 -17.644  0.00  0.00    -0.393 NA
ATOM      3  N   UNL     1      33.577 -23.043 -16.070  0.00  0.00    -0.160 NA
ATOM      4  N   UNL     1      31.381 -23.432 -16.730  0.00  0.00    -0.281 N 
ATOM      5  N   UNL     1      31.681 -24.234 -14.456  0.00  0.00    -0.166 NA
ATOM      6  N   UNL     1      30.814 -24.819 -13.611  0.00  0.00    -0.239 N 
ATOM      7  C   UNL     1      34.124 -21.871 -18.643  0.00  0.00    +0.005 C 
ATOM      8  C   UNL     1      35.129 -21.969 -17.640  0.00  0.00    +0.196 C 
ATOM      9  C   UNL     1      35.904 -22.525 -15.642  0.00  0.00    +0.151 C 
ATOM     10  C   UNL     1      32.905 -22.350 -18.340  0.00  0.00    +0.034 C 
ATOM     11  C   UNL     1      36.879 -21.937 -16.410  0.00  0.00    +0.109 C 
ATOM     12  C   UNL     1      32.647 -22.956 -16.990  0.00  0.00    +0.151 C 
ATOM     13  C   UNL     1      38.281 -21.661 -16.057  0.00  0.00    +0.063 C 
ATOM     14  C   UNL     1      30.943 -24.024 -15.549  0.00  0.00    +0.152 C 
ATOM     15  C   UNL     1      29.617 -24.473 -15.405  0.00  0.00    +0.048 C 
ATOM     16  C   UNL     1      29.565 -24.986 -14.132  0.00  0.00    +0.046 C 
ATOM     17  C   UNL     1      28.473 -25.609 -13.366  0.00  0.00    +0.049 C 
ATOM     18  H   UNL     1      30.719 -23.343 -17.452  0.00  0.00    +0.155 HD
ATOM     19  H   UNL     1      31.059 -25.102 -12.702  0.00  0.00    +0.174 HD
ENDROOT
BRANCH   7  20
ATOM     20  C   UNL     1      34.374 -21.266 -19.999  0.00  0.00    -0.046 C 
BRANCH  20  22
ATOM     21  O   UNL     1      36.605 -17.863 -21.029  0.00  0.00    -0.358 OA
ATOM     22  N   UNL     1      35.121 -20.013 -19.900  0.00  0.00    +0.393 N 
ATOM     23  C   UNL     1      36.505 -20.192 -20.359  0.00  0.00    -0.044 C 
ATOM     24  C   UNL     1      34.465 -18.952 -20.676  0.00  0.00    -0.044 C 
ATOM     25  C   UNL     1      37.259 -18.871 -20.256  0.00  0.00    +0.119 C 
ATOM     26  C   UNL     1      35.268 -17.659 -20.568  0.00  0.00    +0.119 C 
ATOM     27  H   UNL     1      35.136 -19.736 -18.918  0.00  0.00    -0.079 HD
ENDBRANCH  20  22
ENDBRANCH   7  20
BRANCH   9  28
ATOM     28  C   UNL     1      35.929 -23.057 -14.266  0.00  0.00    +0.057 C 
BRANCH  28  31
ATOM     29 CL   UNL     1      40.644 -26.620 -13.055  0.00  0.00    -0.082 Cl
ATOM     30  F   UNL     1      37.684 -22.630 -12.072  0.00  0.00    -0.204 F 
ATOM     31  C   UNL     1      37.120 -23.954 -13.959  0.00  0.00    +0.007 C 
ATOM     32  C   UNL     1      37.938 -23.681 -12.862  0.00  0.00    +0.137 C 
ATOM     33  C   UNL     1      37.392 -25.053 -14.775  0.00  0.00    -0.001 C 
ATOM     34  C   UNL     1      39.028 -24.506 -12.583  0.00  0.00    +0.041 C 
ATOM     35  C   UNL     1      38.482 -25.877 -14.496  0.00  0.00    +0.011 C 
ATOM     36  C   UNL     1      39.300 -25.604 -13.399  0.00  0.00    +0.060 C 
ENDBRANCH  28  31
ENDBRANCH   9  28
TORSDOF 4
ENDMDL
MODEL 6
REMARK VINA RESULT:      -8.7      1.193      1.490
REMARK  Name = 46213929
REMARK  4 active torsions:
REMARK  status: ('A' for Active; 'I' for Inactive)
REMARK    1  A    between atoms: C_7  and  C_20
REMARK    2  A    between atoms: C_9  and  C_28
REMARK    3  A    between atoms: C_20  and  N_22
REMARK    4  A    between atoms: C_28  and  C_31
REMARK                            x       y       z     vdW  Elec       q    Type
REMARK                         _______ _______ _______ _____ _____    ______ ____
ROOT
ATOM      1  N   UNL     1      34.174 -23.247 -15.109  0.00  0.00    -0.179 N 
ATOM      2  N   UNL     1      32.956 -24.476 -13.707  0.00  0.00    -0.393 NA
ATOM      3  N   UNL     1      34.569 -22.589 -16.227  0.00  0.00    -0.160 NA
ATOM      4  N   UNL     1      34.033 -22.033 -18.420  0.00  0.00    -0.281 N 
ATOM      5  N   UNL     1      36.183 -21.051 -17.855  0.00  0.00    -0.166 NA
ATOM      6  N   UNL     1      37.021 -20.297 -18.586  0.00  0.00    -0.239 N 
ATOM      7  C   UNL     1      32.101 -24.057 -16.014  0.00  0.00    +0.005 C 
ATOM      8  C   UNL     1      33.013 -23.970 -14.925  0.00  0.00    +0.196 C 
ATOM      9  C   UNL     1      34.880 -23.309 -13.935  0.00  0.00    +0.151 C 
ATOM     10  C   UNL     1      32.440 -23.423 -17.150  0.00  0.00    +0.034 C 
ATOM     11  C   UNL     1      34.109 -24.070 -13.090  0.00  0.00    +0.109 C 
ATOM     12  C   UNL     1      33.734 -22.665 -17.234  0.00  0.00    +0.151 C 
ATOM     13  C   UNL     1      34.385 -24.458 -11.698  0.00  0.00    +0.063 C 
ATOM     14  C   UNL     1      35.173 -21.286 -18.698  0.00  0.00    +0.152 C 
ATOM     15  C   UNL     1      35.366 -20.685 -19.957  0.00  0.00    +0.048 C 
ATOM     16  C   UNL     1      36.578 -20.049 -19.852  0.00  0.00    +0.046 C 
ATOM     17  C   UNL     1      37.351 -19.241 -20.809  0.00  0.00    +0.049 C 
ATOM     18  H   UNL     1      33.374 -22.120 -19.146  0.00  0.00    +0.155 HD
ATOM     19  H   UNL     1      37.876 -19.954 -18.239  0.00  0.00    +0.174 HD
ENDROOT
BRANCH   7  20
ATOM     20  C   UNL     1      30.802 -24.815 -15.940  0.00  0.00    -0.046 C 
BRANCH  20  22
ATOM     21  O   UNL     1      28.034 -21.819 -14.950  0.00  0.00    -0.358 OA
ATOM     22  N   UNL     1      29.774 -24.053 -15.232  0.00  0.00    +0.393 N 
ATOM     23  C   UNL     1      30.279 -22.730 -14.843  0.00  0.00    -0.044 C 
ATOM     24  C   UNL     1      28.569 -23.909 -16.061  0.00  0.00    -0.044 C 
ATOM     25  C   UNL     1      29.186 -21.951 -14.118  0.00  0.00    +0.119 C 
ATOM     26  C   UNL     1      27.516 -23.102 -15.308  0.00  0.00    +0.119 C 
ATOM     27  H   UNL     1      29.528 -24.571 -14.388  0.00  0.00    -0.079 HD
ENDBRANCH  20  22
ENDBRANCH   7  20
BRANCH   9  28
ATOM     28  C   UNL     1      36.186 -22.651 -13.743  0.00  0.00    +0.057 C 
BRANCH  28  31
ATOM     29 CL   UNL     1      40.904 -26.410 -13.778  0.00  0.00    -0.082 Cl
ATOM     30  F   UNL     1      37.300 -23.779 -11.383  0.00  0.00    -0.204 F 
ATOM     31  C   UNL     1      37.377 -23.599 -13.749  0.00  0.00    +0.007 C 
ATOM     32  C   UNL     1      37.869 -24.114 -12.549  0.00  0.00    +0.137 C 
ATOM     33  C   UNL     1      37.975 -23.955 -14.958  0.00  0.00    -0.001 C 
ATOM     34  C   UNL     1      38.960 -24.984 -12.559  0.00  0.00    +0.041 C 
ATOM     35  C   UNL     1      39.066 -24.824 -14.968  0.00  0.00    +0.011 C 
ATOM     36  C   UNL     1      39.559 -25.339 -13.767  0.00  0.00    +0.060 C 
ENDBRANCH  28  31
ENDBRANCH   9  28
TORSDOF 4
ENDMDL
MODEL 7
REMARK VINA RESULT:      -8.6      3.282      6.711
REMARK  Name = 46213929
REMARK  4 active torsions:
REMARK  status: ('A' for Active; 'I' for Inactive)
REMARK    1  A    between atoms: C_7  and  C_20
REMARK    2  A    between atoms: C_9  and  C_28
REMARK    3  A    between atoms: C_20  and  N_22
REMARK    4  A    between atoms: C_28  and  C_31
REMARK                            x       y       z     vdW  Elec       q    Type
REMARK                         _______ _______ _______ _____ _____    ______ ____
ROOT
ATOM      1  N   UNL     1      34.040 -22.283 -17.498  0.00  0.00    -0.179 N 
ATOM      2  N   UNL     1      32.036 -21.698 -18.273  0.00  0.00    -0.393 NA
ATOM      3  N   UNL     1      35.005 -22.809 -16.702  0.00  0.00    -0.160 NA
ATOM      4  N   UNL     1      35.455 -23.973 -14.740  0.00  0.00    -0.281 N 
ATOM      5  N   UNL     1      37.550 -23.469 -15.862  0.00  0.00    -0.166 NA
ATOM      6  N   UNL     1      38.818 -23.753 -15.520  0.00  0.00    -0.239 N 
ATOM      7  C   UNL     1      32.188 -22.949 -16.119  0.00  0.00    +0.005 C 
ATOM      8  C   UNL     1      32.675 -22.307 -17.292  0.00  0.00    +0.196 C 
ATOM      9  C   UNL     1      34.261 -21.619 -18.676  0.00  0.00    +0.151 C 
ATOM     10  C   UNL     1      33.099 -23.490 -15.292  0.00  0.00    +0.034 C 
ATOM     11  C   UNL     1      33.013 -21.270 -19.133  0.00  0.00    +0.109 C 
ATOM     12  C   UNL     1      34.563 -23.403 -15.621  0.00  0.00    +0.151 C 
ATOM     13  C   UNL     1      32.657 -20.537 -20.358  0.00  0.00    +0.063 C 
ATOM     14  C   UNL     1      36.840 -23.999 -14.862  0.00  0.00    +0.152 C 
ATOM     15  C   UNL     1      37.648 -24.617 -13.890  0.00  0.00    +0.048 C 
ATOM     16  C   UNL     1      38.932 -24.441 -14.347  0.00  0.00    +0.046 C 
ATOM     17  C   UNL     1      40.236 -24.848 -13.800  0.00  0.00    +0.049 C 
ATOM     18  H   UNL     1      35.073 -24.406 -13.943  0.00  0.00    +0.155 HD
ATOM     19  H   UNL     1      39.593 -23.491 -16.066  0.00  0.00    +0.174 HD
ENDROOT
BRANCH   7  20
ATOM     20  C   UNL     1      30.723 -23.042 -15.782  0.00  0.00    -0.046 C 
BRANCH  20  22
ATOM     21  O   UNL     1      28.994 -25.282 -12.682  0.00  0.00    -0.358 OA
ATOM     22  N   UNL     1      30.458 -24.116 -14.826  0.00  0.00    +0.393 N 
ATOM     23  C   UNL     1      30.600 -23.633 -13.445  0.00  0.00    -0.044 C 
ATOM     24  C   UNL     1      29.115 -24.675 -15.028  0.00  0.00    -0.044 C 
ATOM     25  C   UNL     1      30.308 -24.768 -12.468  0.00  0.00    +0.119 C 
ATOM     26  C   UNL     1      28.856 -25.784 -14.013  0.00  0.00    +0.119 C 
ATOM     27  H   UNL     1      31.145 -24.853 -14.986  0.00  0.00    -0.079 HD
ENDBRANCH  20  22
ENDBRANCH   7  20
BRANCH   9  28
ATOM     28  C   UNL     1      35.606 -21.390 -19.234  0.00  0.00    +0.057 C 
BRANCH  28  31
ATOM     29 CL   UNL     1      35.927 -16.857 -23.202  0.00  0.00    -0.082 Cl
ATOM     30  F   UNL     1      37.493 -19.273 -19.035  0.00  0.00    -0.204 F 
ATOM     31  C   UNL     1      35.688 -20.245 -20.234  0.00  0.00    +0.007 C 
ATOM     32  C   UNL     1      36.643 -19.240 -20.071  0.00  0.00    +0.137 C 
ATOM     33  C   UNL     1      34.809 -20.202 -21.316  0.00  0.00    -0.001 C 
ATOM     34  C   UNL     1      36.716 -18.192 -20.989  0.00  0.00    +0.041 C 
ATOM     35  C   UNL     1      34.882 -19.155 -22.234  0.00  0.00    +0.011 C 
ATOM     36  C   UNL     1      35.836 -18.150 -22.071  0.00  0.00    +0.060 C 
ENDBRANCH  28  31
ENDBRANCH   9  28
TORSDOF 4
ENDMDL
