MODEL 1
REMARK VINA RESULT:     -13.0      0.000      0.000
REMARK  Name = 24882195
REMARK  2 active torsions:
REMARK  status: ('A' for Active; 'I' for Inactive)
REMARK    1  A    between atoms: C_5  and  N_15
REMARK    2  A    between atoms: N_15  and  C_21
REMARK                            x       y       z     vdW  Elec       q    Type
REMARK                         _______ _______ _______ _____ _____    ______ ____
ROOT
ATOM      1  C   UNL     1      35.137 -21.881 -17.796  0.00  0.00    +0.001 C 
ATOM      2  C   UNL     1      33.850 -21.767 -18.365  0.00  0.00    +0.000 C 
ATOM      3  C   UNL     1      36.031 -20.384 -19.517  0.00  0.00    +0.000 C 
ATOM      4  C   UNL     1      34.744 -20.270 -20.088  0.00  0.00    +0.000 C 
ATOM      5  C   UNL     1      34.240 -23.367 -16.090  0.00  0.00    +0.049 C 
ATOM      6  C   UNL     1      36.211 -21.188 -18.379  0.00  0.00    +0.000 C 
ATOM      7  C   UNL     1      35.316 -22.685 -16.658  0.00  0.00    +0.015 C 
ATOM      8  C   UNL     1      33.670 -20.964 -19.504  0.00  0.00    +0.000 C 
ATOM      9  C   UNL     1      32.777 -22.460 -17.782  0.00  0.00    +0.001 C 
ATOM     10  C   UNL     1      32.971 -23.255 -16.651  0.00  0.00    +0.015 C 
ATOM     11  C   UNL     1      37.104 -19.692 -20.102  0.00  0.00    +0.000 C 
ATOM     12  C   UNL     1      34.565 -19.467 -21.225  0.00  0.00    +0.000 C 
ATOM     13  C   UNL     1      36.910 -18.897 -21.232  0.00  0.00    +0.000 C 
ATOM     14  C   UNL     1      35.642 -18.785 -21.792  0.00  0.00    +0.000 C 
ENDROOT
BRANCH   5  15
ATOM     15  N   UNL     1      34.437 -24.170 -14.947  0.00  0.00    -0.299 N 
ATOM     16  H   UNL     1      33.666 -24.715 -14.669  0.00  0.00    +0.153 HD
BRANCH  15  21
ATOM     17  N   UNL     1      36.348 -25.419 -14.376  0.00  0.00    -0.106 N 
ATOM     18  N   UNL     1      37.920 -24.749 -12.685  0.00  0.00    -0.340 NA
ATOM     19  N   UNL     1      36.179 -26.448 -15.247  0.00  0.00    -0.139 NA
ATOM     20  N   UNL     1      38.072 -26.767 -14.022  0.00  0.00    -0.145 NA
ATOM     21  C   UNL     1      35.544 -24.289 -14.181  0.00  0.00    +0.138 C 
ATOM     22  C   UNL     1      35.916 -23.395 -13.252  0.00  0.00    +0.061 C 
ATOM     23  C   UNL     1      37.515 -25.636 -13.636  0.00  0.00    +0.174 C 
ATOM     24  C   UNL     1      37.174 -23.700 -12.504  0.00  0.00    +0.125 C 
ATOM     25  C   UNL     1      37.603 -22.705 -11.456  0.00  0.00    +0.068 C 
ATOM     26  C   UNL     1      37.234 -27.215 -14.990  0.00  0.00    +0.230 C 
ENDBRANCH  15  21
ENDBRANCH   5  15
TORSDOF 2
ENDMDL
MODEL 2
REMARK VINA RESULT:     -12.6      1.234      2.169
REMARK  Name = 24882195
REMARK  2 active torsions:
REMARK  status: ('A' for Active; 'I' for Inactive)
REMARK    1  A    between atoms: C_5  and  N_15
REMARK    2  A    between atoms: N_15  and  C_21
REMARK                            x       y       z     vdW  Elec       q    Type
REMARK                         _______ _______ _______ _____ _____    ______ ____
ROOT
ATOM      1  C   UNL     1      35.368 -22.024 -17.474  0.00  0.00    +0.001 C 
ATOM      2  C   UNL     1      34.057 -22.064 -17.997  0.00  0.00    +0.000 C 
ATOM      3  C   UNL     1      36.044 -20.517 -19.282  0.00  0.00    +0.000 C 
ATOM      4  C   UNL     1      34.734 -20.556 -19.807  0.00  0.00    +0.000 C 
ATOM      5  C   UNL     1      34.686 -23.522 -15.681  0.00  0.00    +0.049 C 
ATOM      6  C   UNL     1      36.344 -21.252 -18.124  0.00  0.00    +0.000 C 
ATOM      7  C   UNL     1      35.667 -22.760 -16.315  0.00  0.00    +0.015 C 
ATOM      8  C   UNL     1      33.756 -21.330 -19.157  0.00  0.00    +0.000 C 
ATOM      9  C   UNL     1      33.080 -22.837 -17.347  0.00  0.00    +0.001 C 
ATOM     10  C   UNL     1      33.394 -23.562 -16.196  0.00  0.00    +0.015 C 
ATOM     11  C   UNL     1      37.020 -19.744 -19.933  0.00  0.00    +0.000 C 
ATOM     12  C   UNL     1      34.434 -19.822 -20.965  0.00  0.00    +0.000 C 
ATOM     13  C   UNL     1      36.707 -19.020 -21.084  0.00  0.00    +0.000 C 
ATOM     14  C   UNL     1      35.416 -19.059 -21.599  0.00  0.00    +0.000 C 
ENDROOT
BRANCH   5  15
ATOM     15  N   UNL     1      35.003 -24.254 -14.517  0.00  0.00    -0.299 N 
ATOM     16  H   UNL     1      34.249 -24.715 -14.083  0.00  0.00    +0.153 HD
BRANCH  15  21
ATOM     17  N   UNL     1      36.263 -24.232 -12.530  0.00  0.00    -0.106 N 
ATOM     18  N   UNL     1      38.625 -24.675 -12.446  0.00  0.00    -0.340 NA
ATOM     19  N   UNL     1      35.262 -23.926 -11.664  0.00  0.00    -0.139 NA
ATOM     20  N   UNL     1      37.225 -24.153 -10.534  0.00  0.00    -0.145 NA
ATOM     21  C   UNL     1      36.205 -24.406 -13.918  0.00  0.00    +0.138 C 
ATOM     22  C   UNL     1      37.338 -24.710 -14.570  0.00  0.00    +0.061 C 
ATOM     23  C   UNL     1      37.457 -24.368 -11.814  0.00  0.00    +0.174 C 
ATOM     24  C   UNL     1      38.570 -24.836 -13.735  0.00  0.00    +0.125 C 
ATOM     25  C   UNL     1      39.851 -25.176 -14.454  0.00  0.00    +0.068 C 
ATOM     26  C   UNL     1      35.894 -23.893 -10.496  0.00  0.00    +0.230 C 
ENDBRANCH  15  21
ENDBRANCH   5  15
TORSDOF 2
ENDMDL
MODEL 3
REMARK VINA RESULT:     -12.5      6.562     10.641
REMARK  Name = 24882195
REMARK  2 active torsions:
REMARK  status: ('A' for Active; 'I' for Inactive)
REMARK    1  A    between atoms: C_5  and  N_15
REMARK    2  A    between atoms: N_15  and  C_21
REMARK                            x       y       z     vdW  Elec       q    Type
REMARK                         _______ _______ _______ _____ _____    ______ ____
ROOT
ATOM      1  C   UNL     1      34.779 -19.416 -20.656  0.00  0.00    +0.001 C 
ATOM      2  C   UNL     1      36.094 -19.733 -20.251  0.00  0.00    +0.000 C 
ATOM      3  C   UNL     1      33.897 -21.100 -19.110  0.00  0.00    +0.000 C 
ATOM      4  C   UNL     1      35.212 -21.418 -18.705  0.00  0.00    +0.000 C 
ATOM      5  C   UNL     1      35.664 -17.746 -22.188  0.00  0.00    +0.049 C 
ATOM      6  C   UNL     1      33.698 -20.105 -20.080  0.00  0.00    +0.000 C 
ATOM      7  C   UNL     1      34.580 -18.421 -21.626  0.00  0.00    +0.015 C 
ATOM      8  C   UNL     1      36.294 -20.730 -19.280  0.00  0.00    +0.000 C 
ATOM      9  C   UNL     1      37.175 -19.045 -20.826  0.00  0.00    +0.001 C 
ATOM     10  C   UNL     1      36.961 -18.058 -21.789  0.00  0.00    +0.015 C 
ATOM     11  C   UNL     1      32.817 -21.789 -18.534  0.00  0.00    +0.000 C 
ATOM     12  C   UNL     1      35.412 -22.413 -17.734  0.00  0.00    +0.000 C 
ATOM     13  C   UNL     1      33.031 -22.776 -17.572  0.00  0.00    +0.000 C 
ATOM     14  C   UNL     1      34.327 -23.087 -17.172  0.00  0.00    +0.000 C 
ENDROOT
BRANCH   5  15
ATOM     15  N   UNL     1      35.447 -16.748 -23.162  0.00  0.00    -0.299 N 
ATOM     16  H   UNL     1      35.897 -16.889 -24.026  0.00  0.00    +0.153 HD
BRANCH  15  21
ATOM     17  N   UNL     1      34.223 -15.061 -24.253  0.00  0.00    -0.106 N 
ATOM     18  N   UNL     1      33.120 -13.260 -23.103  0.00  0.00    -0.340 NA
ATOM     19  N   UNL     1      34.395 -15.487 -25.532  0.00  0.00    -0.139 NA
ATOM     20  N   UNL     1      33.131 -13.594 -25.506  0.00  0.00    -0.145 NA
ATOM     21  C   UNL     1      34.704 -15.624 -23.065  0.00  0.00    +0.138 C 
ATOM     22  C   UNL     1      34.402 -15.019 -21.906  0.00  0.00    +0.061 C 
ATOM     23  C   UNL     1      33.444 -13.899 -24.262  0.00  0.00    +0.174 C 
ATOM     24  C   UNL     1      33.567 -13.783 -22.000  0.00  0.00    +0.125 C 
ATOM     25  C   UNL     1      33.220 -13.092 -20.705  0.00  0.00    +0.068 C 
ATOM     26  C   UNL     1      33.723 -14.576 -26.229  0.00  0.00    +0.230 C 
ENDBRANCH  15  21
ENDBRANCH   5  15
TORSDOF 2
ENDMDL
MODEL 4
REMARK VINA RESULT:     -12.5      5.959     10.239
REMARK  Name = 24882195
REMARK  2 active torsions:
REMARK  status: ('A' for Active; 'I' for Inactive)
REMARK    1  A    between atoms: C_5  and  N_15
REMARK    2  A    between atoms: N_15  and  C_21
REMARK                            x       y       z     vdW  Elec       q    Type
REMARK                         _______ _______ _______ _____ _____    ______ ____
ROOT
ATOM      1  C   UNL     1      34.807 -19.685 -20.663  0.00  0.00    +0.001 C 
ATOM      2  C   UNL     1      36.109 -19.875 -20.150  0.00  0.00    +0.000 C 
ATOM      3  C   UNL     1      33.926 -21.262 -19.008  0.00  0.00    +0.000 C 
ATOM      4  C   UNL     1      35.228 -21.452 -18.494  0.00  0.00    +0.000 C 
ATOM      5  C   UNL     1      35.692 -18.121 -22.304  0.00  0.00    +0.049 C 
ATOM      6  C   UNL     1      33.733 -20.382 -20.085  0.00  0.00    +0.000 C 
ATOM      7  C   UNL     1      34.615 -18.805 -21.740  0.00  0.00    +0.015 C 
ATOM      8  C   UNL     1      36.303 -20.756 -19.073  0.00  0.00    +0.000 C 
ATOM      9  C   UNL     1      37.184 -19.179 -20.728  0.00  0.00    +0.001 C 
ATOM     10  C   UNL     1      36.976 -18.307 -21.799  0.00  0.00    +0.015 C 
ATOM     11  C   UNL     1      32.853 -21.959 -18.429  0.00  0.00    +0.000 C 
ATOM     12  C   UNL     1      35.421 -22.332 -17.417  0.00  0.00    +0.000 C 
ATOM     13  C   UNL     1      33.060 -22.830 -17.360  0.00  0.00    +0.000 C 
ATOM     14  C   UNL     1      34.343 -23.016 -16.854  0.00  0.00    +0.000 C 
ENDROOT
BRANCH   5  15
ATOM     15  N   UNL     1      35.482 -17.240 -23.385  0.00  0.00    -0.299 N 
ATOM     16  H   UNL     1      35.881 -17.513 -24.243  0.00  0.00    +0.153 HD
BRANCH  15  21
ATOM     17  N   UNL     1      34.658 -15.392 -22.184  0.00  0.00    -0.106 N 
ATOM     18  N   UNL     1      33.421 -13.593 -23.192  0.00  0.00    -0.340 NA
ATOM     19  N   UNL     1      35.107 -15.742 -20.950  0.00  0.00    -0.139 NA
ATOM     20  N   UNL     1      33.990 -13.761 -20.840  0.00  0.00    -0.145 NA
ATOM     21  C   UNL     1      34.805 -16.071 -23.400  0.00  0.00    +0.138 C 
ATOM     22  C   UNL     1      34.270 -15.524 -24.503  0.00  0.00    +0.061 C 
ATOM     23  C   UNL     1      33.977 -14.174 -22.091  0.00  0.00    +0.174 C 
ATOM     24  C   UNL     1      33.558 -14.223 -24.321  0.00  0.00    +0.125 C 
ATOM     25  C   UNL     1      32.951 -13.598 -25.551  0.00  0.00    +0.068 C 
ATOM     26  C   UNL     1      34.680 -14.735 -20.195  0.00  0.00    +0.230 C 
ENDBRANCH  15  21
ENDBRANCH   5  15
TORSDOF 2
ENDMDL
MODEL 5
REMARK VINA RESULT:     -12.4      2.318      4.237
REMARK  Name = 24882195
REMARK  2 active torsions:
REMARK  status: ('A' for Active; 'I' for Inactive)
REMARK    1  A    between atoms: C_5  and  N_15
REMARK    2  A    between atoms: N_15  and  C_21
REMARK                            x       y       z     vdW  Elec       q    Type
REMARK                         _______ _______ _______ _____ _____    ______ ____
ROOT
ATOM      1  C   UNL     1      34.328 -21.109 -19.415  0.00  0.00    +0.001 C 
ATOM      2  C   UNL     1      35.672 -20.911 -19.032  0.00  0.00    +0.000 C 
ATOM      3  C   UNL     1      34.596 -19.463 -21.210  0.00  0.00    +0.000 C 
ATOM      4  C   UNL     1      35.941 -19.265 -20.828  0.00  0.00    +0.000 C 
ATOM      5  C   UNL     1      34.071 -22.741 -17.628  0.00  0.00    +0.049 C 
ATOM      6  C   UNL     1      33.807 -20.382 -20.498  0.00  0.00    +0.000 C 
ATOM      7  C   UNL     1      33.540 -22.027 -18.702  0.00  0.00    +0.015 C 
ATOM      8  C   UNL     1      36.462 -19.991 -19.744  0.00  0.00    +0.000 C 
ATOM      9  C   UNL     1      36.193 -21.637 -17.949  0.00  0.00    +0.001 C 
ATOM     10  C   UNL     1      35.397 -22.547 -17.251  0.00  0.00    +0.015 C 
ATOM     11  C   UNL     1      34.076 -18.736 -22.293  0.00  0.00    +0.000 C 
ATOM     12  C   UNL     1      36.730 -18.346 -21.540  0.00  0.00    +0.000 C 
ATOM     13  C   UNL     1      34.872 -17.827 -22.990  0.00  0.00    +0.000 C 
ATOM     14  C   UNL     1      36.197 -17.632 -22.614  0.00  0.00    +0.000 C 
ENDROOT
BRANCH   5  15
ATOM     15  N   UNL     1      33.265 -23.661 -16.924  0.00  0.00    -0.299 N 
ATOM     16  H   UNL     1      33.282 -24.587 -17.258  0.00  0.00    +0.153 HD
BRANCH  15  21
ATOM     17  N   UNL     1      33.024 -23.650 -14.583  0.00  0.00    -0.106 N 
ATOM     18  N   UNL     1      30.991 -23.034 -13.457  0.00  0.00    -0.340 NA
ATOM     19  N   UNL     1      34.278 -24.058 -14.253  0.00  0.00    -0.139 NA
ATOM     20  N   UNL     1      33.047 -23.719 -12.368  0.00  0.00    -0.145 NA
ATOM     21  C   UNL     1      32.472 -23.439 -15.853  0.00  0.00    +0.138 C 
ATOM     22  C   UNL     1      31.197 -23.030 -15.932  0.00  0.00    +0.061 C 
ATOM     23  C   UNL     1      32.289 -23.448 -13.411  0.00  0.00    +0.174 C 
ATOM     24  C   UNL     1      30.479 -22.838 -14.636  0.00  0.00    +0.125 C 
ATOM     25  C   UNL     1      29.045 -22.381 -14.710  0.00  0.00    +0.068 C 
ATOM     26  C   UNL     1      34.230 -24.079 -12.926  0.00  0.00    +0.230 C 
ENDBRANCH  15  21
ENDBRANCH   5  15
TORSDOF 2
ENDMDL
MODEL 6
REMARK VINA RESULT:     -12.2      1.798      2.716
REMARK  Name = 24882195
REMARK  2 active torsions:
REMARK  status: ('A' for Active; 'I' for Inactive)
REMARK    1  A    between atoms: C_5  and  N_15
REMARK    2  A    between atoms: N_15  and  C_21
REMARK                            x       y       z     vdW  Elec       q    Type
REMARK                         _______ _______ _______ _____ _____    ______ ____
ROOT
ATOM      1  C   UNL     1      35.762 -21.075 -18.669  0.00  0.00    +0.001 C 
ATOM      2  C   UNL     1      34.421 -21.273 -19.066  0.00  0.00    +0.000 C 
ATOM      3  C   UNL     1      36.094 -19.546 -20.554  0.00  0.00    +0.000 C 
ATOM      4  C   UNL     1      34.754 -19.744 -20.952  0.00  0.00    +0.000 C 
ATOM      5  C   UNL     1      35.422 -22.596 -16.800  0.00  0.00    +0.049 C 
ATOM      6  C   UNL     1      36.581 -20.215 -19.419  0.00  0.00    +0.000 C 
ATOM      7  C   UNL     1      36.247 -21.745 -17.534  0.00  0.00    +0.015 C 
ATOM      8  C   UNL     1      33.934 -20.605 -20.203  0.00  0.00    +0.000 C 
ATOM      9  C   UNL     1      33.602 -22.134 -18.317  0.00  0.00    +0.001 C 
ATOM     10  C   UNL     1      34.100 -22.791 -17.191  0.00  0.00    +0.015 C 
ATOM     11  C   UNL     1      36.912 -18.686 -21.305  0.00  0.00    +0.000 C 
ATOM     12  C   UNL     1      34.267 -19.075 -22.087  0.00  0.00    +0.000 C 
ATOM     13  C   UNL     1      36.415 -18.029 -22.430  0.00  0.00    +0.000 C 
ATOM     14  C   UNL     1      35.094 -18.223 -22.821  0.00  0.00    +0.000 C 
ENDROOT
BRANCH   5  15
ATOM     15  N   UNL     1      35.926 -23.260 -15.662  0.00  0.00    -0.299 N 
ATOM     16  H   UNL     1      36.868 -23.539 -15.712  0.00  0.00    +0.153 HD
BRANCH  15  21
ATOM     17  N   UNL     1      35.993 -23.406 -13.314  0.00  0.00    -0.106 N 
ATOM     18  N   UNL     1      34.140 -24.147 -11.972  0.00  0.00    -0.340 NA
ATOM     19  N   UNL     1      37.268 -22.975 -13.125  0.00  0.00    -0.139 NA
ATOM     20  N   UNL     1      36.303 -23.455 -11.120  0.00  0.00    -0.145 NA
ATOM     21  C   UNL     1      35.285 -23.566 -14.512  0.00  0.00    +0.138 C 
ATOM     22  C   UNL     1      34.021 -24.011 -14.450  0.00  0.00    +0.061 C 
ATOM     23  C   UNL     1      35.422 -23.693 -12.070  0.00  0.00    +0.174 C 
ATOM     24  C   UNL     1      33.484 -24.295 -13.085  0.00  0.00    +0.125 C 
ATOM     25  C   UNL     1      32.065 -24.797 -13.000  0.00  0.00    +0.068 C 
ATOM     26  C   UNL     1      37.393 -23.025 -11.804  0.00  0.00    +0.230 C 
ENDBRANCH  15  21
ENDBRANCH   5  15
TORSDOF 2
ENDMDL
MODEL 7
REMARK VINA RESULT:     -12.2      2.618      4.071
REMARK  Name = 24882195
REMARK  2 active torsions:
REMARK  status: ('A' for Active; 'I' for Inactive)
REMARK    1  A    between atoms: C_5  and  N_15
REMARK    2  A    between atoms: N_15  and  C_21
REMARK                            x       y       z     vdW  Elec       q    Type
REMARK                         _______ _______ _______ _____ _____    ______ ____
ROOT
ATOM      1  C   UNL     1      34.390 -21.047 -19.379  0.00  0.00    +0.001 C 
ATOM      2  C   UNL     1      35.746 -20.837 -19.048  0.00  0.00    +0.000 C 
ATOM      3  C   UNL     1      34.594 -19.447 -21.223  0.00  0.00    +0.000 C 
ATOM      4  C   UNL     1      35.951 -19.237 -20.893  0.00  0.00    +0.000 C 
ATOM      5  C   UNL     1      34.197 -22.634 -17.544  0.00  0.00    +0.049 C 
ATOM      6  C   UNL     1      33.831 -20.348 -20.462  0.00  0.00    +0.000 C 
ATOM      7  C   UNL     1      33.628 -21.947 -18.617  0.00  0.00    +0.015 C 
ATOM      8  C   UNL     1      36.510 -19.936 -19.809  0.00  0.00    +0.000 C 
ATOM      9  C   UNL     1      36.305 -21.536 -17.965  0.00  0.00    +0.001 C 
ATOM     10  C   UNL     1      35.535 -22.429 -17.218  0.00  0.00    +0.015 C 
ATOM     11  C   UNL     1      34.036 -18.748 -22.306  0.00  0.00    +0.000 C 
ATOM     12  C   UNL     1      36.713 -18.336 -21.654  0.00  0.00    +0.000 C 
ATOM     13  C   UNL     1      34.806 -17.856 -23.053  0.00  0.00    +0.000 C 
ATOM     14  C   UNL     1      36.143 -17.651 -22.727  0.00  0.00    +0.000 C 
ENDROOT
BRANCH   5  15
ATOM     15  N   UNL     1      33.418 -23.536 -16.790  0.00  0.00    -0.299 N 
ATOM     16  H   UNL     1      32.928 -24.215 -17.308  0.00  0.00    +0.153 HD
BRANCH  15  21
ATOM     17  N   UNL     1      31.967 -23.357 -14.945  0.00  0.00    -0.106 N 
ATOM     18  N   UNL     1      32.670 -23.656 -12.665  0.00  0.00    -0.340 NA
ATOM     19  N   UNL     1      30.823 -23.074 -15.621  0.00  0.00    -0.139 NA
ATOM     20  N   UNL     1      30.411 -23.138 -13.382  0.00  0.00    -0.145 NA
ATOM     21  C   UNL     1      33.253 -23.591 -15.450  0.00  0.00    +0.138 C 
ATOM     22  C   UNL     1      34.240 -23.855 -14.580  0.00  0.00    +0.061 C 
ATOM     23  C   UNL     1      31.690 -23.392 -13.575  0.00  0.00    +0.174 C 
ATOM     24  C   UNL     1      33.863 -23.873 -13.134  0.00  0.00    +0.125 C 
ATOM     25  C   UNL     1      34.962 -24.167 -12.145  0.00  0.00    +0.068 C 
ATOM     26  C   UNL     1      29.935 -22.956 -14.639  0.00  0.00    +0.230 C 
ENDBRANCH  15  21
ENDBRANCH   5  15
TORSDOF 2
ENDMDL
MODEL 8
REMARK VINA RESULT:     -12.2      1.121      2.042
REMARK  Name = 24882195
REMARK  2 active torsions:
REMARK  status: ('A' for Active; 'I' for Inactive)
REMARK    1  A    between atoms: C_5  and  N_15
REMARK    2  A    between atoms: N_15  and  C_21
REMARK                            x       y       z     vdW  Elec       q    Type
REMARK                         _______ _______ _______ _____ _____    ______ ____
ROOT
ATOM      1  C   UNL     1      35.052 -21.774 -17.904  0.00  0.00    +0.001 C 
ATOM      2  C   UNL     1      36.391 -21.341 -17.796  0.00  0.00    +0.000 C 
ATOM      3  C   UNL     1      34.795 -20.469 -19.962  0.00  0.00    +0.000 C 
ATOM      4  C   UNL     1      36.134 -20.035 -19.854  0.00  0.00    +0.000 C 
ATOM      5  C   UNL     1      35.316 -23.068 -15.860  0.00  0.00    +0.049 C 
ATOM      6  C   UNL     1      34.271 -21.332 -18.985  0.00  0.00    +0.000 C 
ATOM      7  C   UNL     1      34.529 -22.637 -16.927  0.00  0.00    +0.015 C 
ATOM      8  C   UNL     1      36.916 -20.477 -18.773  0.00  0.00    +0.000 C 
ATOM      9  C   UNL     1      37.172 -21.783 -16.715  0.00  0.00    +0.001 C 
ATOM     10  C   UNL     1      36.637 -22.641 -15.753  0.00  0.00    +0.015 C 
ATOM     11  C   UNL     1      34.015 -20.026 -21.042  0.00  0.00    +0.000 C 
ATOM     12  C   UNL     1      36.658 -19.172 -20.831  0.00  0.00    +0.000 C 
ATOM     13  C   UNL     1      34.549 -19.169 -22.004  0.00  0.00    +0.000 C 
ATOM     14  C   UNL     1      35.869 -18.742 -21.898  0.00  0.00    +0.000 C 
ENDROOT
BRANCH   5  15
ATOM     15  N   UNL     1      34.775 -23.935 -14.888  0.00  0.00    -0.299 N 
ATOM     16  H   UNL     1      33.844 -24.216 -15.037  0.00  0.00    +0.153 HD
BRANCH  15  21
ATOM     17  N   UNL     1      36.230 -25.521 -13.936  0.00  0.00    -0.106 N 
ATOM     18  N   UNL     1      36.719 -25.637 -11.584  0.00  0.00    -0.340 NA
ATOM     19  N   UNL     1      36.578 -26.179 -15.073  0.00  0.00    -0.139 NA
ATOM     20  N   UNL     1      37.635 -27.106 -13.283  0.00  0.00    -0.145 NA
ATOM     21  C   UNL     1      35.365 -24.430 -13.778  0.00  0.00    +0.138 C 
ATOM     22  C   UNL     1      35.175 -23.944 -12.542  0.00  0.00    +0.061 C 
ATOM     23  C   UNL     1      36.891 -26.107 -12.852  0.00  0.00    +0.174 C 
ATOM     24  C   UNL     1      35.916 -24.625 -11.438  0.00  0.00    +0.125 C 
ATOM     25  C   UNL     1      35.710 -24.089 -10.044  0.00  0.00    +0.068 C 
ATOM     26  C   UNL     1      37.413 -27.108 -14.621  0.00  0.00    +0.230 C 
ENDBRANCH  15  21
ENDBRANCH   5  15
TORSDOF 2
ENDMDL
MODEL 9
REMARK VINA RESULT:     -12.0      5.146      9.412
REMARK  Name = 24882195
REMARK  2 active torsions:
REMARK  status: ('A' for Active; 'I' for Inactive)
REMARK    1  A    between atoms: C_5  and  N_15
REMARK    2  A    between atoms: N_15  and  C_21
REMARK                            x       y       z     vdW  Elec       q    Type
REMARK                         _______ _______ _______ _____ _____    ______ ____
ROOT
ATOM      1  C   UNL     1      35.546 -20.774 -19.096  0.00  0.00    +0.001 C 
ATOM      2  C   UNL     1      34.177 -21.120 -19.102  0.00  0.00    +0.000 C 
ATOM      3  C   UNL     1      35.885 -22.151 -17.098  0.00  0.00    +0.000 C 
ATOM      4  C   UNL     1      34.516 -22.496 -17.103  0.00  0.00    +0.000 C 
ATOM      5  C   UNL     1      35.199 -19.409 -21.081  0.00  0.00    +0.049 C 
ATOM      6  C   UNL     1      36.382 -21.294 -18.094  0.00  0.00    +0.000 C 
ATOM      7  C   UNL     1      36.041 -19.917 -20.092  0.00  0.00    +0.015 C 
ATOM      8  C   UNL     1      33.679 -21.976 -18.105  0.00  0.00    +0.000 C 
ATOM      9  C   UNL     1      33.341 -20.600 -20.104  0.00  0.00    +0.001 C 
ATOM     10  C   UNL     1      33.849 -19.750 -21.087  0.00  0.00    +0.015 C 
ATOM     11  C   UNL     1      36.720 -22.671 -16.096  0.00  0.00    +0.000 C 
ATOM     12  C   UNL     1      34.019 -23.353 -16.107  0.00  0.00    +0.000 C 
ATOM     13  C   UNL     1      36.212 -23.520 -15.113  0.00  0.00    +0.000 C 
ATOM     14  C   UNL     1      34.864 -23.861 -15.119  0.00  0.00    +0.000 C 
ENDROOT
BRANCH   5  15
ATOM     15  N   UNL     1      35.713 -18.550 -22.075  0.00  0.00    -0.299 N 
ATOM     16  H   UNL     1      36.549 -18.846 -22.504  0.00  0.00    +0.153 HD
BRANCH  15  21
ATOM     17  N   UNL     1      35.005 -16.364 -21.568  0.00  0.00    -0.106 N 
ATOM     18  N   UNL     1      34.168 -14.821 -23.212  0.00  0.00    -0.340 NA
ATOM     19  N   UNL     1      35.239 -16.386 -20.230  0.00  0.00    -0.139 NA
ATOM     20  N   UNL     1      34.400 -14.359 -20.842  0.00  0.00    -0.145 NA
ATOM     21  C   UNL     1      35.213 -17.376 -22.515  0.00  0.00    +0.138 C 
ATOM     22  C   UNL     1      34.904 -17.121 -23.796  0.00  0.00    +0.061 C 
ATOM     23  C   UNL     1      34.492 -15.112 -21.920  0.00  0.00    +0.174 C 
ATOM     24  C   UNL     1      34.361 -15.760 -24.090  0.00  0.00    +0.125 C 
ATOM     25  C   UNL     1      34.009 -15.461 -25.525  0.00  0.00    +0.068 C 
ATOM     26  C   UNL     1      34.861 -15.168 -19.855  0.00  0.00    +0.230 C 
ENDBRANCH  15  21
ENDBRANCH   5  15
TORSDOF 2
ENDMDL
