MODEL 1
REMARK VINA RESULT:     -12.0      0.000      0.000
REMARK  Name = 24832041
REMARK  6 active torsions:
REMARK  status: ('A' for Active; 'I' for Inactive)
REMARK    1  A    between atoms: C_1  and  C_18
REMARK    2  A    between atoms: C_4  and  C_7
REMARK    3  A    between atoms: C_10  and  C_15
REMARK    4  A    between atoms: C_18  and  N_19
REMARK    5  A    between atoms: C_18  and  C_23
REMARK    6  A    between atoms: C_23  and  C_26
REMARK                            x       y       z     vdW  Elec       q    Type
REMARK                         _______ _______ _______ _____ _____    ______ ____
ROOT
ATOM      1  C   UNL     1      34.610 -19.643 -21.187  0.00  0.00    -0.042 C 
ATOM      2  C   UNL     1      33.403 -20.079 -20.642  0.00  0.00    -0.006 C 
ATOM      3  C   UNL     1      35.817 -20.005 -20.588  0.00  0.00    -0.006 C 
ATOM      4  C   UNL     1      34.609 -21.238 -18.898  0.00  0.00    -0.000 C 
ATOM      5  C   UNL     1      33.402 -20.876 -19.498  0.00  0.00    -0.000 C 
ATOM      6  C   UNL     1      35.816 -20.802 -19.444  0.00  0.00    -0.000 C 
ENDROOT
BRANCH   4   7
ATOM      7  C   UNL     1      34.607 -22.065 -17.712  0.00  0.00    +0.000 C 
ATOM      8  C   UNL     1      35.746 -22.134 -16.908  0.00  0.00    +0.005 C 
ATOM      9  C   UNL     1      33.468 -22.794 -17.371  0.00  0.00    +0.000 C 
ATOM     10  C   UNL     1      35.744 -22.933 -15.764  0.00  0.00    +0.053 C 
ATOM     11  C   UNL     1      33.467 -23.592 -16.227  0.00  0.00    +0.000 C 
ATOM     12  C   UNL     1      34.605 -23.662 -15.423  0.00  0.00    +0.005 C 
BRANCH  10  15
ATOM     13  O   UNL     1      36.857 -22.885 -13.689  0.00  0.00    -0.270 OA
ATOM     14  N   UNL     1      38.153 -23.228 -15.549  0.00  0.00    -0.325 N 
ATOM     15  C   UNL     1      36.930 -23.004 -14.925  0.00  0.00    +0.243 C 
ATOM     16  H   UNL     1      38.977 -23.282 -15.013  0.00  0.00    +0.145 HD
ATOM     17  H   UNL     1      38.195 -23.334 -16.527  0.00  0.00    +0.145 HD
ENDBRANCH  10  15
ENDBRANCH   4   7
BRANCH   1  18
ATOM     18  C   UNL     1      34.613 -18.792 -22.411  0.00  0.00    -0.038 C 
BRANCH  18  19
ATOM     19  N   UNL     1      34.716 -19.597 -23.647  0.00  0.00    +0.384 N 
ATOM     20  H   UNL     1      34.550 -19.000 -24.458  0.00  0.00    -0.089 HD
ATOM     21  H   UNL     1      34.019 -20.343 -23.626  0.00  0.00    -0.089 HD
ATOM     22  H   UNL     1      35.648 -20.005 -23.711  0.00  0.00    -0.089 HD
ENDBRANCH  18  19
BRANCH  18  23
ATOM     23  C   UNL     1      35.741 -17.719 -22.442  0.00  0.00    +0.011 C 
BRANCH  23  26
ATOM     24  F   UNL     1      35.350 -16.790 -19.791  0.00  0.00    -0.205 F 
ATOM     25  F   UNL     1      34.194 -13.304 -23.844  0.00  0.00    -0.204 F 
ATOM     26  C   UNL     1      35.237 -16.331 -22.118  0.00  0.00    +0.006 C 
ATOM     27  C   UNL     1      35.069 -15.941 -20.789  0.00  0.00    +0.136 C 
ATOM     28  C   UNL     1      34.943 -15.441 -23.150  0.00  0.00    +0.028 C 
ATOM     29  C   UNL     1      34.478 -14.159 -22.854  0.00  0.00    +0.140 C 
ATOM     30  C   UNL     1      34.604 -14.659 -20.493  0.00  0.00    +0.032 C 
ATOM     31  C   UNL     1      34.309 -13.768 -21.525  0.00  0.00    +0.032 C 
ENDBRANCH  23  26
ENDBRANCH  18  23
ENDBRANCH   1  18
TORSDOF 6
ENDMDL
MODEL 2
REMARK VINA RESULT:     -11.9      4.427      9.650
REMARK  Name = 24832041
REMARK  6 active torsions:
REMARK  status: ('A' for Active; 'I' for Inactive)
REMARK    1  A    between atoms: C_1  and  C_18
REMARK    2  A    between atoms: C_4  and  C_7
REMARK    3  A    between atoms: C_10  and  C_15
REMARK    4  A    between atoms: C_18  and  N_19
REMARK    5  A    between atoms: C_18  and  C_23
REMARK    6  A    between atoms: C_23  and  C_26
REMARK                            x       y       z     vdW  Elec       q    Type
REMARK                         _______ _______ _______ _____ _____    ______ ____
ROOT
ATOM      1  C   UNL     1      35.322 -16.674 -21.431  0.00  0.00    -0.042 C 
ATOM      2  C   UNL     1      35.210 -16.288 -22.766  0.00  0.00    -0.006 C 
ATOM      3  C   UNL     1      34.945 -15.794 -20.417  0.00  0.00    -0.006 C 
ATOM      4  C   UNL     1      34.346 -14.140 -22.074  0.00  0.00    -0.000 C 
ATOM      5  C   UNL     1      34.722 -15.021 -23.088  0.00  0.00    -0.000 C 
ATOM      6  C   UNL     1      34.458 -14.527 -20.738  0.00  0.00    -0.000 C 
ENDROOT
BRANCH   4   7
ATOM      7  C   UNL     1      33.840 -12.828 -22.407  0.00  0.00    +0.000 C 
ATOM      8  C   UNL     1      32.886 -12.220 -21.590  0.00  0.00    +0.005 C 
ATOM      9  C   UNL     1      34.304 -12.170 -23.545  0.00  0.00    +0.000 C 
ATOM     10  C   UNL     1      32.397 -10.953 -21.912  0.00  0.00    +0.053 C 
ATOM     11  C   UNL     1      33.815 -10.903 -23.867  0.00  0.00    +0.000 C 
ATOM     12  C   UNL     1      32.862 -10.295 -23.051  0.00  0.00    +0.005 C 
BRANCH  10  15
ATOM     13  O   UNL     1      31.591  -9.185 -20.581  0.00  0.00    -0.270 OA
ATOM     14  N   UNL     1      30.225 -11.013 -20.810  0.00  0.00    -0.325 N 
ATOM     15  C   UNL     1      31.404 -10.318 -21.060  0.00  0.00    +0.243 C 
ATOM     16  H   UNL     1      29.531 -10.615 -20.237  0.00  0.00    +0.145 HD
ATOM     17  H   UNL     1      30.085 -11.904 -21.206  0.00  0.00    +0.145 HD
ENDBRANCH  10  15
ENDBRANCH   4   7
BRANCH   1  18
ATOM     18  C   UNL     1      35.842 -18.028 -21.087  0.00  0.00    -0.038 C 
BRANCH  18  19
ATOM     19  N   UNL     1      37.133 -18.311 -21.749  0.00  0.00    +0.384 N 
ATOM     20  H   UNL     1      37.895 -17.931 -21.187  0.00  0.00    -0.089 HD
ATOM     21  H   UNL     1      37.144 -17.877 -22.673  0.00  0.00    -0.089 HD
ATOM     22  H   UNL     1      37.253 -19.319 -21.846  0.00  0.00    -0.089 HD
ENDBRANCH  18  19
BRANCH  18  23
ATOM     23  C   UNL     1      34.865 -19.193 -21.422  0.00  0.00    +0.011 C 
BRANCH  23  26
ATOM     24  F   UNL     1      32.362 -20.151 -20.496  0.00  0.00    -0.205 F 
ATOM     25  F   UNL     1      36.834 -22.053 -17.987  0.00  0.00    -0.204 F 
ATOM     26  C   UNL     1      34.726 -20.185 -20.289  0.00  0.00    +0.006 C 
ATOM     27  C   UNL     1      33.462 -20.613 -19.886  0.00  0.00    +0.136 C 
ATOM     28  C   UNL     1      35.866 -20.671 -19.649  0.00  0.00    +0.028 C 
ATOM     29  C   UNL     1      35.741 -21.586 -18.603  0.00  0.00    +0.140 C 
ATOM     30  C   UNL     1      33.337 -21.528 -18.840  0.00  0.00    +0.032 C 
ATOM     31  C   UNL     1      34.476 -22.015 -18.199  0.00  0.00    +0.032 C 
ENDBRANCH  23  26
ENDBRANCH  18  23
ENDBRANCH   1  18
TORSDOF 6
ENDMDL
MODEL 3
REMARK VINA RESULT:     -11.6      4.546      9.625
REMARK  Name = 24832041
REMARK  6 active torsions:
REMARK  status: ('A' for Active; 'I' for Inactive)
REMARK    1  A    between atoms: C_1  and  C_18
REMARK    2  A    between atoms: C_4  and  C_7
REMARK    3  A    between atoms: C_10  and  C_15
REMARK    4  A    between atoms: C_18  and  N_19
REMARK    5  A    between atoms: C_18  and  C_23
REMARK    6  A    between atoms: C_23  and  C_26
REMARK                            x       y       z     vdW  Elec       q    Type
REMARK                         _______ _______ _______ _____ _____    ______ ____
ROOT
ATOM      1  C   UNL     1      35.373 -16.858 -21.303  0.00  0.00    -0.042 C 
ATOM      2  C   UNL     1      35.008 -16.109 -20.185  0.00  0.00    -0.006 C 
ATOM      3  C   UNL     1      35.138 -16.358 -22.584  0.00  0.00    -0.006 C 
ATOM      4  C   UNL     1      34.173 -14.359 -21.628  0.00  0.00    -0.000 C 
ATOM      5  C   UNL     1      34.408 -14.860 -20.347  0.00  0.00    -0.000 C 
ATOM      6  C   UNL     1      34.538 -15.109 -22.747  0.00  0.00    -0.000 C 
ENDROOT
BRANCH   4   7
ATOM      7  C   UNL     1      33.552 -13.065 -21.796  0.00  0.00    +0.000 C 
ATOM      8  C   UNL     1      34.138 -12.113 -22.631  0.00  0.00    +0.005 C 
ATOM      9  C   UNL     1      32.368 -12.767 -21.122  0.00  0.00    +0.000 C 
ATOM     10  C   UNL     1      33.539 -10.863 -22.793  0.00  0.00    +0.053 C 
ATOM     11  C   UNL     1      31.769 -11.517 -21.284  0.00  0.00    +0.000 C 
ATOM     12  C   UNL     1      32.354 -10.565 -22.119  0.00  0.00    +0.005 C 
BRANCH  10  15
ATOM     13  O   UNL     1      33.828  -8.671 -23.604  0.00  0.00    -0.270 OA
ATOM     14  N   UNL     1      35.117 -10.307 -24.563  0.00  0.00    -0.325 N 
ATOM     15  C   UNL     1      34.147  -9.872 -23.665  0.00  0.00    +0.243 C 
ATOM     16  H   UNL     1      35.550  -9.664 -25.171  0.00  0.00    +0.145 HD
ATOM     17  H   UNL     1      35.370 -11.258 -24.592  0.00  0.00    +0.145 HD
ENDBRANCH  10  15
ENDBRANCH   4   7
BRANCH   1  18
ATOM     18  C   UNL     1      36.015 -18.192 -21.131  0.00  0.00    -0.038 C 
BRANCH  18  19
ATOM     19  N   UNL     1      37.237 -18.330 -21.952  0.00  0.00    +0.384 N 
ATOM     20  H   UNL     1      37.418 -19.318 -22.131  0.00  0.00    -0.089 HD
ATOM     21  H   UNL     1      38.030 -17.924 -21.453  0.00  0.00    -0.089 HD
ATOM     22  H   UNL     1      37.108 -17.843 -22.839  0.00  0.00    -0.089 HD
ENDBRANCH  18  19
BRANCH  18  23
ATOM     23  C   UNL     1      35.083 -19.397 -21.452  0.00  0.00    +0.011 C 
BRANCH  23  26
ATOM     24  F   UNL     1      32.533 -20.239 -20.541  0.00  0.00    -0.205 F 
ATOM     25  F   UNL     1      36.889 -22.102 -17.809  0.00  0.00    -0.204 F 
ATOM     26  C   UNL     1      34.890 -20.318 -20.269  0.00  0.00    +0.006 C 
ATOM     27  C   UNL     1      33.605 -20.692 -19.877  0.00  0.00    +0.136 C 
ATOM     28  C   UNL     1      36.000 -20.794 -19.572  0.00  0.00    +0.028 C 
ATOM     29  C   UNL     1      35.825 -21.645 -18.479  0.00  0.00    +0.140 C 
ATOM     30  C   UNL     1      33.430 -21.543 -18.784  0.00  0.00    +0.032 C 
ATOM     31  C   UNL     1      34.539 -22.019 -18.086  0.00  0.00    +0.032 C 
ENDBRANCH  23  26
ENDBRANCH  18  23
ENDBRANCH   1  18
TORSDOF 6
ENDMDL
MODEL 4
REMARK VINA RESULT:     -11.5      2.233      2.830
REMARK  Name = 24832041
REMARK  6 active torsions:
REMARK  status: ('A' for Active; 'I' for Inactive)
REMARK    1  A    between atoms: C_1  and  C_18
REMARK    2  A    between atoms: C_4  and  C_7
REMARK    3  A    between atoms: C_10  and  C_15
REMARK    4  A    between atoms: C_18  and  N_19
REMARK    5  A    between atoms: C_18  and  C_23
REMARK    6  A    between atoms: C_23  and  C_26
REMARK                            x       y       z     vdW  Elec       q    Type
REMARK                         _______ _______ _______ _____ _____    ______ ____
ROOT
ATOM      1  C   UNL     1      34.352 -19.663 -21.185  0.00  0.00    -0.042 C 
ATOM      2  C   UNL     1      35.427 -20.234 -20.503  0.00  0.00    -0.006 C 
ATOM      3  C   UNL     1      33.049 -19.879 -20.737  0.00  0.00    -0.006 C 
ATOM      4  C   UNL     1      33.895 -21.238 -18.926  0.00  0.00    -0.000 C 
ATOM      5  C   UNL     1      35.199 -21.021 -19.375  0.00  0.00    -0.000 C 
ATOM      6  C   UNL     1      32.820 -20.666 -19.609  0.00  0.00    -0.000 C 
ENDROOT
BRANCH   4   7
ATOM      7  C   UNL     1      33.659 -22.053 -17.756  0.00  0.00    +0.000 C 
ATOM      8  C   UNL     1      32.355 -22.264 -17.305  0.00  0.00    +0.005 C 
ATOM      9  C   UNL     1      34.733 -22.627 -17.078  0.00  0.00    +0.000 C 
ATOM     10  C   UNL     1      32.127 -23.051 -16.176  0.00  0.00    +0.053 C 
ATOM     11  C   UNL     1      34.505 -23.413 -15.948  0.00  0.00    +0.000 C 
ATOM     12  C   UNL     1      33.202 -23.625 -15.497  0.00  0.00    +0.005 C 
BRANCH  10  15
ATOM     13  O   UNL     1      30.542 -23.859 -14.632  0.00  0.00    -0.270 OA
ATOM     14  N   UNL     1      29.725 -22.795 -16.492  0.00  0.00    -0.325 N 
ATOM     15  C   UNL     1      30.769 -23.274 -15.706  0.00  0.00    +0.243 C 
ATOM     16  H   UNL     1      28.793 -22.928 -16.206  0.00  0.00    +0.145 HD
ATOM     17  H   UNL     1      29.919 -22.322 -17.333  0.00  0.00    +0.145 HD
ENDBRANCH  10  15
ENDBRANCH   4   7
BRANCH   1  18
ATOM     18  C   UNL     1      34.595 -18.821 -22.391  0.00  0.00    -0.038 C 
BRANCH  18  19
ATOM     19  N   UNL     1      34.898 -19.638 -23.586  0.00  0.00    +0.384 N 
ATOM     20  H   UNL     1      34.983 -20.618 -23.316  0.00  0.00    -0.089 HD
ATOM     21  H   UNL     1      35.775 -19.322 -24.000  0.00  0.00    -0.089 HD
ATOM     22  H   UNL     1      34.145 -19.538 -24.266  0.00  0.00    -0.089 HD
ENDBRANCH  18  19
BRANCH  18  23
ATOM     23  C   UNL     1      35.737 -17.777 -22.222  0.00  0.00    +0.011 C 
BRANCH  23  26
ATOM     24  F   UNL     1      35.321 -16.622 -19.665  0.00  0.00    -0.205 F 
ATOM     25  F   UNL     1      34.158 -13.517 -24.015  0.00  0.00    -0.204 F 
ATOM     26  C   UNL     1      35.219 -16.370 -22.023  0.00  0.00    +0.006 C 
ATOM     27  C   UNL     1      35.038 -15.867 -20.736  0.00  0.00    +0.136 C 
ATOM     28  C   UNL     1      34.922 -15.577 -23.132  0.00  0.00    +0.028 C 
ATOM     29  C   UNL     1      34.444 -14.279 -22.952  0.00  0.00    +0.140 C 
ATOM     30  C   UNL     1      34.560 -14.569 -20.556  0.00  0.00    +0.032 C 
ATOM     31  C   UNL     1      34.263 -13.774 -21.663  0.00  0.00    +0.032 C 
ENDBRANCH  23  26
ENDBRANCH  18  23
ENDBRANCH   1  18
TORSDOF 6
ENDMDL
MODEL 5
REMARK VINA RESULT:     -11.5      4.301      9.234
REMARK  Name = 24832041
REMARK  6 active torsions:
REMARK  status: ('A' for Active; 'I' for Inactive)
REMARK    1  A    between atoms: C_1  and  C_18
REMARK    2  A    between atoms: C_4  and  C_7
REMARK    3  A    between atoms: C_10  and  C_15
REMARK    4  A    between atoms: C_18  and  N_19
REMARK    5  A    between atoms: C_18  and  C_23
REMARK    6  A    between atoms: C_23  and  C_26
REMARK                            x       y       z     vdW  Elec       q    Type
REMARK                         _______ _______ _______ _____ _____    ______ ____
ROOT
ATOM      1  C   UNL     1      34.200 -22.383 -17.684  0.00  0.00    -0.042 C 
ATOM      2  C   UNL     1      33.226 -21.807 -18.499  0.00  0.00    -0.006 C 
ATOM      3  C   UNL     1      35.546 -22.069 -17.877  0.00  0.00    -0.006 C 
ATOM      4  C   UNL     1      34.942 -20.604 -19.702  0.00  0.00    -0.000 C 
ATOM      5  C   UNL     1      33.596 -20.918 -19.508  0.00  0.00    -0.000 C 
ATOM      6  C   UNL     1      35.917 -21.181 -18.886  0.00  0.00    -0.000 C 
ENDROOT
BRANCH   4   7
ATOM      7  C   UNL     1      35.326 -19.682 -20.747  0.00  0.00    +0.000 C 
ATOM      8  C   UNL     1      34.464 -19.443 -21.818  0.00  0.00    +0.005 C 
ATOM      9  C   UNL     1      36.558 -19.032 -20.686  0.00  0.00    +0.000 C 
ATOM     10  C   UNL     1      34.834 -18.553 -22.827  0.00  0.00    +0.053 C 
ATOM     11  C   UNL     1      36.928 -18.142 -21.695  0.00  0.00    +0.000 C 
ATOM     12  C   UNL     1      36.067 -17.903 -22.765  0.00  0.00    +0.005 C 
BRANCH  10  15
ATOM     13  O   UNL     1      33.006 -19.082 -24.214  0.00  0.00    -0.270 OA
ATOM     14  N   UNL     1      34.137 -17.145 -24.688  0.00  0.00    -0.325 N 
ATOM     15  C   UNL     1      33.935 -18.302 -23.942  0.00  0.00    +0.243 C 
ATOM     16  H   UNL     1      33.549 -16.942 -25.451  0.00  0.00    +0.145 HD
ATOM     17  H   UNL     1      34.869 -16.529 -24.454  0.00  0.00    +0.145 HD
ENDBRANCH  10  15
ENDBRANCH   4   7
BRANCH   1  18
ATOM     18  C   UNL     1      33.805 -23.332 -16.605  0.00  0.00    -0.038 C 
BRANCH  18  19
ATOM     19  N   UNL     1      32.336 -23.420 -16.454  0.00  0.00    +0.384 N 
ATOM     20  H   UNL     1      32.111 -24.007 -15.650  0.00  0.00    -0.089 HD
ATOM     21  H   UNL     1      31.932 -23.828 -17.297  0.00  0.00    -0.089 HD
ATOM     22  H   UNL     1      31.952 -22.487 -16.310  0.00  0.00    -0.089 HD
ENDBRANCH  18  19
BRANCH  18  23
ATOM     23  C   UNL     1      34.412 -23.004 -15.210  0.00  0.00    +0.011 C 
BRANCH  23  26
ATOM     24  F   UNL     1      37.014 -21.905 -14.957  0.00  0.00    -0.205 F 
ATOM     25  F   UNL     1      36.515 -27.305 -14.242  0.00  0.00    -0.204 F 
ATOM     26  C   UNL     1      35.634 -23.835 -14.893  0.00  0.00    +0.006 C 
ATOM     27  C   UNL     1      36.884 -23.228 -14.783  0.00  0.00    +0.136 C 
ATOM     28  C   UNL     1      35.508 -25.212 -14.709  0.00  0.00    +0.028 C 
ATOM     29  C   UNL     1      36.634 -25.982 -14.417  0.00  0.00    +0.140 C 
ATOM     30  C   UNL     1      38.010 -23.998 -14.491  0.00  0.00    +0.032 C 
ATOM     31  C   UNL     1      37.886 -25.375 -14.307  0.00  0.00    +0.032 C 
ENDBRANCH  23  26
ENDBRANCH  18  23
ENDBRANCH   1  18
TORSDOF 6
ENDMDL
MODEL 6
REMARK VINA RESULT:     -11.2      4.091      9.121
REMARK  Name = 24832041
REMARK  6 active torsions:
REMARK  status: ('A' for Active; 'I' for Inactive)
REMARK    1  A    between atoms: C_1  and  C_18
REMARK    2  A    between atoms: C_4  and  C_7
REMARK    3  A    between atoms: C_10  and  C_15
REMARK    4  A    between atoms: C_18  and  N_19
REMARK    5  A    between atoms: C_18  and  C_23
REMARK    6  A    between atoms: C_23  and  C_26
REMARK                            x       y       z     vdW  Elec       q    Type
REMARK                         _______ _______ _______ _____ _____    ______ ____
ROOT
ATOM      1  C   UNL     1      34.378 -22.148 -17.980  0.00  0.00    -0.042 C 
ATOM      2  C   UNL     1      35.648 -21.724 -18.373  0.00  0.00    -0.006 C 
ATOM      3  C   UNL     1      33.246 -21.643 -18.621  0.00  0.00    -0.006 C 
ATOM      4  C   UNL     1      34.654 -20.291 -20.046  0.00  0.00    -0.000 C 
ATOM      5  C   UNL     1      35.786 -20.797 -19.405  0.00  0.00    -0.000 C 
ATOM      6  C   UNL     1      33.384 -20.715 -19.652  0.00  0.00    -0.000 C 
ENDROOT
BRANCH   4   7
ATOM      7  C   UNL     1      34.797 -19.330 -21.116  0.00  0.00    +0.000 C 
ATOM      8  C   UNL     1      34.861 -17.967 -20.825  0.00  0.00    +0.005 C 
ATOM      9  C   UNL     1      34.871 -19.765 -22.439  0.00  0.00    +0.000 C 
ATOM     10  C   UNL     1      34.999 -17.039 -21.858  0.00  0.00    +0.053 C 
ATOM     11  C   UNL     1      35.009 -18.837 -23.471  0.00  0.00    +0.000 C 
ATOM     12  C   UNL     1      35.073 -17.475 -23.181  0.00  0.00    +0.005 C 
BRANCH  10  15
ATOM     13  O   UNL     1      35.291 -14.777 -22.444  0.00  0.00    -0.270 OA
ATOM     14  N   UNL     1      34.860 -15.226 -20.238  0.00  0.00    -0.325 N 
ATOM     15  C   UNL     1      35.069 -15.618 -21.556  0.00  0.00    +0.243 C 
ATOM     16  H   UNL     1      34.900 -14.272 -19.995  0.00  0.00    +0.145 HD
ATOM     17  H   UNL     1      34.672 -15.901 -19.546  0.00  0.00    +0.145 HD
ENDBRANCH  10  15
ENDBRANCH   4   7
BRANCH   1  18
ATOM     18  C   UNL     1      34.230 -23.140 -16.878  0.00  0.00    -0.038 C 
BRANCH  18  19
ATOM     19  N   UNL     1      32.814 -23.486 -16.630  0.00  0.00    +0.384 N 
ATOM     20  H   UNL     1      32.398 -22.794 -16.007  0.00  0.00    -0.089 HD
ATOM     21  H   UNL     1      32.760 -24.409 -16.197  0.00  0.00    -0.089 HD
ATOM     22  H   UNL     1      32.306 -23.495 -17.514  0.00  0.00    -0.089 HD
ENDBRANCH  18  19
BRANCH  18  23
ATOM     23  C   UNL     1      34.858 -22.693 -15.526  0.00  0.00    +0.011 C 
BRANCH  23  26
ATOM     24  F   UNL     1      37.555 -21.816 -15.503  0.00  0.00    -0.205 F 
ATOM     25  F   UNL     1      36.598 -26.956 -13.896  0.00  0.00    -0.204 F 
ATOM     26  C   UNL     1      36.010 -23.572 -15.096  0.00  0.00    +0.006 C 
ATOM     27  C   UNL     1      37.313 -23.074 -15.110  0.00  0.00    +0.136 C 
ATOM     28  C   UNL     1      35.768 -24.883 -14.686  0.00  0.00    +0.028 C 
ATOM     29  C   UNL     1      36.829 -25.697 -14.289  0.00  0.00    +0.140 C 
ATOM     30  C   UNL     1      38.374 -23.888 -14.713  0.00  0.00    +0.032 C 
ATOM     31  C   UNL     1      38.133 -25.199 -14.302  0.00  0.00    +0.032 C 
ENDBRANCH  23  26
ENDBRANCH  18  23
ENDBRANCH   1  18
TORSDOF 6
ENDMDL
MODEL 7
REMARK VINA RESULT:     -11.2      4.816      9.449
REMARK  Name = 24832041
REMARK  6 active torsions:
REMARK  status: ('A' for Active; 'I' for Inactive)
REMARK    1  A    between atoms: C_1  and  C_18
REMARK    2  A    between atoms: C_4  and  C_7
REMARK    3  A    between atoms: C_10  and  C_15
REMARK    4  A    between atoms: C_18  and  N_19
REMARK    5  A    between atoms: C_18  and  C_23
REMARK    6  A    between atoms: C_23  and  C_26
REMARK                            x       y       z     vdW  Elec       q    Type
REMARK                         _______ _______ _______ _____ _____    ______ ____
ROOT
ATOM      1  C   UNL     1      33.761 -21.991 -18.364  0.00  0.00    -0.042 C 
ATOM      2  C   UNL     1      32.772 -21.240 -18.999  0.00  0.00    -0.006 C 
ATOM      3  C   UNL     1      35.105 -21.777 -18.673  0.00  0.00    -0.006 C 
ATOM      4  C   UNL     1      34.470 -20.061 -20.251  0.00  0.00    -0.000 C 
ATOM      5  C   UNL     1      33.126 -20.275 -19.942  0.00  0.00    -0.000 C 
ATOM      6  C   UNL     1      35.459 -20.813 -19.616  0.00  0.00    -0.000 C 
ENDROOT
BRANCH   4   7
ATOM      7  C   UNL     1      34.836 -19.060 -21.228  0.00  0.00    +0.000 C 
ATOM      8  C   UNL     1      34.106 -18.940 -22.411  0.00  0.00    +0.005 C 
ATOM      9  C   UNL     1      35.920 -18.216 -20.989  0.00  0.00    +0.000 C 
ATOM     10  C   UNL     1      34.460 -17.975 -23.354  0.00  0.00    +0.053 C 
ATOM     11  C   UNL     1      36.274 -17.251 -21.932  0.00  0.00    +0.000 C 
ATOM     12  C   UNL     1      35.544 -17.130 -23.114  0.00  0.00    +0.005 C 
BRANCH  10  15
ATOM     13  O   UNL     1      33.910 -16.919 -25.386  0.00  0.00    -0.270 OA
ATOM     14  N   UNL     1      32.731 -18.811 -24.853  0.00  0.00    -0.325 N 
ATOM     15  C   UNL     1      33.698 -17.847 -24.586  0.00  0.00    +0.243 C 
ATOM     16  H   UNL     1      32.195 -18.757 -25.677  0.00  0.00    +0.145 HD
ATOM     17  H   UNL     1      32.582 -19.549 -24.217  0.00  0.00    +0.145 HD
ENDBRANCH  10  15
ENDBRANCH   4   7
BRANCH   1  18
ATOM     18  C   UNL     1      33.383 -23.022 -17.356  0.00  0.00    -0.038 C 
BRANCH  18  19
ATOM     19  N   UNL     1      33.360 -24.382 -17.935  0.00  0.00    +0.384 N 
ATOM     20  H   UNL     1      32.427 -24.782 -17.828  0.00  0.00    -0.089 HD
ATOM     21  H   UNL     1      34.039 -24.970 -17.450  0.00  0.00    -0.089 HD
ATOM     22  H   UNL     1      33.597 -24.335 -18.925  0.00  0.00    -0.089 HD
ENDBRANCH  18  19
BRANCH  18  23
ATOM     23  C   UNL     1      32.011 -22.769 -16.666  0.00  0.00    +0.011 C 
BRANCH  23  26
ATOM     24  F   UNL     1      29.581 -23.997 -15.871  0.00  0.00    -0.205 F 
ATOM     25  F   UNL     1      33.844 -24.491 -12.480  0.00  0.00    -0.204 F 
ATOM     26  C   UNL     1      31.856 -23.536 -15.373  0.00  0.00    +0.006 C 
ATOM     27  C   UNL     1      30.630 -24.115 -15.045  0.00  0.00    +0.136 C 
ATOM     28  C   UNL     1      32.942 -23.663 -14.507  0.00  0.00    +0.028 C 
ATOM     29  C   UNL     1      32.802 -24.369 -13.312  0.00  0.00    +0.140 C 
ATOM     30  C   UNL     1      30.491 -24.821 -13.850  0.00  0.00    +0.032 C 
ATOM     31  C   UNL     1      31.576 -24.949 -12.984  0.00  0.00    +0.032 C 
ENDBRANCH  23  26
ENDBRANCH  18  23
ENDBRANCH   1  18
TORSDOF 6
ENDMDL
MODEL 8
REMARK VINA RESULT:     -11.1      2.785      4.305
REMARK  Name = 24832041
REMARK  6 active torsions:
REMARK  status: ('A' for Active; 'I' for Inactive)
REMARK    1  A    between atoms: C_1  and  C_18
REMARK    2  A    between atoms: C_4  and  C_7
REMARK    3  A    between atoms: C_10  and  C_15
REMARK    4  A    between atoms: C_18  and  N_19
REMARK    5  A    between atoms: C_18  and  C_23
REMARK    6  A    between atoms: C_23  and  C_26
REMARK                            x       y       z     vdW  Elec       q    Type
REMARK                         _______ _______ _______ _____ _____    ______ ____
ROOT
ATOM      1  C   UNL     1      34.801 -17.236 -23.627  0.00  0.00    -0.042 C 
ATOM      2  C   UNL     1      34.286 -18.530 -23.690  0.00  0.00    -0.006 C 
ATOM      3  C   UNL     1      35.522 -16.827 -22.505  0.00  0.00    -0.006 C 
ATOM      4  C   UNL     1      35.213 -19.007 -21.510  0.00  0.00    -0.000 C 
ATOM      5  C   UNL     1      34.491 -19.416 -22.633  0.00  0.00    -0.000 C 
ATOM      6  C   UNL     1      35.728 -17.712 -21.447  0.00  0.00    -0.000 C 
ENDROOT
BRANCH   4   7
ATOM      7  C   UNL     1      35.426 -19.925 -20.414  0.00  0.00    +0.000 C 
ATOM      8  C   UNL     1      34.390 -20.757 -19.989  0.00  0.00    +0.005 C 
ATOM      9  C   UNL     1      36.668 -19.980 -19.782  0.00  0.00    +0.000 C 
ATOM     10  C   UNL     1      34.596 -21.643 -18.931  0.00  0.00    +0.053 C 
ATOM     11  C   UNL     1      36.873 -20.866 -18.724  0.00  0.00    +0.000 C 
ATOM     12  C   UNL     1      35.838 -21.697 -18.299  0.00  0.00    +0.005 C 
BRANCH  10  15
ATOM     13  O   UNL     1      33.657 -23.747 -18.441  0.00  0.00    -0.270 OA
ATOM     14  N   UNL     1      32.321 -21.915 -18.102  0.00  0.00    -0.325 N 
ATOM     15  C   UNL     1      33.517 -22.512 -18.489  0.00  0.00    +0.243 C 
ATOM     16  H   UNL     1      31.568 -22.471 -17.798  0.00  0.00    +0.145 HD
ATOM     17  H   UNL     1      32.227 -20.935 -18.133  0.00  0.00    +0.145 HD
ENDBRANCH  10  15
ENDBRANCH   4   7
BRANCH   1  18
ATOM     18  C   UNL     1      34.582 -16.289 -24.757  0.00  0.00    -0.038 C 
BRANCH  18  19
ATOM     19  N   UNL     1      35.642 -15.260 -24.831  0.00  0.00    +0.384 N 
ATOM     20  H   UNL     1      36.250 -15.338 -24.016  0.00  0.00    -0.089 HD
ATOM     21  H   UNL     1      35.214 -14.333 -24.848  0.00  0.00    -0.089 HD
ATOM     22  H   UNL     1      36.191 -15.396 -25.679  0.00  0.00    -0.089 HD
ENDBRANCH  18  19
BRANCH  18  23
ATOM     23  C   UNL     1      33.207 -15.561 -24.725  0.00  0.00    +0.011 C 
BRANCH  23  26
ATOM     24  F   UNL     1      33.649 -13.295 -26.373  0.00  0.00    -0.205 F 
ATOM     25  F   UNL     1      33.135 -12.402 -21.001  0.00  0.00    -0.204 F 
ATOM     26  C   UNL     1      33.303 -14.152 -24.186  0.00  0.00    +0.006 C 
ATOM     27  C   UNL     1      33.522 -13.084 -25.055  0.00  0.00    +0.136 C 
ATOM     28  C   UNL     1      33.172 -13.923 -22.817  0.00  0.00    +0.028 C 
ATOM     29  C   UNL     1      33.260 -12.623 -22.316  0.00  0.00    +0.140 C 
ATOM     30  C   UNL     1      33.610 -11.785 -24.554  0.00  0.00    +0.032 C 
ATOM     31  C   UNL     1      33.479 -11.554 -23.185  0.00  0.00    +0.032 C 
ENDBRANCH  23  26
ENDBRANCH  18  23
ENDBRANCH   1  18
TORSDOF 6
ENDMDL
MODEL 9
REMARK VINA RESULT:     -11.1      2.770      4.451
REMARK  Name = 24832041
REMARK  6 active torsions:
REMARK  status: ('A' for Active; 'I' for Inactive)
REMARK    1  A    between atoms: C_1  and  C_18
REMARK    2  A    between atoms: C_4  and  C_7
REMARK    3  A    between atoms: C_10  and  C_15
REMARK    4  A    between atoms: C_18  and  N_19
REMARK    5  A    between atoms: C_18  and  C_23
REMARK    6  A    between atoms: C_23  and  C_26
REMARK                            x       y       z     vdW  Elec       q    Type
REMARK                         _______ _______ _______ _____ _____    ______ ____
ROOT
ATOM      1  C   UNL     1      34.546 -16.481 -22.971  0.00  0.00    -0.042 C 
ATOM      2  C   UNL     1      35.062 -16.221 -21.702  0.00  0.00    -0.006 C 
ATOM      3  C   UNL     1      34.311 -17.796 -23.373  0.00  0.00    -0.006 C 
ATOM      4  C   UNL     1      35.110 -18.592 -21.236  0.00  0.00    -0.000 C 
ATOM      5  C   UNL     1      35.344 -17.276 -20.834  0.00  0.00    -0.000 C 
ATOM      6  C   UNL     1      34.593 -18.851 -22.506  0.00  0.00    -0.000 C 
ENDROOT
BRANCH   4   7
ATOM      7  C   UNL     1      35.402 -19.685 -20.336  0.00  0.00    +0.000 C 
ATOM      8  C   UNL     1      34.382 -20.547 -19.931  0.00  0.00    +0.005 C 
ATOM      9  C   UNL     1      36.703 -19.879 -19.873  0.00  0.00    +0.000 C 
ATOM     10  C   UNL     1      34.663 -21.602 -19.063  0.00  0.00    +0.053 C 
ATOM     11  C   UNL     1      36.984 -20.934 -19.004  0.00  0.00    +0.000 C 
ATOM     12  C   UNL     1      35.965 -21.795 -18.599  0.00  0.00    +0.005 C 
BRANCH  10  15
ATOM     13  O   UNL     1      33.764 -23.734 -18.627  0.00  0.00    -0.270 OA
ATOM     14  N   UNL     1      32.396 -21.936 -18.237  0.00  0.00    -0.325 N 
ATOM     15  C   UNL     1      33.601 -22.501 -18.642  0.00  0.00    +0.243 C 
ATOM     16  H   UNL     1      31.654 -22.514 -17.946  0.00  0.00    +0.145 HD
ATOM     17  H   UNL     1      32.285 -20.958 -18.240  0.00  0.00    +0.145 HD
ENDBRANCH  10  15
ENDBRANCH   4   7
BRANCH   1  18
ATOM     18  C   UNL     1      34.243 -15.353 -23.899  0.00  0.00    -0.038 C 
BRANCH  18  19
ATOM     19  N   UNL     1      34.621 -15.666 -25.293  0.00  0.00    +0.384 N 
ATOM     20  H   UNL     1      33.808 -16.026 -25.795  0.00  0.00    -0.089 HD
ATOM     21  H   UNL     1      35.360 -16.370 -25.295  0.00  0.00    -0.089 HD
ATOM     22  H   UNL     1      34.956 -14.820 -25.753  0.00  0.00    -0.089 HD
ENDBRANCH  18  19
BRANCH  18  23
ATOM     23  C   UNL     1      34.917 -14.006 -23.509  0.00  0.00    +0.011 C 
BRANCH  23  26
ATOM     24  F   UNL     1      34.693 -11.308 -24.354  0.00  0.00    -0.205 F 
ATOM     25  F   UNL     1      31.407 -12.921 -20.290  0.00  0.00    -0.204 F 
ATOM     26  C   UNL     1      33.947 -13.023 -22.892  0.00  0.00    +0.006 C 
ATOM     27  C   UNL     1      33.891 -11.710 -23.358  0.00  0.00    +0.136 C 
ATOM     28  C   UNL     1      33.108 -13.433 -21.856  0.00  0.00    +0.028 C 
ATOM     29  C   UNL     1      32.212 -12.529 -21.285  0.00  0.00    +0.140 C 
ATOM     30  C   UNL     1      32.995 -10.806 -22.787  0.00  0.00    +0.032 C 
ATOM     31  C   UNL     1      32.156 -11.215 -21.751  0.00  0.00    +0.032 C 
ENDBRANCH  23  26
ENDBRANCH  18  23
ENDBRANCH   1  18
TORSDOF 6
ENDMDL
