MODEL 1
REMARK VINA RESULT:     -12.5      0.000      0.000
REMARK  Name = 58212050
REMARK  2 active torsions:
REMARK  status: ('A' for Active; 'I' for Inactive)
REMARK    1  A    between atoms: C_2  and  C_13
REMARK    2  A    between atoms: C_10  and  C_26
REMARK                            x       y       z     vdW  Elec       q    Type
REMARK                         _______ _______ _______ _____ _____    ______ ____
ROOT
ATOM      1  N   UNL     1      36.909 -22.990 -16.260  0.00  0.00    +0.389 N 
ATOM      2  C   UNL     1      34.466 -23.191 -16.602  0.00  0.00    +0.023 C 
ATOM      3  C   UNL     1      35.618 -23.113 -15.572  0.00  0.00    -0.068 C 
ATOM      4  C   UNL     1      34.601 -22.164 -17.720  0.00  0.00    -0.026 C 
ATOM      5  C   UNL     1      35.816 -21.476 -17.900  0.00  0.00    -0.047 C 
ATOM      6  C   UNL     1      36.977 -21.696 -16.957  0.00  0.00    -0.050 C 
ATOM      7  C   UNL     1      33.558 -21.949 -18.636  0.00  0.00    -0.004 C 
ATOM      8  C   UNL     1      35.941 -20.541 -18.938  0.00  0.00    -0.005 C 
ATOM      9  C   UNL     1      38.015 -23.114 -15.310  0.00  0.00    -0.100 C 
ATOM     10  C   UNL     1      34.885 -20.318 -19.821  0.00  0.00    +0.019 C 
ATOM     11  C   UNL     1      33.697 -21.027 -19.674  0.00  0.00    +0.001 C 
ATOM     12  H   UNL     1      36.993 -23.744 -16.942  0.00  0.00    -0.079 HD
ENDROOT
BRANCH   2  13
ATOM     13  C   UNL     1      33.132 -23.145 -15.867  0.00  0.00    -0.020 C 
ATOM     14  C   UNL     1      31.944 -23.006 -16.585  0.00  0.00    -0.004 C 
ATOM     15  C   UNL     1      33.100 -23.240 -14.479  0.00  0.00    -0.004 C 
ATOM     16  C   UNL     1      30.707 -22.961 -15.922  0.00  0.00    -0.000 C 
ATOM     17  C   UNL     1      30.674 -23.057 -14.511  0.00  0.00    -0.000 C 
ATOM     18  C   UNL     1      31.879 -23.197 -13.804  0.00  0.00    -0.000 C 
ATOM     19  C   UNL     1      29.502 -22.821 -16.630  0.00  0.00    -0.000 C 
ATOM     20  C   UNL     1      29.437 -23.011 -13.848  0.00  0.00    -0.000 C 
ATOM     21  C   UNL     1      28.281 -22.777 -15.955  0.00  0.00    -0.000 C 
ATOM     22  C   UNL     1      28.249 -22.872 -14.567  0.00  0.00    -0.000 C 
ENDBRANCH   2  13
BRANCH  10  26
ATOM     23  N   UNL     1      35.514 -18.151 -20.528  0.00  0.00    -0.147 NA
ATOM     24  N   UNL     1      35.678 -17.189 -21.475  0.00  0.00    -0.133 NA
ATOM     25  N   UNL     1      35.523 -16.465 -23.742  0.00  0.00    -0.341 N 
ATOM     26  C   UNL     1      35.028 -19.357 -20.892  0.00  0.00    +0.103 C 
ATOM     27  C   UNL     1      34.686 -19.667 -22.193  0.00  0.00    +0.024 C 
ATOM     28  C   UNL     1      34.853 -18.688 -23.157  0.00  0.00    +0.037 C 
ATOM     29  C   UNL     1      35.352 -17.465 -22.756  0.00  0.00    +0.147 C 
ATOM     30  H   UNL     1      35.876 -15.581 -23.490  0.00  0.00    +0.144 HD
ATOM     31  H   UNL     1      35.288 -16.653 -24.679  0.00  0.00    +0.144 HD
ENDBRANCH  10  26
TORSDOF 2
ENDMDL
MODEL 2
REMARK VINA RESULT:     -11.5      1.133      1.892
REMARK  Name = 58212050
REMARK  2 active torsions:
REMARK  status: ('A' for Active; 'I' for Inactive)
REMARK    1  A    between atoms: C_2  and  C_13
REMARK    2  A    between atoms: C_10  and  C_26
REMARK                            x       y       z     vdW  Elec       q    Type
REMARK                         _______ _______ _______ _____ _____    ______ ____
ROOT
ATOM      1  N   UNL     1      37.087 -22.523 -16.688  0.00  0.00    +0.389 N 
ATOM      2  C   UNL     1      34.692 -22.993 -17.102  0.00  0.00    +0.023 C 
ATOM      3  C   UNL     1      35.802 -22.809 -16.040  0.00  0.00    -0.068 C 
ATOM      4  C   UNL     1      34.736 -21.932 -18.194  0.00  0.00    -0.026 C 
ATOM      5  C   UNL     1      35.869 -21.105 -18.326  0.00  0.00    -0.047 C 
ATOM      6  C   UNL     1      37.023 -21.213 -17.356  0.00  0.00    -0.050 C 
ATOM      7  C   UNL     1      33.699 -21.816 -19.135  0.00  0.00    -0.004 C 
ATOM      8  C   UNL     1      35.911 -20.138 -19.341  0.00  0.00    -0.005 C 
ATOM      9  C   UNL     1      38.176 -22.542 -15.711  0.00  0.00    -0.100 C 
ATOM     10  C   UNL     1      34.860 -20.016 -20.248  0.00  0.00    +0.019 C 
ATOM     11  C   UNL     1      33.757 -20.860 -20.148  0.00  0.00    +0.001 C 
ATOM     12  H   UNL     1      37.274 -23.246 -17.383  0.00  0.00    -0.079 HD
ENDROOT
BRANCH   2  13
ATOM     13  C   UNL     1      33.344 -23.118 -16.403  0.00  0.00    -0.020 C 
ATOM     14  C   UNL     1      33.249 -23.792 -15.186  0.00  0.00    -0.004 C 
ATOM     15  C   UNL     1      32.207 -22.559 -16.980  0.00  0.00    -0.004 C 
ATOM     16  C   UNL     1      32.015 -23.916 -14.529  0.00  0.00    -0.000 C 
ATOM     17  C   UNL     1      30.859 -23.348 -15.116  0.00  0.00    -0.000 C 
ATOM     18  C   UNL     1      30.972 -22.673 -16.341  0.00  0.00    -0.000 C 
ATOM     19  C   UNL     1      31.902 -24.593 -13.303  0.00  0.00    -0.000 C 
ATOM     20  C   UNL     1      29.623 -23.473 -14.459  0.00  0.00    -0.000 C 
ATOM     21  C   UNL     1      30.666 -24.707 -12.665  0.00  0.00    -0.000 C 
ATOM     22  C   UNL     1      29.529 -24.148 -13.242  0.00  0.00    -0.000 C 
ENDBRANCH   2  13
BRANCH  10  26
ATOM     23  N   UNL     1      34.324 -19.366 -22.457  0.00  0.00    -0.147 NA
ATOM     24  N   UNL     1      34.333 -18.485 -23.494  0.00  0.00    -0.133 NA
ATOM     25  N   UNL     1      34.945 -16.371 -24.412  0.00  0.00    -0.341 N 
ATOM     26  C   UNL     1      34.917 -19.020 -21.295  0.00  0.00    +0.103 C 
ATOM     27  C   UNL     1      35.540 -17.803 -21.103  0.00  0.00    +0.024 C 
ATOM     28  C   UNL     1      35.550 -16.907 -22.158  0.00  0.00    +0.037 C 
ATOM     29  C   UNL     1      34.935 -17.288 -23.334  0.00  0.00    +0.147 C 
ATOM     30  H   UNL     1      34.516 -16.611 -25.265  0.00  0.00    +0.144 HD
ATOM     31  H   UNL     1      35.382 -15.495 -24.309  0.00  0.00    +0.144 HD
ENDBRANCH  10  26
TORSDOF 2
ENDMDL
MODEL 3
REMARK VINA RESULT:     -11.4      5.596     10.854
REMARK  Name = 58212050
REMARK  2 active torsions:
REMARK  status: ('A' for Active; 'I' for Inactive)
REMARK    1  A    between atoms: C_2  and  C_13
REMARK    2  A    between atoms: C_10  and  C_26
REMARK                            x       y       z     vdW  Elec       q    Type
REMARK                         _______ _______ _______ _____ _____    ______ ____
ROOT
ATOM      1  N   UNL     1      34.075 -14.043 -25.228  0.00  0.00    +0.389 N 
ATOM      2  C   UNL     1      34.120 -12.946 -23.009  0.00  0.00    +0.023 C 
ATOM      3  C   UNL     1      33.419 -13.035 -24.386  0.00  0.00    -0.068 C 
ATOM      4  C   UNL     1      34.418 -14.314 -22.408  0.00  0.00    -0.026 C 
ATOM      5  C   UNL     1      34.325 -15.469 -23.208  0.00  0.00    -0.047 C 
ATOM      6  C   UNL     1      33.871 -15.380 -24.647  0.00  0.00    -0.050 C 
ATOM      7  C   UNL     1      34.871 -14.440 -21.084  0.00  0.00    -0.004 C 
ATOM      8  C   UNL     1      34.614 -16.725 -22.654  0.00  0.00    -0.005 C 
ATOM      9  C   UNL     1      33.550 -13.998 -26.593  0.00  0.00    -0.100 C 
ATOM     10  C   UNL     1      35.033 -16.836 -21.329  0.00  0.00    +0.019 C 
ATOM     11  C   UNL     1      35.168 -15.693 -20.547  0.00  0.00    +0.001 C 
ATOM     12  H   UNL     1      35.074 -13.842 -25.266  0.00  0.00    -0.079 HD
ENDROOT
BRANCH   2  13
ATOM     13  C   UNL     1      33.320 -12.022 -22.098  0.00  0.00    -0.020 C 
ATOM     14  C   UNL     1      33.395 -10.639 -22.269  0.00  0.00    -0.004 C 
ATOM     15  C   UNL     1      32.517 -12.558 -21.096  0.00  0.00    -0.004 C 
ATOM     16  C   UNL     1      32.665  -9.774 -21.438  0.00  0.00    -0.000 C 
ATOM     17  C   UNL     1      31.849 -10.319 -20.419  0.00  0.00    -0.000 C 
ATOM     18  C   UNL     1      31.785 -11.713 -20.261  0.00  0.00    -0.000 C 
ATOM     19  C   UNL     1      32.729  -8.380 -21.596  0.00  0.00    -0.000 C 
ATOM     20  C   UNL     1      31.119  -9.454 -19.587  0.00  0.00    -0.000 C 
ATOM     21  C   UNL     1      31.998  -7.535 -20.760  0.00  0.00    -0.000 C 
ATOM     22  C   UNL     1      31.194  -8.071 -19.758  0.00  0.00    -0.000 C 
ENDBRANCH   2  13
BRANCH  10  26
ATOM     23  N   UNL     1      36.560 -18.259 -20.218  0.00  0.00    -0.147 NA
ATOM     24  N   UNL     1      36.924 -19.449 -19.670  0.00  0.00    -0.133 NA
ATOM     25  N   UNL     1      36.427 -21.716 -19.123  0.00  0.00    -0.341 N 
ATOM     26  C   UNL     1      35.335 -18.136 -20.771  0.00  0.00    +0.103 C 
ATOM     27  C   UNL     1      34.421 -19.170 -20.808  0.00  0.00    +0.024 C 
ATOM     28  C   UNL     1      34.791 -20.381 -20.251  0.00  0.00    +0.037 C 
ATOM     29  C   UNL     1      36.049 -20.478 -19.693  0.00  0.00    +0.147 C 
ATOM     30  H   UNL     1      37.318 -21.819 -18.717  0.00  0.00    +0.144 HD
ATOM     31  H   UNL     1      35.800 -22.475 -19.134  0.00  0.00    +0.144 HD
ENDBRANCH  10  26
TORSDOF 2
ENDMDL
MODEL 4
REMARK VINA RESULT:     -10.0      2.239      5.780
REMARK  Name = 58212050
REMARK  2 active torsions:
REMARK  status: ('A' for Active; 'I' for Inactive)
REMARK    1  A    between atoms: C_2  and  C_13
REMARK    2  A    between atoms: C_10  and  C_26
REMARK                            x       y       z     vdW  Elec       q    Type
REMARK                         _______ _______ _______ _____ _____    ______ ____
ROOT
ATOM      1  N   UNL     1      32.405 -23.439 -15.447  0.00  0.00    +0.389 N 
ATOM      2  C   UNL     1      34.850 -23.482 -15.065  0.00  0.00    +0.023 C 
ATOM      3  C   UNL     1      33.526 -24.282 -15.017  0.00  0.00    -0.068 C 
ATOM      4  C   UNL     1      35.002 -22.664 -16.342  0.00  0.00    -0.026 C 
ATOM      5  C   UNL     1      33.891 -22.464 -17.184  0.00  0.00    -0.047 C 
ATOM      6  C   UNL     1      32.558 -23.103 -16.872  0.00  0.00    -0.050 C 
ATOM      7  C   UNL     1      36.215 -22.029 -16.655  0.00  0.00    -0.004 C 
ATOM      8  C   UNL     1      34.032 -21.700 -18.352  0.00  0.00    -0.005 C 
ATOM      9  C   UNL     1      31.129 -24.119 -15.220  0.00  0.00    -0.100 C 
ATOM     10  C   UNL     1      35.251 -21.102 -18.664  0.00  0.00    +0.019 C 
ATOM     11  C   UNL     1      36.340 -21.261 -17.813  0.00  0.00    +0.001 C 
ATOM     12  H   UNL     1      32.407 -22.580 -14.897  0.00  0.00    -0.079 HD
ENDROOT
BRANCH   2  13
ATOM     13  C   UNL     1      36.015 -24.422 -14.780  0.00  0.00    -0.020 C 
ATOM     14  C   UNL     1      37.305 -23.910 -14.637  0.00  0.00    -0.004 C 
ATOM     15  C   UNL     1      35.792 -25.790 -14.664  0.00  0.00    -0.004 C 
ATOM     16  C   UNL     1      38.389 -24.763 -14.375  0.00  0.00    -0.000 C 
ATOM     17  C   UNL     1      38.162 -26.155 -14.258  0.00  0.00    -0.000 C 
ATOM     18  C   UNL     1      36.858 -26.653 -14.405  0.00  0.00    -0.000 C 
ATOM     19  C   UNL     1      39.694 -24.265 -14.229  0.00  0.00    -0.000 C 
ATOM     20  C   UNL     1      39.247 -27.008 -13.997  0.00  0.00    -0.000 C 
ATOM     21  C   UNL     1      40.760 -25.127 -13.969  0.00  0.00    -0.000 C 
ATOM     22  C   UNL     1      40.537 -26.496 -13.854  0.00  0.00    -0.000 C 
ENDBRANCH   2  13
BRANCH  10  26
ATOM     23  N   UNL     1      36.557 -19.657 -20.007  0.00  0.00    -0.147 NA
ATOM     24  N   UNL     1      36.762 -18.890 -21.111  0.00  0.00    -0.133 NA
ATOM     25  N   UNL     1      35.999 -18.003 -23.189  0.00  0.00    -0.341 N 
ATOM     26  C   UNL     1      35.383 -20.310 -19.868  0.00  0.00    +0.103 C 
ATOM     27  C   UNL     1      34.368 -20.237 -20.801  0.00  0.00    +0.024 C 
ATOM     28  C   UNL     1      34.577 -19.457 -21.925  0.00  0.00    +0.037 C 
ATOM     29  C   UNL     1      35.786 -18.801 -22.040  0.00  0.00    +0.147 C 
ATOM     30  H   UNL     1      36.850 -17.522 -23.303  0.00  0.00    +0.144 HD
ATOM     31  H   UNL     1      35.296 -17.929 -23.874  0.00  0.00    +0.144 HD
ENDBRANCH  10  26
TORSDOF 2
ENDMDL
MODEL 5
REMARK VINA RESULT:     -10.0      3.288      8.343
REMARK  Name = 58212050
REMARK  2 active torsions:
REMARK  status: ('A' for Active; 'I' for Inactive)
REMARK    1  A    between atoms: C_2  and  C_13
REMARK    2  A    between atoms: C_10  and  C_26
REMARK                            x       y       z     vdW  Elec       q    Type
REMARK                         _______ _______ _______ _____ _____    ______ ____
ROOT
ATOM      1  N   UNL     1      31.137 -23.000 -16.535  0.00  0.00    +0.389 N 
ATOM      2  C   UNL     1      33.034 -22.424 -18.019  0.00  0.00    +0.023 C 
ATOM      3  C   UNL     1      31.581 -22.093 -17.601  0.00  0.00    -0.068 C 
ATOM      4  C   UNL     1      33.955 -22.650 -16.826  0.00  0.00    -0.026 C 
ATOM      5  C   UNL     1      33.409 -22.832 -15.541  0.00  0.00    -0.047 C 
ATOM      6  C   UNL     1      31.918 -22.744 -15.314  0.00  0.00    -0.050 C 
ATOM      7  C   UNL     1      35.345 -22.768 -16.996  0.00  0.00    -0.004 C 
ATOM      8  C   UNL     1      34.260 -23.054 -14.448  0.00  0.00    -0.005 C 
ATOM      9  C   UNL     1      29.709 -22.828 -16.270  0.00  0.00    -0.100 C 
ATOM     10  C   UNL     1      35.639 -23.138 -14.629  0.00  0.00    +0.019 C 
ATOM     11  C   UNL     1      36.180 -23.002 -15.904  0.00  0.00    +0.001 C 
ATOM     12  H   UNL     1      31.290 -23.962 -16.836  0.00  0.00    -0.079 HD
ENDROOT
BRANCH   2  13
ATOM     13  C   UNL     1      33.527 -21.366 -18.999  0.00  0.00    -0.020 C 
ATOM     14  C   UNL     1      34.890 -21.088 -19.098  0.00  0.00    -0.004 C 
ATOM     15  C   UNL     1      32.616 -20.678 -19.795  0.00  0.00    -0.004 C 
ATOM     16  C   UNL     1      35.360 -20.116 -19.995  0.00  0.00    -0.000 C 
ATOM     17  C   UNL     1      34.434 -19.416 -20.804  0.00  0.00    -0.000 C 
ATOM     18  C   UNL     1      33.066 -19.708 -20.692  0.00  0.00    -0.000 C 
ATOM     19  C   UNL     1      36.730 -19.824 -20.107  0.00  0.00    -0.000 C 
ATOM     20  C   UNL     1      34.904 -18.443 -21.702  0.00  0.00    -0.000 C 
ATOM     21  C   UNL     1      37.179 -18.854 -21.004  0.00  0.00    -0.000 C 
ATOM     22  C   UNL     1      36.268 -18.165 -21.800  0.00  0.00    -0.000 C 
ENDBRANCH   2  13
BRANCH  10  26
ATOM     23  N   UNL     1      37.767 -23.751 -13.799  0.00  0.00    -0.147 NA
ATOM     24  N   UNL     1      38.647 -23.993 -12.791  0.00  0.00    -0.133 NA
ATOM     25  N   UNL     1      39.153 -24.101 -10.463  0.00  0.00    -0.341 N 
ATOM     26  C   UNL     1      36.507 -23.374 -13.496  0.00  0.00    +0.103 C 
ATOM     27  C   UNL     1      36.061 -23.219 -12.199  0.00  0.00    +0.024 C 
ATOM     28  C   UNL     1      36.956 -23.465 -11.173  0.00  0.00    +0.037 C 
ATOM     29  C   UNL     1      38.238 -23.849 -11.512  0.00  0.00    +0.147 C 
ATOM     30  H   UNL     1      40.075 -24.377 -10.670  0.00  0.00    +0.144 HD
ATOM     31  H   UNL     1      38.868 -24.001  -9.527  0.00  0.00    +0.144 HD
ENDBRANCH  10  26
TORSDOF 2
ENDMDL
MODEL 6
REMARK VINA RESULT:      -9.9      8.558     14.036
REMARK  Name = 58212050
REMARK  2 active torsions:
REMARK  status: ('A' for Active; 'I' for Inactive)
REMARK    1  A    between atoms: C_2  and  C_13
REMARK    2  A    between atoms: C_10  and  C_26
REMARK                            x       y       z     vdW  Elec       q    Type
REMARK                         _______ _______ _______ _____ _____    ______ ____
ROOT
ATOM      1  N   UNL     1      30.953 -10.140 -19.743  0.00  0.00    +0.389 N 
ATOM      2  C   UNL     1      31.756  -9.349 -21.947  0.00  0.00    +0.023 C 
ATOM      3  C   UNL     1      31.503  -8.986 -20.464  0.00  0.00    -0.068 C 
ATOM      4  C   UNL     1      32.433 -10.704 -22.117  0.00  0.00    -0.026 C 
ATOM      5  C   UNL     1      32.501 -11.597 -21.031  0.00  0.00    -0.047 C 
ATOM      6  C   UNL     1      31.965 -11.207 -19.673  0.00  0.00    -0.050 C 
ATOM      7  C   UNL     1      32.919 -11.118 -23.368  0.00  0.00    -0.004 C 
ATOM      8  C   UNL     1      33.113 -12.849 -21.195  0.00  0.00    -0.005 C 
ATOM      9  C   UNL     1      30.527  -9.755 -18.397  0.00  0.00    -0.100 C 
ATOM     10  C   UNL     1      33.617 -13.233 -22.437  0.00  0.00    +0.019 C 
ATOM     11  C   UNL     1      33.514 -12.370 -23.524  0.00  0.00    +0.001 C 
ATOM     12  H   UNL     1      30.136 -10.486 -20.246  0.00  0.00    -0.079 HD
ENDROOT
BRANCH   2  13
ATOM     13  C   UNL     1      32.482  -8.195 -22.628  0.00  0.00    -0.020 C 
ATOM     14  C   UNL     1      31.768  -7.287 -23.410  0.00  0.00    -0.004 C 
ATOM     15  C   UNL     1      33.857  -8.050 -22.471  0.00  0.00    -0.004 C 
ATOM     16  C   UNL     1      32.422  -6.219 -24.045  0.00  0.00    -0.000 C 
ATOM     17  C   UNL     1      33.820  -6.071 -23.886  0.00  0.00    -0.000 C 
ATOM     18  C   UNL     1      34.523  -6.995 -23.096  0.00  0.00    -0.000 C 
ATOM     19  C   UNL     1      31.718  -5.296 -24.836  0.00  0.00    -0.000 C 
ATOM     20  C   UNL     1      34.475  -5.004 -24.522  0.00  0.00    -0.000 C 
ATOM     21  C   UNL     1      32.384  -4.241 -25.461  0.00  0.00    -0.000 C 
ATOM     22  C   UNL     1      33.760  -4.095 -25.304  0.00  0.00    -0.000 C 
ENDBRANCH   2  13
BRANCH  10  26
ATOM     23  N   UNL     1      34.735 -15.077 -21.465  0.00  0.00    -0.147 NA
ATOM     24  N   UNL     1      35.337 -16.295 -21.528  0.00  0.00    -0.133 NA
ATOM     25  N   UNL     1      36.052 -18.191 -22.785  0.00  0.00    -0.341 N 
ATOM     26  C   UNL     1      34.240 -14.528 -22.596  0.00  0.00    +0.103 C 
ATOM     27  C   UNL     1      34.317 -15.149 -23.827  0.00  0.00    +0.024 C 
ATOM     28  C   UNL     1      34.929 -16.388 -23.891  0.00  0.00    +0.037 C 
ATOM     29  C   UNL     1      35.425 -16.924 -22.720  0.00  0.00    +0.147 C 
ATOM     30  H   UNL     1      36.416 -18.602 -21.968  0.00  0.00    +0.144 HD
ATOM     31  H   UNL     1      36.124 -18.660 -23.647  0.00  0.00    +0.144 HD
ENDBRANCH  10  26
TORSDOF 2
ENDMDL
MODEL 7
REMARK VINA RESULT:      -9.6     11.827     17.872
REMARK  Name = 58212050
REMARK  2 active torsions:
REMARK  status: ('A' for Active; 'I' for Inactive)
REMARK    1  A    between atoms: C_2  and  C_13
REMARK    2  A    between atoms: C_10  and  C_26
REMARK                            x       y       z     vdW  Elec       q    Type
REMARK                         _______ _______ _______ _____ _____    ______ ____
ROOT
ATOM      1  N   UNL     1      30.546  -4.244 -22.162  0.00  0.00    +0.389 N 
ATOM      2  C   UNL     1      31.795  -5.124 -24.110  0.00  0.00    +0.023 C 
ATOM      3  C   UNL     1      31.578  -3.925 -23.155  0.00  0.00    -0.068 C 
ATOM      4  C   UNL     1      31.877  -6.457 -23.378  0.00  0.00    -0.026 C 
ATOM      5  C   UNL     1      31.480  -6.544 -22.029  0.00  0.00    -0.047 C 
ATOM      6  C   UNL     1      31.029  -5.315 -21.275  0.00  0.00    -0.050 C 
ATOM      7  C   UNL     1      32.263  -7.630 -24.048  0.00  0.00    -0.004 C 
ATOM      8  C   UNL     1      31.545  -7.776 -21.362  0.00  0.00    -0.005 C 
ATOM      9  C   UNL     1      30.194  -3.058 -21.382  0.00  0.00    -0.100 C 
ATOM     10  C   UNL     1      31.959  -8.925 -22.034  0.00  0.00    +0.019 C 
ATOM     11  C   UNL     1      32.311  -8.852 -23.379  0.00  0.00    +0.001 C 
ATOM     12  H   UNL     1      29.708  -4.564 -22.648  0.00  0.00    -0.079 HD
ENDROOT
BRANCH   2  13
ATOM     13  C   UNL     1      32.984  -4.833 -25.019  0.00  0.00    -0.020 C 
ATOM     14  C   UNL     1      32.772  -4.371 -26.318  0.00  0.00    -0.004 C 
ATOM     15  C   UNL     1      34.280  -5.029 -24.551  0.00  0.00    -0.004 C 
ATOM     16  C   UNL     1      33.857  -4.100 -27.167  0.00  0.00    -0.000 C 
ATOM     17  C   UNL     1      35.175  -4.300 -26.692  0.00  0.00    -0.000 C 
ATOM     18  C   UNL     1      35.369  -4.765 -25.382  0.00  0.00    -0.000 C 
ATOM     19  C   UNL     1      33.662  -3.635 -28.478  0.00  0.00    -0.000 C 
ATOM     20  C   UNL     1      36.260  -4.029 -27.542  0.00  0.00    -0.000 C 
ATOM     21  C   UNL     1      34.751  -3.371 -29.309  0.00  0.00    -0.000 C 
ATOM     22  C   UNL     1      36.047  -3.567 -28.842  0.00  0.00    -0.000 C 
ENDBRANCH   2  13
BRANCH  10  26
ATOM     23  N   UNL     1      32.291 -11.265 -22.109  0.00  0.00    -0.147 NA
ATOM     24  N   UNL     1      32.362 -12.495 -21.532  0.00  0.00    -0.133 NA
ATOM     25  N   UNL     1      32.229 -13.889 -19.603  0.00  0.00    -0.341 N 
ATOM     26  C   UNL     1      32.015 -10.191 -21.338  0.00  0.00    +0.103 C 
ATOM     27  C   UNL     1      31.799 -10.280 -19.977  0.00  0.00    +0.024 C 
ATOM     28  C   UNL     1      31.872 -11.531 -19.391  0.00  0.00    +0.037 C 
ATOM     29  C   UNL     1      32.155 -12.610 -20.203  0.00  0.00    +0.147 C 
ATOM     30  H   UNL     1      32.430 -14.680 -20.153  0.00  0.00    +0.144 HD
ATOM     31  H   UNL     1      32.080 -13.988 -18.635  0.00  0.00    +0.144 HD
ENDBRANCH  10  26
TORSDOF 2
ENDMDL
