MODEL 1
REMARK VINA RESULT:     -12.6      0.000      0.000
REMARK  Name = 49831257
REMARK  4 active torsions:
REMARK  status: ('A' for Active; 'I' for Inactive)
REMARK    1  A    between atoms: C_1  and  C_23
REMARK    2  A    between atoms: C_4  and  C_14
REMARK    3  A    between atoms: C_12  and  C_20
REMARK    4  A    between atoms: C_23  and  N_27
REMARK                            x       y       z     vdW  Elec       q    Type
REMARK                         _______ _______ _______ _____ _____    ______ ____
ROOT
ATOM      1  C   UNL     1      36.026 -18.705 -21.026  0.00  0.00    -0.043 C 
ATOM      2  C   UNL     1      35.783 -17.425 -20.527  0.00  0.00    -0.006 C 
ATOM      3  C   UNL     1      35.724 -19.005 -22.354  0.00  0.00    -0.006 C 
ATOM      4  C   UNL     1      34.934 -16.746 -22.685  0.00  0.00    +0.016 C 
ATOM      5  C   UNL     1      35.236 -16.446 -21.356  0.00  0.00    +0.001 C 
ATOM      6  C   UNL     1      35.178 -18.026 -23.184  0.00  0.00    +0.001 C 
ENDROOT
BRANCH   4  14
ATOM      7  O   UNL     1      31.431 -10.416 -21.739  0.00  0.00    -0.274 OA
ATOM      8  N   UNL     1      32.496 -12.285 -20.771  0.00  0.00    -0.217 N 
ATOM      9  N   UNL     1      33.721 -14.566 -23.038  0.00  0.00    -0.152 N 
ATOM     10  N   UNL     1      33.548 -14.199 -21.739  0.00  0.00    -0.092 NA
ATOM     11  N   UNL     1      32.632 -12.624 -23.115  0.00  0.00    -0.319 NA
ATOM     12  C   UNL     1      31.811 -11.056 -20.768  0.00  0.00    +0.234 C 
ATOM     13  C   UNL     1      32.895 -13.044 -21.850  0.00  0.00    +0.167 C 
ATOM     14  C   UNL     1      34.355 -15.712 -23.560  0.00  0.00    +0.077 C 
ATOM     15  C   UNL     1      33.153 -13.578 -23.854  0.00  0.00    +0.219 C 
ATOM     16  C   UNL     1      34.415 -15.858 -24.901  0.00  0.00    +0.017 C 
ATOM     17  C   UNL     1      33.229 -13.754 -25.263  0.00  0.00    +0.051 C 
ATOM     18  C   UNL     1      33.834 -14.844 -25.765  0.00  0.00    +0.005 C 
ATOM     19  H   UNL     1      32.721 -12.651 -19.884  0.00  0.00    +0.167 HD
BRANCH  12  20
ATOM     20  C   UNL     1      31.534 -10.507 -19.403  0.00  0.00    +0.077 C 
ATOM     21  C   UNL     1      31.365  -9.025 -19.235  0.00  0.00    +0.010 C 
ATOM     22  C   UNL     1      32.597  -9.704 -18.710  0.00  0.00    +0.010 C 
ENDBRANCH  12  20
ENDBRANCH   4  14
BRANCH   1  23
ATOM     23  C   UNL     1      36.618 -19.762 -20.132  0.00  0.00    -0.050 C 
BRANCH  23  27
ATOM     24  S   UNL     1      33.675 -22.589 -18.200  0.00  0.00    -0.014 S 
ATOM     25  O   UNL     1      32.721 -22.712 -17.116  0.00  0.00    -0.173 OA
ATOM     26  O   UNL     1      33.910 -23.685 -19.118  0.00  0.00    -0.173 OA
ATOM     27  N   UNL     1      35.608 -20.360 -19.253  0.00  0.00    +0.392 N 
ATOM     28  C   UNL     1      36.171 -21.540 -18.575  0.00  0.00    -0.051 C 
ATOM     29  C   UNL     1      34.406 -20.698 -20.034  0.00  0.00    -0.051 C 
ATOM     30  C   UNL     1      33.250 -21.146 -19.146  0.00  0.00    +0.128 C 
ATOM     31  C   UNL     1      35.234 -22.093 -17.507  0.00  0.00    +0.128 C 
ATOM     32  H   UNL     1      35.335 -19.690 -18.535  0.00  0.00    -0.079 HD
ENDBRANCH  23  27
ENDBRANCH   1  23
TORSDOF 4
ENDMDL
MODEL 2
REMARK VINA RESULT:     -12.4      4.500     11.041
REMARK  Name = 49831257
REMARK  4 active torsions:
REMARK  status: ('A' for Active; 'I' for Inactive)
REMARK    1  A    between atoms: C_1  and  C_23
REMARK    2  A    between atoms: C_4  and  C_14
REMARK    3  A    between atoms: C_12  and  C_20
REMARK    4  A    between atoms: C_23  and  N_27
REMARK                            x       y       z     vdW  Elec       q    Type
REMARK                         _______ _______ _______ _____ _____    ______ ____
ROOT
ATOM      1  C   UNL     1      35.454 -19.820 -20.714  0.00  0.00    -0.043 C 
ATOM      2  C   UNL     1      34.067 -19.859 -20.577  0.00  0.00    -0.006 C 
ATOM      3  C   UNL     1      36.263 -20.539 -19.834  0.00  0.00    -0.006 C 
ATOM      4  C   UNL     1      34.297 -21.335 -18.678  0.00  0.00    +0.016 C 
ATOM      5  C   UNL     1      33.488 -20.616 -19.558  0.00  0.00    +0.001 C 
ATOM      6  C   UNL     1      35.685 -21.297 -18.816  0.00  0.00    +0.001 C 
ENDROOT
BRANCH   4  14
ATOM      7  O   UNL     1      36.718 -25.255 -13.021  0.00  0.00    -0.274 OA
ATOM      8  N   UNL     1      37.219 -23.884 -14.873  0.00  0.00    -0.217 N 
ATOM      9  N   UNL     1      34.467 -22.791 -16.629  0.00  0.00    -0.152 N 
ATOM     10  N   UNL     1      35.820 -22.806 -16.483  0.00  0.00    -0.092 NA
ATOM     11  N   UNL     1      34.853 -24.062 -14.840  0.00  0.00    -0.319 NA
ATOM     12  C   UNL     1      37.513 -24.677 -13.749  0.00  0.00    +0.234 C 
ATOM     13  C   UNL     1      35.987 -23.577 -15.410  0.00  0.00    +0.167 C 
ATOM     14  C   UNL     1      33.686 -22.133 -17.601  0.00  0.00    +0.077 C 
ATOM     15  C   UNL     1      33.905 -23.566 -15.605  0.00  0.00    +0.219 C 
ATOM     16  C   UNL     1      32.343 -22.258 -17.536  0.00  0.00    +0.017 C 
ATOM     17  C   UNL     1      32.490 -23.682 -15.557  0.00  0.00    +0.051 C 
ATOM     18  C   UNL     1      31.741 -23.055 -16.481  0.00  0.00    +0.005 C 
ATOM     19  H   UNL     1      37.996 -23.497 -15.339  0.00  0.00    +0.167 HD
BRANCH  12  20
ATOM     20  C   UNL     1      38.973 -24.801 -13.446  0.00  0.00    +0.077 C 
ATOM     21  C   UNL     1      39.933 -25.048 -14.573  0.00  0.00    +0.010 C 
ATOM     22  C   UNL     1      39.638 -26.140 -13.586  0.00  0.00    +0.010 C 
ENDBRANCH  12  20
ENDBRANCH   4  14
BRANCH   1  23
ATOM     23  C   UNL     1      36.079 -19.005 -21.815  0.00  0.00    -0.050 C 
BRANCH  23  27
ATOM     24  S   UNL     1      34.001 -16.213 -24.693  0.00  0.00    -0.014 S 
ATOM     25  O   UNL     1      32.749 -15.532 -24.953  0.00  0.00    -0.173 OA
ATOM     26  O   UNL     1      35.134 -16.064 -25.585  0.00  0.00    -0.173 OA
ATOM     27  N   UNL     1      35.094 -18.152 -22.487  0.00  0.00    +0.392 N 
ATOM     28  C   UNL     1      34.812 -18.679 -23.834  0.00  0.00    -0.051 C 
ATOM     29  C   UNL     1      35.584 -16.764 -22.533  0.00  0.00    -0.051 C 
ATOM     30  C   UNL     1      34.525 -15.795 -23.047  0.00  0.00    +0.128 C 
ATOM     31  C   UNL     1      33.657 -17.947 -24.509  0.00  0.00    +0.128 C 
ATOM     32  H   UNL     1      34.219 -18.155 -21.964  0.00  0.00    -0.079 HD
ENDBRANCH  23  27
ENDBRANCH   1  23
TORSDOF 4
ENDMDL
MODEL 3
REMARK VINA RESULT:     -11.9      4.381     11.296
REMARK  Name = 49831257
REMARK  4 active torsions:
REMARK  status: ('A' for Active; 'I' for Inactive)
REMARK    1  A    between atoms: C_1  and  C_23
REMARK    2  A    between atoms: C_4  and  C_14
REMARK    3  A    between atoms: C_12  and  C_20
REMARK    4  A    between atoms: C_23  and  N_27
REMARK                            x       y       z     vdW  Elec       q    Type
REMARK                         _______ _______ _______ _____ _____    ______ ____
ROOT
ATOM      1  C   UNL     1      35.139 -20.357 -20.433  0.00  0.00    -0.043 C 
ATOM      2  C   UNL     1      36.029 -20.958 -19.543  0.00  0.00    -0.006 C 
ATOM      3  C   UNL     1      33.764 -20.460 -20.221  0.00  0.00    -0.006 C 
ATOM      4  C   UNL     1      34.169 -21.767 -18.230  0.00  0.00    +0.016 C 
ATOM      5  C   UNL     1      35.544 -21.663 -18.442  0.00  0.00    +0.001 C 
ATOM      6  C   UNL     1      33.278 -21.165 -19.120  0.00  0.00    +0.001 C 
ENDROOT
BRANCH   4  14
ATOM      7  O   UNL     1      37.085 -25.455 -12.651  0.00  0.00    -0.274 OA
ATOM      8  N   UNL     1      37.418 -24.169 -14.600  0.00  0.00    -0.217 N 
ATOM      9  N   UNL     1      34.522 -23.134 -16.144  0.00  0.00    -0.152 N 
ATOM     10  N   UNL     1      35.882 -23.152 -16.122  0.00  0.00    -0.092 NA
ATOM     11  N   UNL     1      35.065 -24.328 -14.343  0.00  0.00    -0.319 NA
ATOM     12  C   UNL     1      37.811 -24.914 -13.474  0.00  0.00    +0.234 C 
ATOM     13  C   UNL     1      36.143 -23.876 -15.035  0.00  0.00    +0.167 C 
ATOM     14  C   UNL     1      33.657 -22.513 -17.068  0.00  0.00    +0.077 C 
ATOM     15  C   UNL     1      34.053 -23.859 -15.039  0.00  0.00    +0.219 C 
ATOM     16  C   UNL     1      32.325 -22.625 -16.876  0.00  0.00    +0.017 C 
ATOM     17  C   UNL     1      32.647 -23.962 -14.858  0.00  0.00    +0.051 C 
ATOM     18  C   UNL     1      31.819 -23.371 -15.736  0.00  0.00    +0.005 C 
ATOM     19  H   UNL     1      38.151 -23.808 -15.151  0.00  0.00    +0.167 HD
BRANCH  12  20
ATOM     20  C   UNL     1      39.293 -25.036 -13.300  0.00  0.00    +0.077 C 
ATOM     21  C   UNL     1      40.174 -25.011 -14.515  0.00  0.00    +0.010 C 
ATOM     22  C   UNL     1      39.982 -26.290 -13.753  0.00  0.00    +0.010 C 
ENDBRANCH  12  20
ENDBRANCH   4  14
BRANCH   1  23
ATOM     23  C   UNL     1      35.662 -19.593 -21.621  0.00  0.00    -0.050 C 
BRANCH  23  27
ATOM     24  S   UNL     1      34.582 -15.348 -22.716  0.00  0.00    -0.014 S 
ATOM     25  O   UNL     1      33.514 -14.369 -22.664  0.00  0.00    -0.173 OA
ATOM     26  O   UNL     1      35.865 -15.025 -23.308  0.00  0.00    -0.173 OA
ATOM     27  N   UNL     1      34.954 -18.323 -21.806  0.00  0.00    +0.392 N 
ATOM     28  C   UNL     1      34.841 -18.018 -23.243  0.00  0.00    -0.051 C 
ATOM     29  C   UNL     1      35.650 -17.253 -21.072  0.00  0.00    -0.051 C 
ATOM     30  C   UNL     1      34.860 -15.949 -21.068  0.00  0.00    +0.128 C 
ATOM     31  C   UNL     1      33.951 -16.809 -23.508  0.00  0.00    +0.128 C 
ATOM     32  H   UNL     1      34.010 -18.395 -21.430  0.00  0.00    -0.079 HD
ENDBRANCH  23  27
ENDBRANCH   1  23
TORSDOF 4
ENDMDL
MODEL 4
REMARK VINA RESULT:     -11.4      4.664     11.240
REMARK  Name = 49831257
REMARK  4 active torsions:
REMARK  status: ('A' for Active; 'I' for Inactive)
REMARK    1  A    between atoms: C_1  and  C_23
REMARK    2  A    between atoms: C_4  and  C_14
REMARK    3  A    between atoms: C_12  and  C_20
REMARK    4  A    between atoms: C_23  and  N_27
REMARK                            x       y       z     vdW  Elec       q    Type
REMARK                         _______ _______ _______ _____ _____    ______ ____
ROOT
ATOM      1  C   UNL     1      34.789 -20.808 -19.832  0.00  0.00    -0.043 C 
ATOM      2  C   UNL     1      35.447 -21.579 -18.875  0.00  0.00    -0.006 C 
ATOM      3  C   UNL     1      33.408 -20.628 -19.755  0.00  0.00    -0.006 C 
ATOM      4  C   UNL     1      33.341 -21.994 -17.764  0.00  0.00    +0.016 C 
ATOM      5  C   UNL     1      34.723 -22.173 -17.841  0.00  0.00    +0.001 C 
ATOM      6  C   UNL     1      32.684 -21.221 -18.722  0.00  0.00    +0.001 C 
ENDROOT
BRANCH   4  14
ATOM      7  O   UNL     1      34.905 -25.003 -11.304  0.00  0.00    -0.274 OA
ATOM      8  N   UNL     1      35.676 -23.927 -13.256  0.00  0.00    -0.217 N 
ATOM      9  N   UNL     1      33.207 -23.122 -15.516  0.00  0.00    -0.152 N 
ATOM     10  N   UNL     1      34.527 -23.110 -15.186  0.00  0.00    -0.092 NA
ATOM     11  N   UNL     1      33.324 -24.106 -13.520  0.00  0.00    -0.319 NA
ATOM     12  C   UNL     1      35.801 -24.539 -11.996  0.00  0.00    +0.234 C 
ATOM     13  C   UNL     1      34.533 -23.709 -13.996  0.00  0.00    +0.167 C 
ATOM     14  C   UNL     1      32.576 -22.622 -16.673  0.00  0.00    +0.077 C 
ATOM     15  C   UNL     1      32.498 -23.735 -14.473  0.00  0.00    +0.219 C 
ATOM     16  C   UNL     1      31.235 -22.739 -16.774  0.00  0.00    +0.017 C 
ATOM     17  C   UNL     1      31.087 -23.846 -14.602  0.00  0.00    +0.051 C 
ATOM     18  C   UNL     1      30.482 -23.369 -15.703  0.00  0.00    +0.005 C 
ATOM     19  H   UNL     1      36.516 -23.612 -13.664  0.00  0.00    +0.167 HD
BRANCH  12  20
ATOM     20  C   UNL     1      37.204 -24.611 -11.481  0.00  0.00    +0.077 C 
ATOM     21  C   UNL     1      38.340 -24.307 -12.415  0.00  0.00    +0.010 C 
ATOM     22  C   UNL     1      38.102 -25.717 -11.957  0.00  0.00    +0.010 C 
ENDBRANCH  12  20
ENDBRANCH   4  14
BRANCH   1  23
ATOM     23  C   UNL     1      35.571 -20.165 -20.948  0.00  0.00    -0.050 C 
BRANCH  23  27
ATOM     24  S   UNL     1      34.903 -16.054 -22.691  0.00  0.00    -0.014 S 
ATOM     25  O   UNL     1      33.910 -15.014 -22.869  0.00  0.00    -0.173 OA
ATOM     26  O   UNL     1      36.253 -15.894 -23.195  0.00  0.00    -0.173 OA
ATOM     27  N   UNL     1      34.977 -18.891 -21.365  0.00  0.00    +0.392 N 
ATOM     28  C   UNL     1      35.010 -18.781 -22.834  0.00  0.00    -0.051 C 
ATOM     29  C   UNL     1      35.683 -17.775 -20.715  0.00  0.00    -0.051 C 
ATOM     30  C   UNL     1      34.993 -16.437 -20.958  0.00  0.00    +0.128 C 
ATOM     31  C   UNL     1      34.237 -17.568 -23.339  0.00  0.00    +0.128 C 
ATOM     32  H   UNL     1      34.000 -18.853 -21.074  0.00  0.00    -0.079 HD
ENDBRANCH  23  27
ENDBRANCH   1  23
TORSDOF 4
ENDMDL
MODEL 5
REMARK VINA RESULT:     -11.0      4.044     10.191
REMARK  Name = 49831257
REMARK  4 active torsions:
REMARK  status: ('A' for Active; 'I' for Inactive)
REMARK    1  A    between atoms: C_1  and  C_23
REMARK    2  A    between atoms: C_4  and  C_14
REMARK    3  A    between atoms: C_12  and  C_20
REMARK    4  A    between atoms: C_23  and  N_27
REMARK                            x       y       z     vdW  Elec       q    Type
REMARK                         _______ _______ _______ _____ _____    ______ ____
ROOT
ATOM      1  C   UNL     1      35.158 -19.787 -20.919  0.00  0.00    -0.043 C 
ATOM      2  C   UNL     1      34.037 -20.406 -20.368  0.00  0.00    -0.006 C 
ATOM      3  C   UNL     1      36.399 -19.903 -20.292  0.00  0.00    -0.006 C 
ATOM      4  C   UNL     1      35.397 -21.257 -18.561  0.00  0.00    +0.016 C 
ATOM      5  C   UNL     1      34.156 -21.141 -19.188  0.00  0.00    +0.001 C 
ATOM      6  C   UNL     1      36.519 -20.637 -19.113  0.00  0.00    +0.001 C 
ENDROOT
BRANCH   4  14
ATOM      7  O   UNL     1      30.843 -24.778 -14.078  0.00  0.00    -0.274 OA
ATOM      8  N   UNL     1      31.142 -23.508 -16.043  0.00  0.00    -0.217 N 
ATOM      9  N   UNL     1      34.401 -22.599 -16.676  0.00  0.00    -0.152 N 
ATOM     10  N   UNL     1      33.095 -22.573 -17.055  0.00  0.00    -0.092 NA
ATOM     11  N   UNL     1      33.310 -23.745 -15.107  0.00  0.00    -0.319 NA
ATOM     12  C   UNL     1      30.410 -24.224 -15.079  0.00  0.00    +0.234 C 
ATOM     13  C   UNL     1      32.499 -23.265 -16.086  0.00  0.00    +0.167 C 
ATOM     14  C   UNL     1      35.523 -22.031 -17.314  0.00  0.00    +0.077 C 
ATOM     15  C   UNL     1      34.499 -23.328 -15.482  0.00  0.00    +0.219 C 
ATOM     16  C   UNL     1      36.737 -22.200 -16.747  0.00  0.00    +0.017 C 
ATOM     17  C   UNL     1      35.788 -23.493 -14.906  0.00  0.00    +0.051 C 
ATOM     18  C   UNL     1      36.860 -22.954 -15.512  0.00  0.00    +0.005 C 
ATOM     19  H   UNL     1      30.617 -23.129 -16.785  0.00  0.00    +0.167 HD
BRANCH  12  20
ATOM     20  C   UNL     1      28.938 -24.291 -15.346  0.00  0.00    +0.077 C 
ATOM     21  C   UNL     1      28.382 -23.579 -16.545  0.00  0.00    +0.010 C 
ATOM     22  C   UNL     1      28.106 -23.055 -15.166  0.00  0.00    +0.010 C 
ENDBRANCH  12  20
ENDBRANCH   4  14
BRANCH   1  23
ATOM     23  C   UNL     1      35.030 -18.995 -22.194  0.00  0.00    -0.050 C 
BRANCH  23  27
ATOM     24  S   UNL     1      34.549 -14.541 -21.630  0.00  0.00    -0.014 S 
ATOM     25  O   UNL     1      35.281 -13.313 -21.396  0.00  0.00    -0.173 OA
ATOM     26  O   UNL     1      33.105 -14.539 -21.763  0.00  0.00    -0.173 OA
ATOM     27  N   UNL     1      35.282 -17.568 -21.976  0.00  0.00    +0.392 N 
ATOM     28  C   UNL     1      34.613 -17.125 -20.740  0.00  0.00    -0.051 C 
ATOM     29  C   UNL     1      34.834 -16.797 -23.148  0.00  0.00    -0.051 C 
ATOM     30  C   UNL     1      35.241 -15.330 -23.063  0.00  0.00    +0.128 C 
ATOM     31  C   UNL     1      34.993 -15.699 -20.358  0.00  0.00    +0.128 C 
ATOM     32  H   UNL     1      36.282 -17.406 -21.862  0.00  0.00    -0.079 HD
ENDBRANCH  23  27
ENDBRANCH   1  23
TORSDOF 4
ENDMDL
MODEL 6
REMARK VINA RESULT:     -10.8      4.176     10.115
REMARK  Name = 49831257
REMARK  4 active torsions:
REMARK  status: ('A' for Active; 'I' for Inactive)
REMARK    1  A    between atoms: C_1  and  C_23
REMARK    2  A    between atoms: C_4  and  C_14
REMARK    3  A    between atoms: C_12  and  C_20
REMARK    4  A    between atoms: C_23  and  N_27
REMARK                            x       y       z     vdW  Elec       q    Type
REMARK                         _______ _______ _______ _____ _____    ______ ____
ROOT
ATOM      1  C   UNL     1      35.397 -20.249 -20.647  0.00  0.00    -0.043 C 
ATOM      2  C   UNL     1      36.522 -20.582 -19.894  0.00  0.00    -0.006 C 
ATOM      3  C   UNL     1      34.125 -20.598 -20.192  0.00  0.00    -0.006 C 
ATOM      4  C   UNL     1      35.105 -21.613 -18.231  0.00  0.00    +0.016 C 
ATOM      5  C   UNL     1      36.377 -21.264 -18.686  0.00  0.00    +0.001 C 
ATOM      6  C   UNL     1      33.978 -21.280 -18.984  0.00  0.00    +0.001 C 
ENDROOT
BRANCH   4  14
ATOM      7  O   UNL     1      29.533 -24.216 -14.305  0.00  0.00    -0.274 OA
ATOM      8  N   UNL     1      30.271 -23.101 -16.248  0.00  0.00    -0.217 N 
ATOM      9  N   UNL     1      33.684 -22.704 -16.460  0.00  0.00    -0.152 N 
ATOM     10  N   UNL     1      32.456 -22.508 -17.013  0.00  0.00    -0.092 NA
ATOM     11  N   UNL     1      32.239 -23.602 -15.021  0.00  0.00    -0.319 NA
ATOM     12  C   UNL     1      29.321 -23.655 -15.372  0.00  0.00    +0.234 C 
ATOM     13  C   UNL     1      31.643 -23.059 -16.114  0.00  0.00    +0.167 C 
ATOM     14  C   UNL     1      34.951 -22.335 -16.956  0.00  0.00    +0.077 C 
ATOM     15  C   UNL     1      33.515 -23.379 -15.243  0.00  0.00    +0.219 C 
ATOM     16  C   UNL     1      36.042 -22.649 -16.225  0.00  0.00    +0.017 C 
ATOM     17  C   UNL     1      34.679 -23.699 -14.492  0.00  0.00    +0.051 C 
ATOM     18  C   UNL     1      35.890 -23.351 -14.963  0.00  0.00    +0.005 C 
ATOM     19  H   UNL     1      29.909 -22.688 -17.066  0.00  0.00    +0.167 HD
BRANCH  12  20
ATOM     20  C   UNL     1      27.904 -23.522 -15.834  0.00  0.00    +0.077 C 
ATOM     21  C   UNL     1      27.546 -22.414 -16.780  0.00  0.00    +0.010 C 
ATOM     22  C   UNL     1      27.083 -22.361 -15.353  0.00  0.00    +0.010 C 
ENDBRANCH  12  20
ENDBRANCH   4  14
BRANCH   1  23
ATOM     23  C   UNL     1      35.554 -19.511 -21.950  0.00  0.00    -0.050 C 
BRANCH  23  27
ATOM     24  S   UNL     1      34.491 -15.151 -22.447  0.00  0.00    -0.014 S 
ATOM     25  O   UNL     1      33.452 -14.172 -22.201  0.00  0.00    -0.173 OA
ATOM     26  O   UNL     1      35.737 -14.775 -23.086  0.00  0.00    -0.173 OA
ATOM     27  N   UNL     1      34.862 -18.218 -21.930  0.00  0.00    +0.392 N 
ATOM     28  C   UNL     1      34.656 -17.740 -23.308  0.00  0.00    -0.051 C 
ATOM     29  C   UNL     1      35.631 -17.254 -21.124  0.00  0.00    -0.051 C 
ATOM     30  C   UNL     1      34.871 -15.950 -20.907  0.00  0.00    +0.128 C 
ATOM     31  C   UNL     1      33.775 -16.496 -23.360  0.00  0.00    +0.128 C 
ATOM     32  H   UNL     1      33.945 -18.323 -21.497  0.00  0.00    -0.079 HD
ENDBRANCH  23  27
ENDBRANCH   1  23
TORSDOF 4
ENDMDL
MODEL 7
REMARK VINA RESULT:     -10.4      4.863     10.951
REMARK  Name = 49831257
REMARK  4 active torsions:
REMARK  status: ('A' for Active; 'I' for Inactive)
REMARK    1  A    between atoms: C_1  and  C_23
REMARK    2  A    between atoms: C_4  and  C_14
REMARK    3  A    between atoms: C_12  and  C_20
REMARK    4  A    between atoms: C_23  and  N_27
REMARK                            x       y       z     vdW  Elec       q    Type
REMARK                         _______ _______ _______ _____ _____    ______ ____
ROOT
ATOM      1  C   UNL     1      33.024  -9.011 -21.777  0.00  0.00    -0.043 C 
ATOM      2  C   UNL     1      33.885  -8.893 -22.867  0.00  0.00    -0.006 C 
ATOM      3  C   UNL     1      32.341 -10.207 -21.553  0.00  0.00    -0.006 C 
ATOM      4  C   UNL     1      33.380 -11.166 -23.511  0.00  0.00    +0.016 C 
ATOM      5  C   UNL     1      34.062  -9.971 -23.735  0.00  0.00    +0.001 C 
ATOM      6  C   UNL     1      32.519 -11.285 -22.420  0.00  0.00    +0.001 C 
ENDROOT
BRANCH   4  14
ATOM      7  O   UNL     1      35.533 -18.111 -22.901  0.00  0.00    -0.274 OA
ATOM      8  N   UNL     1      35.075 -16.051 -21.846  0.00  0.00    -0.217 N 
ATOM      9  N   UNL     1      34.015 -13.561 -23.972  0.00  0.00    -0.152 N 
ATOM     10  N   UNL     1      34.318 -13.954 -22.705  0.00  0.00    -0.092 NA
ATOM     11  N   UNL     1      34.627 -15.695 -24.149  0.00  0.00    -0.319 NA
ATOM     12  C   UNL     1      35.468 -17.401 -21.907  0.00  0.00    +0.234 C 
ATOM     13  C   UNL     1      34.676 -15.225 -22.875  0.00  0.00    +0.167 C 
ATOM     14  C   UNL     1      33.567 -12.304 -24.428  0.00  0.00    +0.077 C 
ATOM     15  C   UNL     1      34.211 -14.651 -24.831  0.00  0.00    +0.219 C 
ATOM     16  C   UNL     1      33.318 -12.152 -25.747  0.00  0.00    +0.017 C 
ATOM     17  C   UNL     1      33.941 -14.467 -26.214  0.00  0.00    +0.051 C 
ATOM     18  C   UNL     1      33.513 -13.271 -26.653  0.00  0.00    +0.005 C 
ATOM     19  H   UNL     1      35.086 -15.643 -20.950  0.00  0.00    +0.167 HD
BRANCH  12  20
ATOM     20  C   UNL     1      35.842 -17.995 -20.585  0.00  0.00    +0.077 C 
ATOM     21  C   UNL     1      36.952 -19.002 -20.526  0.00  0.00    +0.010 C 
ATOM     22  C   UNL     1      35.531 -19.439 -20.318  0.00  0.00    +0.010 C 
ENDBRANCH  12  20
ENDBRANCH   4  14
BRANCH   1  23
ATOM     23  C   UNL     1      32.833  -7.849 -20.839  0.00  0.00    -0.050 C 
BRANCH  23  27
ATOM     24  S   UNL     1      30.781  -4.089 -22.269  0.00  0.00    -0.014 S 
ATOM     25  O   UNL     1      30.879  -3.001 -23.221  0.00  0.00    -0.173 OA
ATOM     26  O   UNL     1      29.672  -4.172 -21.339  0.00  0.00    -0.173 OA
ATOM     27  N   UNL     1      32.487  -6.619 -21.559  0.00  0.00    +0.392 N 
ATOM     28  C   UNL     1      32.462  -5.482 -20.623  0.00  0.00    -0.051 C 
ATOM     29  C   UNL     1      31.197  -6.791 -22.248  0.00  0.00    -0.051 C 
ATOM     30  C   UNL     1      30.875  -5.618 -23.168  0.00  0.00    +0.128 C 
ATOM     31  C   UNL     1      32.296  -4.148 -21.342  0.00  0.00    +0.128 C 
ATOM     32  H   UNL     1      33.194  -6.423 -22.267  0.00  0.00    -0.079 HD
ENDBRANCH  23  27
ENDBRANCH   1  23
TORSDOF 4
ENDMDL
MODEL 8
REMARK VINA RESULT:     -10.1      4.133      6.412
REMARK  Name = 49831257
REMARK  4 active torsions:
REMARK  status: ('A' for Active; 'I' for Inactive)
REMARK    1  A    between atoms: C_1  and  C_23
REMARK    2  A    between atoms: C_4  and  C_14
REMARK    3  A    between atoms: C_12  and  C_20
REMARK    4  A    between atoms: C_23  and  N_27
REMARK                            x       y       z     vdW  Elec       q    Type
REMARK                         _______ _______ _______ _____ _____    ______ ____
ROOT
ATOM      1  C   UNL     1      33.828 -14.031 -23.023  0.00  0.00    -0.043 C 
ATOM      2  C   UNL     1      33.341 -14.108 -21.719  0.00  0.00    -0.006 C 
ATOM      3  C   UNL     1      33.833 -12.809 -23.695  0.00  0.00    -0.006 C 
ATOM      4  C   UNL     1      32.865 -11.739 -21.758  0.00  0.00    +0.016 C 
ATOM      5  C   UNL     1      32.860 -12.962 -21.086  0.00  0.00    +0.001 C 
ATOM      6  C   UNL     1      33.352 -11.663 -23.063  0.00  0.00    +0.001 C 
ENDROOT
BRANCH   4  14
ATOM      7  O   UNL     1      32.953  -4.567 -23.093  0.00  0.00    -0.274 OA
ATOM      8  N   UNL     1      33.546  -6.744 -23.781  0.00  0.00    -0.217 N 
ATOM      9  N   UNL     1      32.552  -9.243 -21.633  0.00  0.00    -0.152 N 
ATOM     10  N   UNL     1      33.174  -8.886 -22.789  0.00  0.00    -0.092 NA
ATOM     11  N   UNL     1      32.400  -7.022 -21.722  0.00  0.00    -0.319 NA
ATOM     12  C   UNL     1      33.474  -5.343 -23.883  0.00  0.00    +0.234 C 
ATOM     13  C   UNL     1      33.054  -7.560 -22.784  0.00  0.00    +0.167 C 
ATOM     14  C   UNL     1      32.355 -10.529 -21.090  0.00  0.00    +0.077 C 
ATOM     15  C   UNL     1      32.085  -8.079 -21.006  0.00  0.00    +0.219 C 
ATOM     16  C   UNL     1      31.690 -10.637 -19.920  0.00  0.00    +0.017 C 
ATOM     17  C   UNL     1      31.388  -8.218 -19.776  0.00  0.00    +0.051 C 
ATOM     18  C   UNL     1      31.197  -9.443 -19.255  0.00  0.00    +0.005 C 
ATOM     19  H   UNL     1      34.008  -7.204 -24.519  0.00  0.00    +0.167 HD
BRANCH  12  20
ATOM     20  C   UNL     1      34.121  -4.780 -25.109  0.00  0.00    +0.077 C 
ATOM     21  C   UNL     1      33.718  -3.414 -25.584  0.00  0.00    +0.010 C 
ATOM     22  C   UNL     1      33.307  -4.631 -26.362  0.00  0.00    +0.010 C 
ENDBRANCH  12  20
ENDBRANCH   4  14
BRANCH   1  23
ATOM     23  C   UNL     1      34.350 -15.268 -23.706  0.00  0.00    -0.050 C 
BRANCH  23  27
ATOM     24  S   UNL     1      35.952 -18.647 -21.176  0.00  0.00    -0.014 S 
ATOM     25  O   UNL     1      35.569 -19.667 -20.221  0.00  0.00    -0.173 OA
ATOM     26  O   UNL     1      37.329 -18.502 -21.604  0.00  0.00    -0.173 OA
ATOM     27  N   UNL     1      34.476 -16.392 -22.774  0.00  0.00    +0.392 N 
ATOM     28  C   UNL     1      35.367 -16.021 -21.661  0.00  0.00    -0.051 C 
ATOM     29  C   UNL     1      34.962 -17.583 -23.491  0.00  0.00    -0.051 C 
ATOM     30  C   UNL     1      34.933 -18.833 -22.619  0.00  0.00    +0.128 C 
ATOM     31  C   UNL     1      35.387 -17.078 -20.562  0.00  0.00    +0.128 C 
ATOM     32  H   UNL     1      33.564 -16.618 -22.379  0.00  0.00    -0.079 HD
ENDBRANCH  23  27
ENDBRANCH   1  23
TORSDOF 4
ENDMDL
