MODEL 1
REMARK VINA RESULT:     -11.8      0.000      0.000
REMARK  Name = 54713659
REMARK  4 active torsions:
REMARK  status: ('A' for Active; 'I' for Inactive)
REMARK    1  A    between atoms: C_14  and  O_30
REMARK    2  A    between atoms: C_15  and  C_19
REMARK    3  A    between atoms: N_18  and  C_21
REMARK    4  A    between atoms: C_21  and  C_24
REMARK                            x       y       z     vdW  Elec       q    Type
REMARK                         _______ _______ _______ _____ _____    ______ ____
ROOT
ATOM      1  O   UNL     1      33.627 -11.731 -23.590  0.00  0.00    -0.334 OA
ATOM      2  O   UNL     1      33.785 -15.363 -26.393  0.00  0.00    -0.268 OA
ATOM      3  O   UNL     1      34.718 -19.240 -23.178  0.00  0.00    -0.283 OA
ATOM      4  N   UNL     1      33.602 -13.637 -24.883  0.00  0.00    -0.251 N 
ATOM      5  N   UNL     1      34.760 -15.192 -22.910  0.00  0.00    -0.275 N 
ATOM      6  C   UNL     1      33.602 -13.163 -23.524  0.00  0.00    +0.215 C 
ATOM      7  C   UNL     1      33.341 -12.546 -25.789  0.00  0.00    +0.107 C 
ATOM      8  C   UNL     1      34.801 -13.730 -22.794  0.00  0.00    +0.147 C 
ATOM      9  C   UNL     1      33.838 -11.368 -24.970  0.00  0.00    +0.164 C 
ATOM     10  C   UNL     1      33.861 -14.943 -25.240  0.00  0.00    +0.268 C 
ATOM     11  C   UNL     1      34.309 -15.817 -24.088  0.00  0.00    +0.143 C 
ATOM     12  C   UNL     1      31.855 -12.446 -26.117  0.00  0.00    +0.024 C 
ATOM     13  C   UNL     1      35.222 -15.987 -21.871  0.00  0.00    +0.074 C 
ATOM     14  C   UNL     1      34.276 -17.159 -24.236  0.00  0.00    +0.191 C 
ATOM     15  C   UNL     1      35.246 -17.326 -21.883  0.00  0.00    +0.110 C 
ATOM     16  C   UNL     1      34.744 -18.016 -23.101  0.00  0.00    +0.236 C 
ENDROOT
BRANCH  15  19
ATOM     17  O   UNL     1      36.016 -17.418 -19.666  0.00  0.00    -0.270 OA
ATOM     18  N   UNL     1      35.909 -19.388 -20.908  0.00  0.00    -0.297 N 
ATOM     19  C   UNL     1      35.759 -18.026 -20.706  0.00  0.00    +0.251 C 
ATOM     20  H   UNL     1      35.668 -19.758 -21.788  0.00  0.00    +0.150 HD
BRANCH  18  21
ATOM     21  C   UNL     1      36.402 -20.296 -19.896  0.00  0.00    +0.119 C 
BRANCH  21  24
ATOM     22  F   UNL     1      36.832 -22.044 -17.714  0.00  0.00    -0.204 F 
ATOM     23  F   UNL     1      32.211 -22.940 -17.221  0.00  0.00    -0.204 F 
ATOM     24  C   UNL     1      35.285 -21.001 -19.182  0.00  0.00    +0.025 C 
ATOM     25  C   UNL     1      35.567 -21.852 -18.113  0.00  0.00    +0.140 C 
ATOM     26  C   UNL     1      33.965 -20.806 -19.589  0.00  0.00    +0.002 C 
ATOM     27  C   UNL     1      34.529 -22.506 -17.450  0.00  0.00    +0.059 C 
ATOM     28  C   UNL     1      32.927 -21.462 -18.927  0.00  0.00    +0.030 C 
ATOM     29  C   UNL     1      33.208 -22.311 -17.857  0.00  0.00    +0.142 C 
ENDBRANCH  21  24
ENDBRANCH  18  21
ENDBRANCH  15  19
BRANCH  14  30
ATOM     30  O   UNL     1      33.824 -17.797 -25.369  0.00  0.00    -0.502 OA
ATOM     31  H   UNL     1      34.305 -18.518 -25.725  0.00  0.00    +0.292 HD
ENDBRANCH  14  30
TORSDOF 4
ENDMDL
MODEL 2
REMARK VINA RESULT:     -11.2      2.328      3.342
REMARK  Name = 54713659
REMARK  4 active torsions:
REMARK  status: ('A' for Active; 'I' for Inactive)
REMARK    1  A    between atoms: C_14  and  O_30
REMARK    2  A    between atoms: C_15  and  C_19
REMARK    3  A    between atoms: N_18  and  C_21
REMARK    4  A    between atoms: C_21  and  C_24
REMARK                            x       y       z     vdW  Elec       q    Type
REMARK                         _______ _______ _______ _____ _____    ______ ____
ROOT
ATOM      1  O   UNL     1      32.017 -11.697 -19.507  0.00  0.00    -0.334 OA
ATOM      2  O   UNL     1      33.200 -10.997 -23.887  0.00  0.00    -0.268 OA
ATOM      3  O   UNL     1      34.452 -15.697 -25.492  0.00  0.00    -0.283 OA
ATOM      4  N   UNL     1      32.512 -11.484 -21.746  0.00  0.00    -0.251 N 
ATOM      5  N   UNL     1      33.694 -13.981 -21.895  0.00  0.00    -0.275 N 
ATOM      6  C   UNL     1      32.256 -12.446 -20.706  0.00  0.00    +0.215 C 
ATOM      7  C   UNL     1      32.161 -10.160 -21.295  0.00  0.00    +0.107 C 
ATOM      8  C   UNL     1      33.443 -13.377 -20.580  0.00  0.00    +0.147 C 
ATOM      9  C   UNL     1      32.323 -10.317 -19.793  0.00  0.00    +0.164 C 
ATOM     10  C   UNL     1      33.055 -11.805 -22.972  0.00  0.00    +0.268 C 
ATOM     11  C   UNL     1      33.517 -13.243 -23.081  0.00  0.00    +0.143 C 
ATOM     12  C   UNL     1      30.735  -9.801 -21.696  0.00  0.00    +0.024 C 
ATOM     13  C   UNL     1      34.168 -15.282 -21.986  0.00  0.00    +0.074 C 
ATOM     14  C   UNL     1      33.756 -13.760 -24.305  0.00  0.00    +0.191 C 
ATOM     15  C   UNL     1      34.446 -15.916 -23.131  0.00  0.00    +0.110 C 
ATOM     16  C   UNL     1      34.236 -15.175 -24.402  0.00  0.00    +0.236 C 
ENDROOT
BRANCH  15  19
ATOM     17  O   UNL     1      34.773 -18.072 -24.007  0.00  0.00    -0.270 OA
ATOM     18  N   UNL     1      35.567 -17.589 -21.869  0.00  0.00    -0.297 N 
ATOM     19  C   UNL     1      34.935 -17.294 -23.066  0.00  0.00    +0.251 C 
ATOM     20  H   UNL     1      35.635 -16.879 -21.190  0.00  0.00    +0.150 HD
BRANCH  18  21
ATOM     21  C   UNL     1      36.133 -18.883 -21.564  0.00  0.00    +0.119 C 
BRANCH  21  24
ATOM     22  F   UNL     1      37.074 -20.799 -19.707  0.00  0.00    -0.204 F 
ATOM     23  F   UNL     1      32.695 -21.980 -18.355  0.00  0.00    -0.204 F 
ATOM     24  C   UNL     1      35.218 -19.709 -20.708  0.00  0.00    +0.025 C 
ATOM     25  C   UNL     1      35.747 -20.638 -19.812  0.00  0.00    +0.140 C 
ATOM     26  C   UNL     1      33.835 -19.548 -20.809  0.00  0.00    +0.002 C 
ATOM     27  C   UNL     1      34.896 -21.405 -19.017  0.00  0.00    +0.059 C 
ATOM     28  C   UNL     1      32.984 -20.316 -20.015  0.00  0.00    +0.030 C 
ATOM     29  C   UNL     1      33.513 -21.244 -19.118  0.00  0.00    +0.142 C 
ENDBRANCH  21  24
ENDBRANCH  18  21
ENDBRANCH  15  19
BRANCH  14  30
ATOM     30  O   UNL     1      33.575 -13.068 -25.481  0.00  0.00    -0.502 OA
ATOM     31  H   UNL     1      32.880 -13.305 -26.063  0.00  0.00    +0.292 HD
ENDBRANCH  14  30
TORSDOF 4
ENDMDL
MODEL 3
REMARK VINA RESULT:     -11.2      2.776      4.976
REMARK  Name = 54713659
REMARK  4 active torsions:
REMARK  status: ('A' for Active; 'I' for Inactive)
REMARK    1  A    between atoms: C_14  and  O_30
REMARK    2  A    between atoms: C_15  and  C_19
REMARK    3  A    between atoms: N_18  and  C_21
REMARK    4  A    between atoms: C_21  and  C_24
REMARK                            x       y       z     vdW  Elec       q    Type
REMARK                         _______ _______ _______ _____ _____    ______ ____
ROOT
ATOM      1  O   UNL     1      31.316 -10.770 -20.094  0.00  0.00    -0.334 OA
ATOM      2  O   UNL     1      33.912  -9.476 -23.653  0.00  0.00    -0.268 OA
ATOM      3  O   UNL     1      34.354 -13.797 -26.369  0.00  0.00    -0.283 OA
ATOM      4  N   UNL     1      32.505 -10.204 -21.984  0.00  0.00    -0.251 N 
ATOM      5  N   UNL     1      33.001 -12.839 -22.665  0.00  0.00    -0.275 N 
ATOM      6  C   UNL     1      31.710 -11.245 -21.388  0.00  0.00    +0.215 C 
ATOM      7  C   UNL     1      32.383  -8.988 -21.220  0.00  0.00    +0.107 C 
ATOM      8  C   UNL     1      32.524 -12.520 -21.314  0.00  0.00    +0.147 C 
ATOM      9  C   UNL     1      32.035  -9.544 -19.850  0.00  0.00    +0.164 C 
ATOM     10  C   UNL     1      33.295 -10.384 -23.100  0.00  0.00    +0.268 C 
ATOM     11  C   UNL     1      33.386 -11.824 -23.561  0.00  0.00    +0.143 C 
ATOM     12  C   UNL     1      31.287  -8.090 -21.783  0.00  0.00    +0.024 C 
ATOM     13  C   UNL     1      33.133 -14.162 -23.063  0.00  0.00    +0.074 C 
ATOM     14  C   UNL     1      33.847 -12.082 -24.804  0.00  0.00    +0.191 C 
ATOM     15  C   UNL     1      33.575 -14.559 -24.263  0.00  0.00    +0.110 C 
ATOM     16  C   UNL     1      33.957 -13.509 -25.243  0.00  0.00    +0.236 C 
ENDROOT
BRANCH  15  19
ATOM     17  O   UNL     1      33.113 -16.482 -25.531  0.00  0.00    -0.270 OA
ATOM     18  N   UNL     1      34.375 -16.691 -23.583  0.00  0.00    -0.297 N 
ATOM     19  C   UNL     1      33.654 -15.994 -24.538  0.00  0.00    +0.251 C 
ATOM     20  H   UNL     1      34.761 -16.186 -22.830  0.00  0.00    +0.150 HD
BRANCH  18  21
ATOM     21  C   UNL     1      34.593 -18.119 -23.632  0.00  0.00    +0.119 C 
BRANCH  21  24
ATOM     22  F   UNL     1      33.240 -19.708 -21.722  0.00  0.00    -0.204 F 
ATOM     23  F   UNL     1      37.059 -20.037 -18.947  0.00  0.00    -0.204 F 
ATOM     24  C   UNL     1      35.249 -18.631 -22.382  0.00  0.00    +0.025 C 
ATOM     25  C   UNL     1      34.524 -19.410 -21.480  0.00  0.00    +0.140 C 
ATOM     26  C   UNL     1      36.586 -18.327 -22.123  0.00  0.00    +0.002 C 
ATOM     27  C   UNL     1      35.135 -19.885 -20.321  0.00  0.00    +0.059 C 
ATOM     28  C   UNL     1      37.196 -18.801 -20.962  0.00  0.00    +0.030 C 
ATOM     29  C   UNL     1      36.472 -19.581 -20.061  0.00  0.00    +0.142 C 
ENDBRANCH  21  24
ENDBRANCH  18  21
ENDBRANCH  15  19
BRANCH  14  30
ATOM     30  O   UNL     1      34.214 -11.109 -25.706  0.00  0.00    -0.502 OA
ATOM     31  H   UNL     1      35.119 -10.972 -25.905  0.00  0.00    +0.292 HD
ENDBRANCH  14  30
TORSDOF 4
ENDMDL
MODEL 4
REMARK VINA RESULT:     -11.2      4.364     10.205
REMARK  Name = 54713659
REMARK  4 active torsions:
REMARK  status: ('A' for Active; 'I' for Inactive)
REMARK    1  A    between atoms: C_14  and  O_30
REMARK    2  A    between atoms: C_15  and  C_19
REMARK    3  A    between atoms: N_18  and  C_21
REMARK    4  A    between atoms: C_21  and  C_24
REMARK                            x       y       z     vdW  Elec       q    Type
REMARK                         _______ _______ _______ _____ _____    ______ ____
ROOT
ATOM      1  O   UNL     1      31.618 -23.812 -14.373  0.00  0.00    -0.334 OA
ATOM      2  O   UNL     1      36.127 -23.927 -15.231  0.00  0.00    -0.268 OA
ATOM      3  O   UNL     1      36.611 -20.723 -19.198  0.00  0.00    -0.283 OA
ATOM      4  N   UNL     1      33.876 -23.695 -14.812  0.00  0.00    -0.251 N 
ATOM      5  N   UNL     1      33.505 -22.487 -17.273  0.00  0.00    -0.275 N 
ATOM      6  C   UNL     1      32.608 -23.083 -15.110  0.00  0.00    +0.215 C 
ATOM      7  C   UNL     1      33.741 -24.598 -13.696  0.00  0.00    +0.107 C 
ATOM      8  C   UNL     1      32.367 -23.129 -16.604  0.00  0.00    +0.147 C 
ATOM      9  C   UNL     1      32.271 -24.964 -13.801  0.00  0.00    +0.164 C 
ATOM     10  C   UNL     1      35.028 -23.464 -15.534  0.00  0.00    +0.268 C 
ATOM     11  C   UNL     1      34.816 -22.631 -16.780  0.00  0.00    +0.143 C 
ATOM     12  C   UNL     1      34.080 -23.905 -12.381  0.00  0.00    +0.024 C 
ATOM     13  C   UNL     1      33.311 -21.768 -18.444  0.00  0.00    +0.074 C 
ATOM     14  C   UNL     1      35.888 -22.070 -17.379  0.00  0.00    +0.191 C 
ATOM     15  C   UNL     1      34.281 -21.162 -19.140  0.00  0.00    +0.110 C 
ATOM     16  C   UNL     1      35.672 -21.267 -18.625  0.00  0.00    +0.236 C 
ENDROOT
BRANCH  15  19
ATOM     17  O   UNL     1      32.742 -20.188 -20.622  0.00  0.00    -0.270 OA
ATOM     18  N   UNL     1      35.015 -20.086 -21.126  0.00  0.00    -0.297 N 
ATOM     19  C   UNL     1      33.919 -20.435 -20.356  0.00  0.00    +0.251 C 
ATOM     20  H   UNL     1      35.911 -20.342 -20.806  0.00  0.00    +0.150 HD
BRANCH  18  21
ATOM     21  C   UNL     1      34.916 -19.365 -22.375  0.00  0.00    +0.119 C 
BRANCH  21  24
ATOM     22  F   UNL     1      34.539 -17.516 -24.483  0.00  0.00    -0.204 F 
ATOM     23  F   UNL     1      34.940 -13.788 -21.595  0.00  0.00    -0.204 F 
ATOM     24  C   UNL     1      34.922 -17.878 -22.169  0.00  0.00    +0.025 C 
ATOM     25  C   UNL     1      34.731 -17.020 -23.252  0.00  0.00    +0.140 C 
ATOM     26  C   UNL     1      35.120 -17.353 -20.891  0.00  0.00    +0.002 C 
ATOM     27  C   UNL     1      34.736 -15.640 -23.059  0.00  0.00    +0.059 C 
ATOM     28  C   UNL     1      35.127 -15.972 -20.698  0.00  0.00    +0.030 C 
ATOM     29  C   UNL     1      34.934 -15.115 -21.781  0.00  0.00    +0.142 C 
ENDBRANCH  21  24
ENDBRANCH  18  21
ENDBRANCH  15  19
BRANCH  14  30
ATOM     30  O   UNL     1      37.177 -22.179 -16.910  0.00  0.00    -0.502 OA
ATOM     31  H   UNL     1      37.527 -21.521 -16.343  0.00  0.00    +0.292 HD
ENDBRANCH  14  30
TORSDOF 4
ENDMDL
MODEL 5
REMARK VINA RESULT:     -11.1      3.867      6.167
REMARK  Name = 54713659
REMARK  4 active torsions:
REMARK  status: ('A' for Active; 'I' for Inactive)
REMARK    1  A    between atoms: C_14  and  O_30
REMARK    2  A    between atoms: C_15  and  C_19
REMARK    3  A    between atoms: N_18  and  C_21
REMARK    4  A    between atoms: C_21  and  C_24
REMARK                            x       y       z     vdW  Elec       q    Type
REMARK                         _______ _______ _______ _____ _____    ______ ____
ROOT
ATOM      1  O   UNL     1      33.213  -6.880 -23.331  0.00  0.00    -0.334 OA
ATOM      2  O   UNL     1      31.258  -9.248 -19.918  0.00  0.00    -0.268 OA
ATOM      3  O   UNL     1      32.782 -14.050 -20.847  0.00  0.00    -0.283 OA
ATOM      4  N   UNL     1      32.386  -8.148 -21.594  0.00  0.00    -0.251 N 
ATOM      5  N   UNL     1      32.878 -10.543 -22.887  0.00  0.00    -0.275 N 
ATOM      6  C   UNL     1      33.295  -8.170 -22.710  0.00  0.00    +0.215 C 
ATOM      7  C   UNL     1      31.955  -6.797 -21.332  0.00  0.00    +0.107 C 
ATOM      8  C   UNL     1      32.906  -9.291 -23.652  0.00  0.00    +0.147 C 
ATOM      9  C   UNL     1      32.123  -6.171 -22.706  0.00  0.00    +0.164 C 
ATOM     10  C   UNL     1      31.972  -9.276 -20.919  0.00  0.00    +0.268 C 
ATOM     11  C   UNL     1      32.427 -10.573 -21.554  0.00  0.00    +0.143 C 
ATOM     12  C   UNL     1      32.832  -6.133 -20.276  0.00  0.00    +0.024 C 
ATOM     13  C   UNL     1      33.246 -11.737 -23.491  0.00  0.00    +0.074 C 
ATOM     14  C   UNL     1      32.370 -11.709 -20.827  0.00  0.00    +0.191 C 
ATOM     15  C   UNL     1      33.238 -12.933 -22.889  0.00  0.00    +0.110 C 
ATOM     16  C   UNL     1      32.799 -12.992 -21.470  0.00  0.00    +0.236 C 
ENDROOT
BRANCH  15  19
ATOM     17  O   UNL     1      33.093 -14.415 -24.706  0.00  0.00    -0.270 OA
ATOM     18  N   UNL     1      34.721 -14.780 -23.078  0.00  0.00    -0.297 N 
ATOM     19  C   UNL     1      33.660 -14.105 -23.658  0.00  0.00    +0.251 C 
ATOM     20  H   UNL     1      35.090 -14.432 -22.234  0.00  0.00    +0.150 HD
BRANCH  18  21
ATOM     21  C   UNL     1      35.315 -15.969 -23.646  0.00  0.00    +0.119 C 
BRANCH  21  24
ATOM     22  F   UNL     1      34.143 -18.386 -24.533  0.00  0.00    -0.204 F 
ATOM     23  F   UNL     1      34.655 -20.455 -20.307  0.00  0.00    -0.204 F 
ATOM     24  C   UNL     1      35.139 -17.166 -22.757  0.00  0.00    +0.025 C 
ATOM     25  C   UNL     1      34.552 -18.328 -23.257  0.00  0.00    +0.140 C 
ATOM     26  C   UNL     1      35.562 -17.115 -21.428  0.00  0.00    +0.002 C 
ATOM     27  C   UNL     1      34.388 -19.439 -22.431  0.00  0.00    +0.059 C 
ATOM     28  C   UNL     1      35.398 -18.226 -20.601  0.00  0.00    +0.030 C 
ATOM     29  C   UNL     1      34.812 -19.388 -21.102  0.00  0.00    +0.142 C 
ENDBRANCH  21  24
ENDBRANCH  18  21
ENDBRANCH  15  19
BRANCH  14  30
ATOM     30  O   UNL     1      31.950 -11.765 -19.517  0.00  0.00    -0.502 OA
ATOM     31  H   UNL     1      32.552 -11.583 -18.823  0.00  0.00    +0.292 HD
ENDBRANCH  14  30
TORSDOF 4
ENDMDL
MODEL 6
REMARK VINA RESULT:     -11.0      3.005      4.538
REMARK  Name = 54713659
REMARK  4 active torsions:
REMARK  status: ('A' for Active; 'I' for Inactive)
REMARK    1  A    between atoms: C_14  and  O_30
REMARK    2  A    between atoms: C_15  and  C_19
REMARK    3  A    between atoms: N_18  and  C_21
REMARK    4  A    between atoms: C_21  and  C_24
REMARK                            x       y       z     vdW  Elec       q    Type
REMARK                         _______ _______ _______ _____ _____    ______ ____
ROOT
ATOM      1  O   UNL     1      33.241  -8.474 -23.610  0.00  0.00    -0.334 OA
ATOM      2  O   UNL     1      31.091 -10.791 -20.280  0.00  0.00    -0.268 OA
ATOM      3  O   UNL     1      33.561 -15.279 -20.241  0.00  0.00    -0.283 OA
ATOM      4  N   UNL     1      32.320  -9.681 -21.878  0.00  0.00    -0.251 N 
ATOM      5  N   UNL     1      33.454 -12.063 -22.712  0.00  0.00    -0.275 N 
ATOM      6  C   UNL     1      33.418  -9.649 -22.807  0.00  0.00    +0.215 C 
ATOM      7  C   UNL     1      31.623  -8.419 -21.889  0.00  0.00    +0.107 C 
ATOM      8  C   UNL     1      33.417 -10.919 -23.631  0.00  0.00    +0.147 C 
ATOM      9  C   UNL     1      31.946  -7.926 -23.288  0.00  0.00    +0.164 C 
ATOM     10  C   UNL     1      31.980 -10.789 -21.129  0.00  0.00    +0.268 C 
ATOM     11  C   UNL     1      32.764 -12.034 -21.486  0.00  0.00    +0.143 C 
ATOM     12  C   UNL     1      32.151  -7.488 -20.803  0.00  0.00    +0.024 C 
ATOM     13  C   UNL     1      34.130 -13.221 -23.067  0.00  0.00    +0.074 C 
ATOM     14  C   UNL     1      32.761 -13.074 -20.625  0.00  0.00    +0.191 C 
ATOM     15  C   UNL     1      34.208 -14.324 -22.312  0.00  0.00    +0.110 C 
ATOM     16  C   UNL     1      33.518 -14.312 -20.996  0.00  0.00    +0.236 C 
ENDROOT
BRANCH  15  19
ATOM     17  O   UNL     1      35.249 -15.560 -24.017  0.00  0.00    -0.270 OA
ATOM     18  N   UNL     1      35.297 -16.381 -21.836  0.00  0.00    -0.297 N 
ATOM     19  C   UNL     1      34.965 -15.468 -22.822  0.00  0.00    +0.251 C 
ATOM     20  H   UNL     1      35.011 -16.195 -20.912  0.00  0.00    +0.150 HD
BRANCH  18  21
ATOM     21  C   UNL     1      36.041 -17.594 -22.090  0.00  0.00    +0.119 C 
BRANCH  21  24
ATOM     22  F   UNL     1      37.838 -19.155 -20.560  0.00  0.00    -0.204 F 
ATOM     23  F   UNL     1      34.363 -21.827 -18.777  0.00  0.00    -0.204 F 
ATOM     24  C   UNL     1      35.595 -18.723 -21.206  0.00  0.00    +0.025 C 
ATOM     25  C   UNL     1      36.533 -19.454 -20.478  0.00  0.00    +0.140 C 
ATOM     26  C   UNL     1      34.239 -19.041 -21.114  0.00  0.00    +0.002 C 
ATOM     27  C   UNL     1      36.118 -20.502 -19.657  0.00  0.00    +0.059 C 
ATOM     28  C   UNL     1      33.824 -20.090 -20.294  0.00  0.00    +0.030 C 
ATOM     29  C   UNL     1      34.762 -20.820 -19.565  0.00  0.00    +0.142 C 
ENDBRANCH  21  24
ENDBRANCH  18  21
ENDBRANCH  15  19
BRANCH  14  30
ATOM     30  O   UNL     1      32.110 -13.068 -19.412  0.00  0.00    -0.502 OA
ATOM     31  H   UNL     1      31.291 -13.513 -19.317  0.00  0.00    +0.292 HD
ENDBRANCH  14  30
TORSDOF 4
ENDMDL
MODEL 7
REMARK VINA RESULT:     -10.6      4.164      7.215
REMARK  Name = 54713659
REMARK  4 active torsions:
REMARK  status: ('A' for Active; 'I' for Inactive)
REMARK    1  A    between atoms: C_14  and  O_30
REMARK    2  A    between atoms: C_15  and  C_19
REMARK    3  A    between atoms: N_18  and  C_21
REMARK    4  A    between atoms: C_21  and  C_24
REMARK                            x       y       z     vdW  Elec       q    Type
REMARK                         _______ _______ _______ _____ _____    ______ ____
ROOT
ATOM      1  O   UNL     1      37.930 -18.676 -20.637  0.00  0.00    -0.334 OA
ATOM      2  O   UNL     1      33.574 -19.686 -21.677  0.00  0.00    -0.268 OA
ATOM      3  O   UNL     1      32.035 -22.401 -17.615  0.00  0.00    -0.283 OA
ATOM      4  N   UNL     1      35.701 -19.134 -20.996  0.00  0.00    -0.251 N 
ATOM      5  N   UNL     1      35.600 -21.049 -19.002  0.00  0.00    -0.275 N 
ATOM      6  C   UNL     1      36.742 -19.169 -20.003  0.00  0.00    +0.215 C 
ATOM      7  C   UNL     1      36.133 -18.371 -22.141  0.00  0.00    +0.107 C 
ATOM      8  C   UNL     1      36.903 -20.587 -19.495  0.00  0.00    +0.147 C 
ATOM      9  C   UNL     1      37.640 -18.536 -22.042  0.00  0.00    +0.164 C 
ATOM     10  C   UNL     1      34.491 -19.781 -20.864  0.00  0.00    +0.268 C 
ATOM     11  C   UNL     1      34.404 -20.677 -19.646  0.00  0.00    +0.143 C 
ATOM     12  C   UNL     1      35.696 -16.914 -22.030  0.00  0.00    +0.024 C 
ATOM     13  C   UNL     1      35.530 -21.912 -17.918  0.00  0.00    +0.074 C 
ATOM     14  C   UNL     1      33.190 -21.098 -19.232  0.00  0.00    +0.191 C 
ATOM     15  C   UNL     1      34.397 -22.405 -17.404  0.00  0.00    +0.110 C 
ATOM     16  C   UNL     1      33.115 -22.004 -18.041  0.00  0.00    +0.236 C 
ENDROOT
BRANCH  15  19
ATOM     17  O   UNL     1      34.059 -24.457 -16.312  0.00  0.00    -0.270 OA
ATOM     18  N   UNL     1      35.076 -22.713 -15.148  0.00  0.00    -0.297 N 
ATOM     19  C   UNL     1      34.485 -23.303 -16.253  0.00  0.00    +0.251 C 
ATOM     20  H   UNL     1      35.378 -21.778 -15.225  0.00  0.00    +0.150 HD
BRANCH  18  21
ATOM     21  C   UNL     1      35.274 -23.395 -13.889  0.00  0.00    +0.119 C 
BRANCH  21  24
ATOM     22  F   UNL     1      35.966 -25.266 -11.883  0.00  0.00    -0.204 F 
ATOM     23  F   UNL     1      40.346 -25.822 -13.586  0.00  0.00    -0.204 F 
ATOM     24  C   UNL     1      36.626 -24.043 -13.807  0.00  0.00    +0.025 C 
ATOM     25  C   UNL     1      36.903 -24.957 -12.791  0.00  0.00    +0.140 C 
ATOM     26  C   UNL     1      37.608 -23.729 -14.749  0.00  0.00    +0.002 C 
ATOM     27  C   UNL     1      38.158 -25.559 -12.716  0.00  0.00    +0.059 C 
ATOM     28  C   UNL     1      38.864 -24.329 -14.673  0.00  0.00    +0.030 C 
ATOM     29  C   UNL     1      39.140 -25.245 -13.657  0.00  0.00    +0.142 C 
ENDBRANCH  21  24
ENDBRANCH  18  21
ENDBRANCH  15  19
BRANCH  14  30
ATOM     30  O   UNL     1      32.005 -20.737 -19.831  0.00  0.00    -0.502 OA
ATOM     31  H   UNL     1      31.343 -20.299 -19.334  0.00  0.00    +0.292 HD
ENDBRANCH  14  30
TORSDOF 4
ENDMDL
MODEL 8
REMARK VINA RESULT:     -10.6      1.314      2.444
REMARK  Name = 54713659
REMARK  4 active torsions:
REMARK  status: ('A' for Active; 'I' for Inactive)
REMARK    1  A    between atoms: C_14  and  O_30
REMARK    2  A    between atoms: C_15  and  C_19
REMARK    3  A    between atoms: N_18  and  C_21
REMARK    4  A    between atoms: C_21  and  C_24
REMARK                            x       y       z     vdW  Elec       q    Type
REMARK                         _______ _______ _______ _____ _____    ______ ____
ROOT
ATOM      1  O   UNL     1      34.197 -13.963 -26.584  0.00  0.00    -0.334 OA
ATOM      2  O   UNL     1      32.708 -12.998 -22.350  0.00  0.00    -0.268 OA
ATOM      3  O   UNL     1      35.360 -16.274 -19.438  0.00  0.00    -0.283 OA
ATOM      4  N   UNL     1      33.617 -13.478 -24.408  0.00  0.00    -0.251 N 
ATOM      5  N   UNL     1      34.716 -15.816 -23.418  0.00  0.00    -0.275 N 
ATOM      6  C   UNL     1      34.553 -14.213 -25.218  0.00  0.00    +0.215 C 
ATOM      7  C   UNL     1      32.869 -12.557 -25.226  0.00  0.00    +0.107 C 
ATOM      8  C   UNL     1      34.482 -15.683 -24.861  0.00  0.00    +0.147 C 
ATOM      9  C   UNL     1      32.945 -13.247 -26.577  0.00  0.00    +0.164 C 
ATOM     10  C   UNL     1      33.451 -13.679 -23.054  0.00  0.00    +0.268 C 
ATOM     11  C   UNL     1      34.226 -14.860 -22.508  0.00  0.00    +0.143 C 
ATOM     12  C   UNL     1      33.517 -11.177 -25.237  0.00  0.00    +0.024 C 
ATOM     13  C   UNL     1      35.381 -16.927 -22.919  0.00  0.00    +0.074 C 
ATOM     14  C   UNL     1      34.407 -14.960 -21.174  0.00  0.00    +0.191 C 
ATOM     15  C   UNL     1      35.628 -17.154 -21.623  0.00  0.00    +0.110 C 
ATOM     16  C   UNL     1      35.154 -16.144 -20.641  0.00  0.00    +0.236 C 
ENDROOT
BRANCH  15  19
ATOM     17  O   UNL     1      37.483 -18.594 -21.675  0.00  0.00    -0.270 OA
ATOM     18  N   UNL     1      35.620 -19.197 -20.410  0.00  0.00    -0.297 N 
ATOM     19  C   UNL     1      36.348 -18.372 -21.252  0.00  0.00    +0.251 C 
ATOM     20  H   UNL     1      34.717 -18.908 -20.141  0.00  0.00    +0.150 HD
BRANCH  18  21
ATOM     21  C   UNL     1      36.113 -20.459 -19.906  0.00  0.00    +0.119 C 
BRANCH  21  24
ATOM     22  F   UNL     1      36.776 -22.059 -17.669  0.00  0.00    -0.204 F 
ATOM     23  F   UNL     1      32.250 -23.147 -16.815  0.00  0.00    -0.204 F 
ATOM     24  C   UNL     1      35.084 -21.176 -19.081  0.00  0.00    +0.025 C 
ATOM     25  C   UNL     1      35.479 -21.950 -17.990  0.00  0.00    +0.140 C 
ATOM     26  C   UNL     1      33.731 -21.068 -19.407  0.00  0.00    +0.002 C 
ATOM     27  C   UNL     1      34.522 -22.616 -17.224  0.00  0.00    +0.059 C 
ATOM     28  C   UNL     1      32.775 -21.735 -18.642  0.00  0.00    +0.030 C 
ATOM     29  C   UNL     1      33.169 -22.508 -17.550  0.00  0.00    +0.142 C 
ENDBRANCH  21  24
ENDBRANCH  18  21
ENDBRANCH  15  19
BRANCH  14  30
ATOM     30  O   UNL     1      33.955 -14.032 -20.264  0.00  0.00    -0.502 OA
ATOM     31  H   UNL     1      34.480 -13.284 -20.057  0.00  0.00    +0.292 HD
ENDBRANCH  14  30
TORSDOF 4
ENDMDL
MODEL 9
REMARK VINA RESULT:     -10.3      5.466     10.547
REMARK  Name = 54713659
REMARK  4 active torsions:
REMARK  status: ('A' for Active; 'I' for Inactive)
REMARK    1  A    between atoms: C_14  and  O_30
REMARK    2  A    between atoms: C_15  and  C_19
REMARK    3  A    between atoms: N_18  and  C_21
REMARK    4  A    between atoms: C_21  and  C_24
REMARK                            x       y       z     vdW  Elec       q    Type
REMARK                         _______ _______ _______ _____ _____    ______ ____
ROOT
ATOM      1  O   UNL     1      29.898 -23.680 -15.260  0.00  0.00    -0.334 OA
ATOM      2  O   UNL     1      33.834 -24.351 -12.994  0.00  0.00    -0.268 OA
ATOM      3  O   UNL     1      37.279 -22.026 -15.987  0.00  0.00    -0.283 OA
ATOM      4  N   UNL     1      31.908 -23.847 -14.148  0.00  0.00    -0.251 N 
ATOM      5  N   UNL     1      33.388 -23.108 -16.366  0.00  0.00    -0.275 N 
ATOM      6  C   UNL     1      31.247 -23.196 -15.248  0.00  0.00    +0.215 C 
ATOM      7  C   UNL     1      30.940 -24.503 -13.305  0.00  0.00    +0.107 C 
ATOM      8  C   UNL     1      31.985 -23.508 -16.533  0.00  0.00    +0.147 C 
ATOM      9  C   UNL     1      29.818 -24.753 -14.299  0.00  0.00    +0.164 C 
ATOM     10  C   UNL     1      33.276 -23.861 -13.974  0.00  0.00    +0.268 C 
ATOM     11  C   UNL     1      34.049 -23.268 -15.133  0.00  0.00    +0.143 C 
ATOM     12  C   UNL     1      30.511 -23.602 -12.153  0.00  0.00    +0.024 C 
ATOM     13  C   UNL     1      34.106 -22.614 -17.446  0.00  0.00    +0.074 C 
ATOM     14  C   UNL     1      35.342 -22.929 -14.949  0.00  0.00    +0.191 C 
ATOM     15  C   UNL     1      35.390 -22.241 -17.404  0.00  0.00    +0.110 C 
ATOM     16  C   UNL     1      36.106 -22.365 -16.107  0.00  0.00    +0.236 C 
ENDROOT
BRANCH  15  19
ATOM     17  O   UNL     1      36.028 -22.407 -19.658  0.00  0.00    -0.270 OA
ATOM     18  N   UNL     1      36.546 -20.464 -18.479  0.00  0.00    -0.297 N 
ATOM     19  C   UNL     1      36.010 -21.733 -18.628  0.00  0.00    +0.251 C 
ATOM     20  H   UNL     1      36.468 -20.026 -17.601  0.00  0.00    +0.150 HD
BRANCH  18  21
ATOM     21  C   UNL     1      37.213 -19.750 -19.544  0.00  0.00    +0.119 C 
BRANCH  21  24
ATOM     22  F   UNL     1      38.025 -18.321 -21.846  0.00  0.00    -0.204 F 
ATOM     23  F   UNL     1      33.640 -18.232 -23.622  0.00  0.00    -0.204 F 
ATOM     24  C   UNL     1      36.261 -19.345 -20.632  0.00  0.00    +0.025 C 
ATOM     25  C   UNL     1      36.728 -18.640 -21.742  0.00  0.00    +0.140 C 
ATOM     26  C   UNL     1      34.909 -19.673 -20.532  0.00  0.00    +0.002 C 
ATOM     27  C   UNL     1      35.843 -18.265 -22.752  0.00  0.00    +0.059 C 
ATOM     28  C   UNL     1      34.024 -19.296 -21.542  0.00  0.00    +0.030 C 
ATOM     29  C   UNL     1      34.490 -18.593 -22.653  0.00  0.00    +0.142 C 
ENDBRANCH  21  24
ENDBRANCH  18  21
ENDBRANCH  15  19
BRANCH  14  30
ATOM     30  O   UNL     1      36.008 -23.058 -13.751  0.00  0.00    -0.502 OA
ATOM     31  H   UNL     1      36.507 -22.341 -13.412  0.00  0.00    +0.292 HD
ENDBRANCH  14  30
TORSDOF 4
ENDMDL
