MODEL 1
REMARK VINA RESULT:     -12.6      0.000      0.000
REMARK  Name = 11697676
REMARK  7 active torsions:
REMARK  status: ('A' for Active; 'I' for Inactive)
REMARK    1  A    between atoms: N_1  and  C_18
REMARK    2  A    between atoms: N_2  and  C_8
REMARK    3  A    between atoms: C_18  and  C_19
REMARK    4  A    between atoms: C_19  and  C_20
REMARK    5  A    between atoms: C_20  and  C_21
REMARK    6  A    between atoms: C_21  and  O_22
REMARK    7  A    between atoms: O_22  and  C_28
REMARK                            x       y       z     vdW  Elec       q    Type
REMARK                         _______ _______ _______ _____ _____    ______ ____
ROOT
ATOM      1  N   UNL     1      34.145 -16.054 -23.882  0.00  0.00    +0.389 N 
ATOM      2  N   UNL     1      33.948 -13.218 -23.602  0.00  0.00    -0.312 N 
ATOM      3  C   UNL     1      35.097 -15.324 -23.034  0.00  0.00    -0.055 C 
ATOM      4  C   UNL     1      33.751 -15.220 -25.024  0.00  0.00    -0.055 C 
ATOM      5  C   UNL     1      34.475 -14.031 -22.499  0.00  0.00    +0.068 C 
ATOM      6  C   UNL     1      33.086 -13.924 -24.554  0.00  0.00    +0.068 C 
ATOM      7  H   UNL     1      33.315 -16.273 -23.331  0.00  0.00    -0.080 HD
ENDROOT
BRANCH   2   8
ATOM      8  C   UNL     1      33.761 -11.850 -23.378  0.00  0.00    +0.048 C 
ATOM      9  C   UNL     1      32.887 -11.346 -22.374  0.00  0.00    +0.013 C 
ATOM     10  C   UNL     1      34.465 -10.923 -24.178  0.00  0.00    +0.015 C 
ATOM     11  C   UNL     1      32.735  -9.951 -22.190  0.00  0.00    +0.001 C 
ATOM     12  C   UNL     1      32.167 -12.230 -21.555  0.00  0.00    +0.001 C 
ATOM     13  C   UNL     1      34.315  -9.551 -23.996  0.00  0.00    +0.001 C 
ATOM     14  C   UNL     1      33.457  -9.068 -23.009  0.00  0.00    +0.000 C 
ATOM     15  C   UNL     1      31.866  -9.481 -21.192  0.00  0.00    +0.000 C 
ATOM     16  C   UNL     1      31.308 -11.746 -20.568  0.00  0.00    +0.000 C 
ATOM     17  C   UNL     1      31.157 -10.374 -20.387  0.00  0.00    +0.000 C 
ENDBRANCH   2   8
BRANCH   1  18
ATOM     18  C   UNL     1      34.730 -17.313 -24.343  0.00  0.00    -0.077 C 
BRANCH  18  19
ATOM     19  C   UNL     1      33.972 -18.499 -23.751  0.00  0.00    -0.019 C 
BRANCH  19  20
ATOM     20  C   UNL     1      34.911 -19.429 -22.985  0.00  0.00    +0.045 C 
BRANCH  20  21
ATOM     21  C   UNL     1      34.852 -19.179 -21.484  0.00  0.00    +0.208 C 
BRANCH  21  22
ATOM     22  O   UNL     1      33.696 -19.799 -20.938  0.00  0.00    -0.452 OA
BRANCH  22  28
ATOM     23  O   UNL     1      30.866 -23.481 -15.726  0.00  0.00    -0.275 OA
ATOM     24  N   UNL     1      31.837 -22.326 -17.458  0.00  0.00    -0.263 N 
ATOM     25  N   UNL     1      32.787 -21.054 -19.211  0.00  0.00    -0.357 NA
ATOM     26  C   UNL     1      34.235 -22.315 -17.743  0.00  0.00    +0.090 C 
ATOM     27  C   UNL     1      34.362 -23.318 -16.636  0.00  0.00    +0.022 C 
ATOM     28  C   UNL     1      33.891 -20.639 -19.872  0.00  0.00    +0.278 C 
ATOM     29  C   UNL     1      32.976 -21.876 -18.152  0.00  0.00    +0.170 C 
ATOM     30  C   UNL     1      33.239 -23.151 -15.625  0.00  0.00    +0.086 C 
ATOM     31  C   UNL     1      35.347 -21.875 -18.461  0.00  0.00    -0.012 C 
ATOM     32  C   UNL     1      35.180 -21.015 -19.539  0.00  0.00    +0.068 C 
ATOM     33  C   UNL     1      31.876 -23.041 -16.276  0.00  0.00    +0.228 C 
ATOM     34  H   UNL     1      30.954 -22.119 -17.840  0.00  0.00    +0.157 HD
ENDBRANCH  22  28
ENDBRANCH  21  22
ENDBRANCH  20  21
ENDBRANCH  19  20
ENDBRANCH  18  19
ENDBRANCH   1  18
TORSDOF 7
ENDMDL
MODEL 2
REMARK VINA RESULT:     -12.5      3.042      5.718
REMARK  Name = 11697676
REMARK  7 active torsions:
REMARK  status: ('A' for Active; 'I' for Inactive)
REMARK    1  A    between atoms: N_1  and  C_18
REMARK    2  A    between atoms: N_2  and  C_8
REMARK    3  A    between atoms: C_18  and  C_19
REMARK    4  A    between atoms: C_19  and  C_20
REMARK    5  A    between atoms: C_20  and  C_21
REMARK    6  A    between atoms: C_21  and  O_22
REMARK    7  A    between atoms: O_22  and  C_28
REMARK                            x       y       z     vdW  Elec       q    Type
REMARK                         _______ _______ _______ _____ _____    ______ ____
ROOT
ATOM      1  N   UNL     1      35.678 -20.926 -19.791  0.00  0.00    +0.389 N 
ATOM      2  N   UNL     1      35.194 -18.619 -21.404  0.00  0.00    -0.312 N 
ATOM      3  C   UNL     1      34.309 -20.432 -19.988  0.00  0.00    -0.055 C 
ATOM      4  C   UNL     1      36.619 -19.799 -19.778  0.00  0.00    -0.055 C 
ATOM      5  C   UNL     1      34.183 -19.680 -21.315  0.00  0.00    +0.068 C 
ATOM      6  C   UNL     1      36.568 -19.026 -21.098  0.00  0.00    +0.068 C 
ATOM      7  H   UNL     1      35.918 -21.547 -20.564  0.00  0.00    -0.080 HD
ENDROOT
BRANCH   2   8
ATOM      8  C   UNL     1      34.964 -17.565 -22.297  0.00  0.00    +0.048 C 
ATOM      9  C   UNL     1      34.825 -16.214 -21.873  0.00  0.00    +0.013 C 
ATOM     10  C   UNL     1      34.865 -17.847 -23.676  0.00  0.00    +0.015 C 
ATOM     11  C   UNL     1      34.593 -15.187 -22.817  0.00  0.00    +0.001 C 
ATOM     12  C   UNL     1      34.916 -15.887 -20.510  0.00  0.00    +0.001 C 
ATOM     13  C   UNL     1      34.638 -16.836 -24.606  0.00  0.00    +0.001 C 
ATOM     14  C   UNL     1      34.503 -15.514 -24.180  0.00  0.00    +0.000 C 
ATOM     15  C   UNL     1      34.459 -13.862 -22.372  0.00  0.00    +0.000 C 
ATOM     16  C   UNL     1      34.780 -14.565 -20.085  0.00  0.00    +0.000 C 
ATOM     17  C   UNL     1      34.552 -13.554 -21.014  0.00  0.00    +0.000 C 
ENDBRANCH   2   8
BRANCH   1  18
ATOM     18  C   UNL     1      35.773 -21.688 -18.547  0.00  0.00    -0.077 C 
BRANCH  18  19
ATOM     19  C   UNL     1      36.840 -21.085 -17.635  0.00  0.00    -0.019 C 
BRANCH  19  20
ATOM     20  C   UNL     1      37.254 -22.069 -16.542  0.00  0.00    +0.045 C 
BRANCH  20  21
ATOM     21  C   UNL     1      36.147 -22.266 -15.514  0.00  0.00    +0.208 C 
BRANCH  21  22
ATOM     22  O   UNL     1      35.481 -23.497 -15.754  0.00  0.00    -0.452 OA
BRANCH  22  28
ATOM     23  O   UNL     1      28.670 -22.379 -16.798  0.00  0.00    -0.275 OA
ATOM     24  N   UNL     1      30.895 -22.813 -16.433  0.00  0.00    -0.263 N 
ATOM     25  N   UNL     1      33.208 -23.163 -16.079  0.00  0.00    -0.357 NA
ATOM     26  C   UNL     1      31.634 -23.820 -14.366  0.00  0.00    +0.090 C 
ATOM     27  C   UNL     1      30.204 -24.009 -13.958  0.00  0.00    +0.022 C 
ATOM     28  C   UNL     1      34.200 -23.610 -15.278  0.00  0.00    +0.278 C 
ATOM     29  C   UNL     1      31.943 -23.265 -15.608  0.00  0.00    +0.170 C 
ATOM     30  C   UNL     1      29.324 -22.923 -14.556  0.00  0.00    +0.086 C 
ATOM     31  C   UNL     1      32.687 -24.283 -13.576  0.00  0.00    -0.012 C 
ATOM     32  C   UNL     1      33.995 -24.170 -14.030  0.00  0.00    +0.068 C 
ATOM     33  C   UNL     1      29.577 -22.712 -16.035  0.00  0.00    +0.228 C 
ATOM     34  H   UNL     1      31.117 -22.552 -17.356  0.00  0.00    +0.157 HD
ENDBRANCH  22  28
ENDBRANCH  21  22
ENDBRANCH  20  21
ENDBRANCH  19  20
ENDBRANCH  18  19
ENDBRANCH   1  18
TORSDOF 7
ENDMDL
MODEL 3
REMARK VINA RESULT:     -12.4      1.976      2.402
REMARK  Name = 11697676
REMARK  7 active torsions:
REMARK  status: ('A' for Active; 'I' for Inactive)
REMARK    1  A    between atoms: N_1  and  C_18
REMARK    2  A    between atoms: N_2  and  C_8
REMARK    3  A    between atoms: C_18  and  C_19
REMARK    4  A    between atoms: C_19  and  C_20
REMARK    5  A    between atoms: C_20  and  C_21
REMARK    6  A    between atoms: C_21  and  O_22
REMARK    7  A    between atoms: O_22  and  C_28
REMARK                            x       y       z     vdW  Elec       q    Type
REMARK                         _______ _______ _______ _____ _____    ______ ____
ROOT
ATOM      1  N   UNL     1      34.584 -16.402 -24.129  0.00  0.00    +0.389 N 
ATOM      2  N   UNL     1      33.870 -13.690 -23.584  0.00  0.00    -0.312 N 
ATOM      3  C   UNL     1      33.410 -15.799 -24.773  0.00  0.00    -0.055 C 
ATOM      4  C   UNL     1      34.755 -15.844 -22.781  0.00  0.00    -0.055 C 
ATOM      5  C   UNL     1      33.568 -14.281 -24.893  0.00  0.00    +0.068 C 
ATOM      6  C   UNL     1      34.957 -14.328 -22.835  0.00  0.00    +0.068 C 
ATOM      7  H   UNL     1      35.412 -16.184 -24.684  0.00  0.00    -0.080 HD
ENDROOT
BRANCH   2   8
ATOM      8  C   UNL     1      33.609 -12.328 -23.402  0.00  0.00    +0.048 C 
ATOM      9  C   UNL     1      32.846 -11.829 -22.309  0.00  0.00    +0.013 C 
ATOM     10  C   UNL     1      34.119 -11.402 -24.338  0.00  0.00    +0.015 C 
ATOM     11  C   UNL     1      32.611 -10.440 -22.172  0.00  0.00    +0.001 C 
ATOM     12  C   UNL     1      32.319 -12.712 -21.353  0.00  0.00    +0.001 C 
ATOM     13  C   UNL     1      33.888 -10.036 -24.204  0.00  0.00    +0.001 C 
ATOM     14  C   UNL     1      33.140  -9.557 -23.128  0.00  0.00    +0.000 C 
ATOM     15  C   UNL     1      31.855  -9.975 -21.084  0.00  0.00    +0.000 C 
ATOM     16  C   UNL     1      31.570 -12.232 -20.277  0.00  0.00    +0.000 C 
ATOM     17  C   UNL     1      31.338 -10.867 -20.144  0.00  0.00    +0.000 C 
ENDBRANCH   2   8
BRANCH   1  18
ATOM     18  C   UNL     1      34.446 -17.856 -24.069  0.00  0.00    -0.077 C 
BRANCH  18  19
ATOM     19  C   UNL     1      35.189 -18.411 -22.855  0.00  0.00    -0.019 C 
BRANCH  19  20
ATOM     20  C   UNL     1      34.331 -19.419 -22.094  0.00  0.00    +0.045 C 
BRANCH  20  21
ATOM     21  C   UNL     1      34.631 -19.401 -20.601  0.00  0.00    +0.208 C 
BRANCH  21  22
ATOM     22  O   UNL     1      35.533 -20.450 -20.278  0.00  0.00    -0.452 OA
BRANCH  22  28
ATOM     23  O   UNL     1      37.771 -22.939 -14.152  0.00  0.00    -0.275 OA
ATOM     24  N   UNL     1      36.974 -22.099 -16.136  0.00  0.00    -0.263 N 
ATOM     25  N   UNL     1      36.236 -21.272 -18.226  0.00  0.00    -0.357 NA
ATOM     26  C   UNL     1      34.741 -22.622 -16.890  0.00  0.00    +0.090 C 
ATOM     27  C   UNL     1      34.473 -23.313 -15.586  0.00  0.00    +0.022 C 
ATOM     28  C   UNL     1      35.255 -21.179 -19.151  0.00  0.00    +0.278 C 
ATOM     29  C   UNL     1      35.968 -22.000 -17.115  0.00  0.00    +0.170 C 
ATOM     30  C   UNL     1      35.752 -23.903 -15.014  0.00  0.00    +0.086 C 
ATOM     31  C   UNL     1      33.751 -22.490 -17.864  0.00  0.00    -0.012 C 
ATOM     32  C   UNL     1      34.009 -21.765 -19.020  0.00  0.00    +0.068 C 
ATOM     33  C   UNL     1      36.907 -22.923 -15.029  0.00  0.00    +0.228 C 
ATOM     34  H   UNL     1      37.780 -21.544 -16.247  0.00  0.00    +0.157 HD
ENDBRANCH  22  28
ENDBRANCH  21  22
ENDBRANCH  20  21
ENDBRANCH  19  20
ENDBRANCH  18  19
ENDBRANCH   1  18
TORSDOF 7
ENDMDL
MODEL 4
REMARK VINA RESULT:     -12.4      3.314      6.066
REMARK  Name = 11697676
REMARK  7 active torsions:
REMARK  status: ('A' for Active; 'I' for Inactive)
REMARK    1  A    between atoms: N_1  and  C_18
REMARK    2  A    between atoms: N_2  and  C_8
REMARK    3  A    between atoms: C_18  and  C_19
REMARK    4  A    between atoms: C_19  and  C_20
REMARK    5  A    between atoms: C_20  and  C_21
REMARK    6  A    between atoms: C_21  and  O_22
REMARK    7  A    between atoms: O_22  and  C_28
REMARK                            x       y       z     vdW  Elec       q    Type
REMARK                         _______ _______ _______ _____ _____    ______ ____
ROOT
ATOM      1  N   UNL     1      35.432 -20.793 -19.909  0.00  0.00    +0.389 N 
ATOM      2  N   UNL     1      35.059 -18.479 -21.541  0.00  0.00    -0.312 N 
ATOM      3  C   UNL     1      34.082 -20.278 -20.170  0.00  0.00    -0.055 C 
ATOM      4  C   UNL     1      36.388 -19.680 -19.850  0.00  0.00    -0.055 C 
ATOM      5  C   UNL     1      34.030 -19.524 -21.501  0.00  0.00    +0.068 C 
ATOM      6  C   UNL     1      36.412 -18.905 -21.170  0.00  0.00    +0.068 C 
ATOM      7  H   UNL     1      35.699 -21.417 -20.670  0.00  0.00    -0.080 HD
ENDROOT
BRANCH   2   8
ATOM      8  C   UNL     1      34.888 -17.421 -22.442  0.00  0.00    +0.048 C 
ATOM      9  C   UNL     1      34.773 -16.066 -22.025  0.00  0.00    +0.013 C 
ATOM     10  C   UNL     1      34.824 -17.704 -23.823  0.00  0.00    +0.015 C 
ATOM     11  C   UNL     1      34.600 -15.034 -22.978  0.00  0.00    +0.001 C 
ATOM     12  C   UNL     1      34.830 -15.737 -20.661  0.00  0.00    +0.001 C 
ATOM     13  C   UNL     1      34.655 -16.689 -24.762  0.00  0.00    +0.001 C 
ATOM     14  C   UNL     1      34.544 -15.363 -24.343  0.00  0.00    +0.000 C 
ATOM     15  C   UNL     1      34.489 -13.705 -22.540  0.00  0.00    +0.000 C 
ATOM     16  C   UNL     1      34.718 -14.411 -20.243  0.00  0.00    +0.000 C 
ATOM     17  C   UNL     1      34.548 -13.397 -21.181  0.00  0.00    +0.000 C 
ENDBRANCH   2   8
BRANCH   1  18
ATOM     18  C   UNL     1      35.457 -21.557 -18.662  0.00  0.00    -0.077 C 
BRANCH  18  19
ATOM     19  C   UNL     1      34.425 -22.682 -18.708  0.00  0.00    -0.019 C 
BRANCH  19  20
ATOM     20  C   UNL     1      33.213 -22.356 -17.839  0.00  0.00    +0.045 C 
BRANCH  20  21
ATOM     21  C   UNL     1      33.252 -23.106 -16.514  0.00  0.00    +0.208 C 
BRANCH  21  22
ATOM     22  O   UNL     1      34.446 -23.870 -16.428  0.00  0.00    -0.452 OA
BRANCH  22  28
ATOM     23  O   UNL     1      35.322 -25.106  -9.614  0.00  0.00    -0.275 OA
ATOM     24  N   UNL     1      35.102 -24.717 -11.867  0.00  0.00    -0.263 N 
ATOM     25  N   UNL     1      34.781 -24.283 -14.170  0.00  0.00    -0.357 NA
ATOM     26  C   UNL     1      36.719 -23.369 -13.050  0.00  0.00    +0.090 C 
ATOM     27  C   UNL     1      37.562 -23.310 -11.812  0.00  0.00    +0.022 C 
ATOM     28  C   UNL     1      35.215 -23.694 -15.307  0.00  0.00    +0.278 C 
ATOM     29  C   UNL     1      35.533 -24.103 -13.058  0.00  0.00    +0.170 C 
ATOM     30  C   UNL     1      36.696 -23.386 -10.565  0.00  0.00    +0.086 C 
ATOM     31  C   UNL     1      37.138 -22.790 -14.248  0.00  0.00    -0.012 C 
ATOM     32  C   UNL     1      36.373 -22.944 -15.397  0.00  0.00    +0.068 C 
ATOM     33  C   UNL     1      35.675 -24.504 -10.628  0.00  0.00    +0.228 C 
ATOM     34  H   UNL     1      34.342 -25.341 -11.920  0.00  0.00    +0.157 HD
ENDBRANCH  22  28
ENDBRANCH  21  22
ENDBRANCH  20  21
ENDBRANCH  19  20
ENDBRANCH  18  19
ENDBRANCH   1  18
TORSDOF 7
ENDMDL
MODEL 5
REMARK VINA RESULT:     -12.2      3.248      6.021
REMARK  Name = 11697676
REMARK  7 active torsions:
REMARK  status: ('A' for Active; 'I' for Inactive)
REMARK    1  A    between atoms: N_1  and  C_18
REMARK    2  A    between atoms: N_2  and  C_8
REMARK    3  A    between atoms: C_18  and  C_19
REMARK    4  A    between atoms: C_19  and  C_20
REMARK    5  A    between atoms: C_20  and  C_21
REMARK    6  A    between atoms: C_21  and  O_22
REMARK    7  A    between atoms: O_22  and  C_28
REMARK                            x       y       z     vdW  Elec       q    Type
REMARK                         _______ _______ _______ _____ _____    ______ ____
ROOT
ATOM      1  N   UNL     1      35.743 -20.473 -20.219  0.00  0.00    +0.389 N 
ATOM      2  N   UNL     1      35.155 -18.186 -21.825  0.00  0.00    -0.312 N 
ATOM      3  C   UNL     1      34.351 -20.063 -20.446  0.00  0.00    -0.055 C 
ATOM      4  C   UNL     1      36.611 -19.289 -20.173  0.00  0.00    -0.055 C 
ATOM      5  C   UNL     1      34.211 -19.308 -21.770  0.00  0.00    +0.068 C 
ATOM      6  C   UNL     1      36.544 -18.508 -21.488  0.00  0.00    +0.068 C 
ATOM      7  H   UNL     1      36.041 -21.070 -20.990  0.00  0.00    -0.080 HD
ENDROOT
BRANCH   2   8
ATOM      8  C   UNL     1      34.882 -17.140 -22.714  0.00  0.00    +0.048 C 
ATOM      9  C   UNL     1      34.722 -15.791 -22.291  0.00  0.00    +0.013 C 
ATOM     10  C   UNL     1      34.757 -17.428 -24.091  0.00  0.00    +0.015 C 
ATOM     11  C   UNL     1      34.446 -14.771 -23.233  0.00  0.00    +0.001 C 
ATOM     12  C   UNL     1      34.837 -15.458 -20.932  0.00  0.00    +0.001 C 
ATOM     13  C   UNL     1      34.486 -16.425 -25.018  0.00  0.00    +0.001 C 
ATOM     14  C   UNL     1      34.332 -15.105 -24.592  0.00  0.00    +0.000 C 
ATOM     15  C   UNL     1      34.293 -13.448 -22.788  0.00  0.00    +0.000 C 
ATOM     16  C   UNL     1      34.683 -14.138 -20.507  0.00  0.00    +0.000 C 
ATOM     17  C   UNL     1      34.411 -13.135 -21.433  0.00  0.00    +0.000 C 
ENDBRANCH   2   8
BRANCH   1  18
ATOM     18  C   UNL     1      35.856 -21.239 -18.978  0.00  0.00    -0.077 C 
BRANCH  18  19
ATOM     19  C   UNL     1      34.874 -22.410 -18.987  0.00  0.00    -0.019 C 
BRANCH  19  20
ATOM     20  C   UNL     1      33.784 -22.224 -17.932  0.00  0.00    +0.045 C 
BRANCH  20  21
ATOM     21  C   UNL     1      33.514 -23.514 -17.170  0.00  0.00    +0.208 C 
BRANCH  21  22
ATOM     22  O   UNL     1      33.171 -23.216 -15.824  0.00  0.00    -0.452 OA
BRANCH  22  28
ATOM     23  O   UNL     1      39.060 -26.616 -14.246  0.00  0.00    -0.275 OA
ATOM     24  N   UNL     1      37.139 -25.448 -14.716  0.00  0.00    -0.263 N 
ATOM     25  N   UNL     1      35.133 -24.320 -15.264  0.00  0.00    -0.357 NA
ATOM     26  C   UNL     1      35.682 -24.701 -12.941  0.00  0.00    +0.090 C 
ATOM     27  C   UNL     1      36.688 -25.168 -11.932  0.00  0.00    +0.022 C 
ATOM     28  C   UNL     1      34.001 -23.708 -14.850  0.00  0.00    +0.278 C 
ATOM     29  C   UNL     1      35.950 -24.816 -14.305  0.00  0.00    +0.170 C 
ATOM     30  C   UNL     1      37.476 -26.354 -12.465  0.00  0.00    +0.086 C 
ATOM     31  C   UNL     1      34.510 -24.049 -12.556  0.00  0.00    -0.012 C 
ATOM     32  C   UNL     1      33.646 -23.551 -13.523  0.00  0.00    +0.068 C 
ATOM     33  C   UNL     1      37.992 -26.131 -13.871  0.00  0.00    +0.228 C 
ATOM     34  H   UNL     1      37.378 -25.400 -15.670  0.00  0.00    +0.157 HD
ENDBRANCH  22  28
ENDBRANCH  21  22
ENDBRANCH  20  21
ENDBRANCH  19  20
ENDBRANCH  18  19
ENDBRANCH   1  18
TORSDOF 7
ENDMDL
MODEL 6
REMARK VINA RESULT:     -12.2      1.589      2.476
REMARK  Name = 11697676
REMARK  7 active torsions:
REMARK  status: ('A' for Active; 'I' for Inactive)
REMARK    1  A    between atoms: N_1  and  C_18
REMARK    2  A    between atoms: N_2  and  C_8
REMARK    3  A    between atoms: C_18  and  C_19
REMARK    4  A    between atoms: C_19  and  C_20
REMARK    5  A    between atoms: C_20  and  C_21
REMARK    6  A    between atoms: C_21  and  O_22
REMARK    7  A    between atoms: O_22  and  C_28
REMARK                            x       y       z     vdW  Elec       q    Type
REMARK                         _______ _______ _______ _____ _____    ______ ____
ROOT
ATOM      1  N   UNL     1      33.963 -14.211 -24.744  0.00  0.00    +0.389 N 
ATOM      2  N   UNL     1      33.458 -11.679 -23.520  0.00  0.00    -0.312 N 
ATOM      3  C   UNL     1      33.093 -13.228 -25.402  0.00  0.00    -0.055 C 
ATOM      4  C   UNL     1      33.823 -14.104 -23.286  0.00  0.00    -0.055 C 
ATOM      5  C   UNL     1      33.459 -11.802 -24.983  0.00  0.00    +0.068 C 
ATOM      6  C   UNL     1      34.213 -12.707 -22.797  0.00  0.00    +0.068 C 
ATOM      7  H   UNL     1      34.931 -14.015 -24.997  0.00  0.00    -0.080 HD
ENDROOT
BRANCH   2   8
ATOM      8  C   UNL     1      33.323 -10.400 -22.968  0.00  0.00    +0.048 C 
ATOM      9  C   UNL     1      32.578 -10.148 -21.783  0.00  0.00    +0.013 C 
ATOM     10  C   UNL     1      33.949  -9.309 -23.609  0.00  0.00    +0.015 C 
ATOM     11  C   UNL     1      32.472  -8.835 -21.267  0.00  0.00    +0.001 C 
ATOM     12  C   UNL     1      31.938 -11.203 -21.112  0.00  0.00    +0.001 C 
ATOM     13  C   UNL     1      33.846  -8.017 -23.102  0.00  0.00    +0.001 C 
ATOM     14  C   UNL     1      33.113  -7.780 -21.939  0.00  0.00    +0.000 C 
ATOM     15  C   UNL     1      31.731  -8.614 -20.096  0.00  0.00    +0.000 C 
ATOM     16  C   UNL     1      31.205 -10.965 -19.948  0.00  0.00    +0.000 C 
ATOM     17  C   UNL     1      31.101  -9.673 -19.441  0.00  0.00    +0.000 C 
ENDBRANCH   2   8
BRANCH   1  18
ATOM     18  C   UNL     1      33.639 -15.564 -25.193  0.00  0.00    -0.077 C 
BRANCH  18  19
ATOM     19  C   UNL     1      34.616 -16.572 -24.589  0.00  0.00    -0.019 C 
BRANCH  19  20
ATOM     20  C   UNL     1      34.118 -18.004 -24.774  0.00  0.00    +0.045 C 
BRANCH  20  21
ATOM     21  C   UNL     1      33.877 -18.693 -23.438  0.00  0.00    +0.208 C 
BRANCH  21  22
ATOM     22  O   UNL     1      34.656 -18.070 -22.426  0.00  0.00    -0.452 OA
BRANCH  22  28
ATOM     23  O   UNL     1      33.518 -23.283 -17.925  0.00  0.00    -0.275 OA
ATOM     24  N   UNL     1      33.953 -21.599 -19.425  0.00  0.00    -0.263 N 
ATOM     25  N   UNL     1      34.319 -19.816 -20.936  0.00  0.00    -0.357 NA
ATOM     26  C   UNL     1      36.114 -20.522 -19.479  0.00  0.00    +0.090 C 
ATOM     27  C   UNL     1      36.623 -21.515 -18.478  0.00  0.00    +0.022 C 
ATOM     28  C   UNL     1      35.156 -18.882 -21.442  0.00  0.00    +0.278 C 
ATOM     29  C   UNL     1      34.807 -20.614 -19.957  0.00  0.00    +0.170 C 
ATOM     30  C   UNL     1      35.501 -21.985 -17.566  0.00  0.00    +0.086 C 
ATOM     31  C   UNL     1      36.949 -19.555 -20.038  0.00  0.00    -0.012 C 
ATOM     32  C   UNL     1      36.465 -18.711 -21.030  0.00  0.00    +0.068 C 
ATOM     33  C   UNL     1      34.254 -22.382 -18.327  0.00  0.00    +0.228 C 
ATOM     34  H   UNL     1      33.084 -21.740 -19.865  0.00  0.00    +0.157 HD
ENDBRANCH  22  28
ENDBRANCH  21  22
ENDBRANCH  20  21
ENDBRANCH  19  20
ENDBRANCH  18  19
ENDBRANCH   1  18
TORSDOF 7
ENDMDL
MODEL 7
REMARK VINA RESULT:     -12.1      3.831     11.288
REMARK  Name = 11697676
REMARK  7 active torsions:
REMARK  status: ('A' for Active; 'I' for Inactive)
REMARK    1  A    between atoms: N_1  and  C_18
REMARK    2  A    between atoms: N_2  and  C_8
REMARK    3  A    between atoms: C_18  and  C_19
REMARK    4  A    between atoms: C_19  and  C_20
REMARK    5  A    between atoms: C_20  and  C_21
REMARK    6  A    between atoms: C_21  and  O_22
REMARK    7  A    between atoms: O_22  and  C_28
REMARK                            x       y       z     vdW  Elec       q    Type
REMARK                         _______ _______ _______ _____ _____    ______ ____
ROOT
ATOM      1  N   UNL     1      34.304 -15.832 -24.388  0.00  0.00    +0.389 N 
ATOM      2  N   UNL     1      35.045 -17.720 -22.377  0.00  0.00    -0.312 N 
ATOM      3  C   UNL     1      34.416 -15.416 -22.984  0.00  0.00    -0.055 C 
ATOM      4  C   UNL     1      33.832 -17.220 -24.461  0.00  0.00    -0.055 C 
ATOM      5  C   UNL     1      35.404 -16.305 -22.225  0.00  0.00    +0.068 C 
ATOM      6  C   UNL     1      34.800 -18.169 -23.750  0.00  0.00    +0.068 C 
ATOM      7  H   UNL     1      35.225 -15.774 -24.823  0.00  0.00    -0.080 HD
ENDROOT
BRANCH   2   8
ATOM      8  C   UNL     1      35.529 -18.627 -21.426  0.00  0.00    +0.048 C 
ATOM      9  C   UNL     1      34.681 -19.516 -20.708  0.00  0.00    +0.013 C 
ATOM     10  C   UNL     1      36.915 -18.666 -21.164  0.00  0.00    +0.015 C 
ATOM     11  C   UNL     1      35.223 -20.412 -19.757  0.00  0.00    +0.001 C 
ATOM     12  C   UNL     1      33.296 -19.511 -20.937  0.00  0.00    +0.001 C 
ATOM     13  C   UNL     1      37.449 -19.550 -20.228  0.00  0.00    +0.001 C 
ATOM     14  C   UNL     1      36.609 -20.417 -19.530  0.00  0.00    +0.000 C 
ATOM     15  C   UNL     1      34.363 -21.278 -19.063  0.00  0.00    +0.000 C 
ATOM     16  C   UNL     1      32.456 -20.379 -20.237  0.00  0.00    +0.000 C 
ATOM     17  C   UNL     1      32.989 -21.261 -19.302  0.00  0.00    +0.000 C 
ENDBRANCH   2   8
BRANCH   1  18
ATOM     18  C   UNL     1      33.400 -14.943 -25.115  0.00  0.00    -0.077 C 
BRANCH  18  19
ATOM     19  C   UNL     1      33.109 -13.690 -24.290  0.00  0.00    -0.019 C 
BRANCH  19  20
ATOM     20  C   UNL     1      33.482 -12.424 -25.058  0.00  0.00    +0.045 C 
BRANCH  20  21
ATOM     21  C   UNL     1      33.920 -11.306 -24.120  0.00  0.00    +0.208 C 
BRANCH  21  22
ATOM     22  O   UNL     1      33.141 -11.340 -22.933  0.00  0.00    -0.452 OA
BRANCH  22  28
ATOM     23  O   UNL     1      32.949  -4.398 -23.637  0.00  0.00    -0.275 OA
ATOM     24  N   UNL     1      32.942  -6.681 -23.391  0.00  0.00    -0.263 N 
ATOM     25  N   UNL     1      33.037  -9.033 -23.149  0.00  0.00    -0.357 NA
ATOM     26  C   UNL     1      31.909  -7.712 -21.468  0.00  0.00    +0.090 C 
ATOM     27  C   UNL     1      31.394  -6.372 -21.037  0.00  0.00    +0.022 C 
ATOM     28  C   UNL     1      32.724 -10.135 -22.431  0.00  0.00    +0.278 C 
ATOM     29  C   UNL     1      32.634  -7.839 -22.652  0.00  0.00    +0.170 C 
ATOM     30  C   UNL     1      32.331  -5.263 -21.488  0.00  0.00    +0.086 C 
ATOM     31  C   UNL     1      31.594  -8.876 -20.765  0.00  0.00    -0.012 C 
ATOM     32  C   UNL     1      32.014 -10.110 -21.245  0.00  0.00    +0.068 C 
ATOM     33  C   UNL     1      32.733  -5.391 -22.943  0.00  0.00    +0.228 C 
ATOM     34  H   UNL     1      33.332  -6.798 -24.287  0.00  0.00    +0.157 HD
ENDBRANCH  22  28
ENDBRANCH  21  22
ENDBRANCH  20  21
ENDBRANCH  19  20
ENDBRANCH  18  19
ENDBRANCH   1  18
TORSDOF 7
ENDMDL
MODEL 8
REMARK VINA RESULT:     -12.0      3.330      6.068
REMARK  Name = 11697676
REMARK  7 active torsions:
REMARK  status: ('A' for Active; 'I' for Inactive)
REMARK    1  A    between atoms: N_1  and  C_18
REMARK    2  A    between atoms: N_2  and  C_8
REMARK    3  A    between atoms: C_18  and  C_19
REMARK    4  A    between atoms: C_19  and  C_20
REMARK    5  A    between atoms: C_20  and  C_21
REMARK    6  A    between atoms: C_21  and  O_22
REMARK    7  A    between atoms: O_22  and  C_28
REMARK                            x       y       z     vdW  Elec       q    Type
REMARK                         _______ _______ _______ _____ _____    ______ ____
ROOT
ATOM      1  N   UNL     1      36.084 -20.401 -18.983  0.00  0.00    +0.389 N 
ATOM      2  N   UNL     1      35.313 -18.923 -21.303  0.00  0.00    -0.312 N 
ATOM      3  C   UNL     1      37.104 -19.845 -19.881  0.00  0.00    -0.055 C 
ATOM      4  C   UNL     1      34.899 -20.794 -19.755  0.00  0.00    -0.055 C 
ATOM      5  C   UNL     1      36.573 -18.612 -20.617  0.00  0.00    +0.068 C 
ATOM      6  C   UNL     1      34.296 -19.592 -20.487  0.00  0.00    +0.068 C 
ATOM      7  H   UNL     1      35.815 -19.685 -18.307  0.00  0.00    -0.080 HD
ENDROOT
BRANCH   2   8
ATOM      8  C   UNL     1      34.920 -18.099 -22.363  0.00  0.00    +0.048 C 
ATOM      9  C   UNL     1      34.800 -16.686 -22.237  0.00  0.00    +0.013 C 
ATOM     10  C   UNL     1      34.630 -18.685 -23.614  0.00  0.00    +0.015 C 
ATOM     11  C   UNL     1      34.398 -15.899 -23.341  0.00  0.00    +0.001 C 
ATOM     12  C   UNL     1      35.078 -16.060 -21.011  0.00  0.00    +0.001 C 
ATOM     13  C   UNL     1      34.236 -17.910 -24.701  0.00  0.00    +0.001 C 
ATOM     14  C   UNL     1      34.121 -16.527 -24.567  0.00  0.00    +0.000 C 
ATOM     15  C   UNL     1      34.287 -14.508 -23.189  0.00  0.00    +0.000 C 
ATOM     16  C   UNL     1      34.963 -14.676 -20.877  0.00  0.00    +0.000 C 
ATOM     17  C   UNL     1      34.568 -13.901 -21.964  0.00  0.00    +0.000 C 
ENDBRANCH   2   8
BRANCH   1  18
ATOM     18  C   UNL     1      36.619 -21.545 -18.246  0.00  0.00    -0.077 C 
BRANCH  18  19
ATOM     19  C   UNL     1      36.944 -21.145 -16.808  0.00  0.00    -0.019 C 
BRANCH  19  20
ATOM     20  C   UNL     1      37.707 -22.253 -16.085  0.00  0.00    +0.045 C 
BRANCH  20  21
ATOM     21  C   UNL     1      36.880 -22.867 -14.963  0.00  0.00    +0.208 C 
BRANCH  21  22
ATOM     22  O   UNL     1      36.064 -23.908 -15.480  0.00  0.00    -0.452 OA
BRANCH  22  28
ATOM     23  O   UNL     1      30.193 -24.263 -11.720  0.00  0.00    -0.275 OA
ATOM     24  N   UNL     1      32.105 -24.081 -12.979  0.00  0.00    -0.263 N 
ATOM     25  N   UNL     1      34.098 -23.990 -14.251  0.00  0.00    -0.357 NA
ATOM     26  C   UNL     1      32.006 -23.345 -15.277  0.00  0.00    +0.090 C 
ATOM     27  C   UNL     1      30.544 -23.058 -15.111  0.00  0.00    +0.022 C 
ATOM     28  C   UNL     1      34.708 -23.717 -15.426  0.00  0.00    +0.278 C 
ATOM     29  C   UNL     1      32.757 -23.811 -14.197  0.00  0.00    +0.170 C 
ATOM     30  C   UNL     1      29.922 -23.993 -14.087  0.00  0.00    +0.086 C 
ATOM     31  C   UNL     1      32.677 -23.061 -16.467  0.00  0.00    -0.012 C 
ATOM     32  C   UNL     1      34.049 -23.257 -16.552  0.00  0.00    +0.068 C 
ATOM     33  C   UNL     1      30.734 -24.091 -12.813  0.00  0.00    +0.228 C 
ATOM     34  H   UNL     1      32.664 -24.276 -12.192  0.00  0.00    +0.157 HD
ENDBRANCH  22  28
ENDBRANCH  21  22
ENDBRANCH  20  21
ENDBRANCH  19  20
ENDBRANCH  18  19
ENDBRANCH   1  18
TORSDOF 7
ENDMDL
MODEL 9
REMARK VINA RESULT:     -11.8      2.077      3.142
REMARK  Name = 11697676
REMARK  7 active torsions:
REMARK  status: ('A' for Active; 'I' for Inactive)
REMARK    1  A    between atoms: N_1  and  C_18
REMARK    2  A    between atoms: N_2  and  C_8
REMARK    3  A    between atoms: C_18  and  C_19
REMARK    4  A    between atoms: C_19  and  C_20
REMARK    5  A    between atoms: C_20  and  C_21
REMARK    6  A    between atoms: C_21  and  O_22
REMARK    7  A    between atoms: O_22  and  C_28
REMARK                            x       y       z     vdW  Elec       q    Type
REMARK                         _______ _______ _______ _____ _____    ______ ____
ROOT
ATOM      1  N   UNL     1      35.048 -15.991 -23.195  0.00  0.00    +0.389 N 
ATOM      2  N   UNL     1      33.540 -13.708 -22.374  0.00  0.00    -0.312 N 
ATOM      3  C   UNL     1      33.828 -15.607 -23.918  0.00  0.00    -0.055 C 
ATOM      4  C   UNL     1      34.906 -15.666 -21.770  0.00  0.00    -0.055 C 
ATOM      5  C   UNL     1      33.562 -14.106 -23.787  0.00  0.00    +0.068 C 
ATOM      6  C   UNL     1      34.675 -14.167 -21.568  0.00  0.00    +0.068 C 
ATOM      7  H   UNL     1      35.835 -15.466 -23.576  0.00  0.00    -0.080 HD
ENDROOT
BRANCH   2   8
ATOM      8  C   UNL     1      32.885 -12.518 -22.036  0.00  0.00    +0.048 C 
ATOM      9  C   UNL     1      33.225 -11.262 -22.611  0.00  0.00    +0.013 C 
ATOM     10  C   UNL     1      31.841 -12.558 -21.086  0.00  0.00    +0.015 C 
ATOM     11  C   UNL     1      32.530 -10.089 -22.234  0.00  0.00    +0.001 C 
ATOM     12  C   UNL     1      34.256 -11.174 -23.560  0.00  0.00    +0.001 C 
ATOM     13  C   UNL     1      31.157 -11.404 -20.715  0.00  0.00    +0.001 C 
ATOM     14  C   UNL     1      31.498 -10.177 -21.285  0.00  0.00    +0.000 C 
ATOM     15  C   UNL     1      32.886  -8.862 -22.817  0.00  0.00    +0.000 C 
ATOM     16  C   UNL     1      34.596  -9.947 -24.130  0.00  0.00    +0.000 C 
ATOM     17  C   UNL     1      33.913  -8.793 -23.758  0.00  0.00    +0.000 C 
ENDBRANCH   2   8
BRANCH   1  18
ATOM     18  C   UNL     1      35.322 -17.416 -23.372  0.00  0.00    -0.077 C 
BRANCH  18  19
ATOM     19  C   UNL     1      35.749 -18.043 -22.046  0.00  0.00    -0.019 C 
BRANCH  19  20
ATOM     20  C   UNL     1      35.000 -19.350 -21.786  0.00  0.00    +0.045 C 
BRANCH  20  21
ATOM     21  C   UNL     1      34.987 -19.705 -20.306  0.00  0.00    +0.208 C 
BRANCH  21  22
ATOM     22  O   UNL     1      35.471 -21.028 -20.123  0.00  0.00    -0.452 OA
BRANCH  22  28
ATOM     23  O   UNL     1      37.654 -22.921 -13.768  0.00  0.00    -0.275 OA
ATOM     24  N   UNL     1      36.876 -22.273 -15.830  0.00  0.00    -0.263 N 
ATOM     25  N   UNL     1      36.156 -21.650 -17.995  0.00  0.00    -0.357 NA
ATOM     26  C   UNL     1      34.635 -22.833 -16.535  0.00  0.00    +0.090 C 
ATOM     27  C   UNL     1      34.353 -23.383 -15.169  0.00  0.00    +0.022 C 
ATOM     28  C   UNL     1      35.178 -21.635 -18.929  0.00  0.00    +0.278 C 
ATOM     29  C   UNL     1      35.873 -22.257 -16.818  0.00  0.00    +0.170 C 
ATOM     30  C   UNL     1      35.621 -23.933 -14.536  0.00  0.00    +0.086 C 
ATOM     31  C   UNL     1      33.649 -22.783 -17.521  0.00  0.00    -0.012 C 
ATOM     32  C   UNL     1      33.922 -22.184 -18.744  0.00  0.00    +0.068 C 
ATOM     33  C   UNL     1      36.792 -22.979 -14.645  0.00  0.00    +0.228 C 
ATOM     34  H   UNL     1      37.691 -21.746 -15.993  0.00  0.00    +0.157 HD
ENDBRANCH  22  28
ENDBRANCH  21  22
ENDBRANCH  20  21
ENDBRANCH  19  20
ENDBRANCH  18  19
ENDBRANCH   1  18
TORSDOF 7
ENDMDL
