MODEL 1
REMARK VINA RESULT:     -12.6      0.000      0.000
REMARK  Name = 51039095
REMARK  7 active torsions:
REMARK  status: ('A' for Active; 'I' for Inactive)
REMARK    1  A    between atoms: C_5  and  C_16
REMARK    2  A    between atoms: C_6  and  C_27
REMARK    3  A    between atoms: C_11  and  N_17
REMARK    4  A    between atoms: C_27  and  C_28
REMARK    5  A    between atoms: C_28  and  C_29
REMARK    6  A    between atoms: C_32  and  O_35
REMARK    7  A    between atoms: C_33  and  O_37
REMARK                            x       y       z     vdW  Elec       q    Type
REMARK                         _______ _______ _______ _____ _____    ______ ____
ROOT
ATOM      1  O   UNL     1      34.187 -13.729 -23.933  0.00  0.00    -0.270 OA
ATOM      2  N   UNL     1      34.336 -13.598 -21.595  0.00  0.00    -0.265 N 
ATOM      3  N   UNL     1      35.215 -16.593 -20.074  0.00  0.00    -0.239 N 
ATOM      4  N   UNL     1      34.894 -15.293 -19.962  0.00  0.00    -0.166 NA
ATOM      5  C   UNL     1      34.105 -13.081 -22.877  0.00  0.00    +0.251 C 
ATOM      6  C   UNL     1      35.232 -17.047 -21.361  0.00  0.00    +0.046 C 
ATOM      7  C   UNL     1      34.700 -14.917 -21.228  0.00  0.00    +0.153 C 
ATOM      8  C   UNL     1      34.896 -15.969 -22.143  0.00  0.00    +0.048 C 
ATOM      9  H   UNL     1      34.231 -12.962 -20.851  0.00  0.00    +0.157 HD
ATOM     10  H   UNL     1      35.422 -17.164 -19.300  0.00  0.00    +0.174 HD
ENDROOT
BRANCH   5  16
ATOM     11  C   UNL     1      32.970  -8.995 -23.046  0.00  0.00    +0.048 C 
ATOM     12  C   UNL     1      34.012  -9.463 -23.847  0.00  0.00    +0.015 C 
ATOM     13  C   UNL     1      32.300  -9.869 -22.190  0.00  0.00    +0.015 C 
ATOM     14  C   UNL     1      34.384 -10.806 -23.792  0.00  0.00    +0.006 C 
ATOM     15  C   UNL     1      32.674 -11.212 -22.135  0.00  0.00    +0.006 C 
ATOM     16  C   UNL     1      33.715 -11.681 -22.936  0.00  0.00    +0.054 C 
BRANCH  11  17
ATOM     17  N   UNL     1      32.595  -7.648 -23.101  0.00  0.00    -0.312 N 
ATOM     18  N   UNL     1      32.013  -4.858 -23.074  0.00  0.00    +0.389 N 
ATOM     19  C   UNL     1      31.030  -5.819 -22.563  0.00  0.00    -0.042 C 
ATOM     20  C   UNL     1      32.775  -5.439 -24.184  0.00  0.00    -0.042 C 
ATOM     21  C   UNL     1      31.724  -7.093 -22.058  0.00  0.00    +0.069 C 
ATOM     22  C   UNL     1      33.525  -6.698 -23.726  0.00  0.00    +0.069 C 
ATOM     23  C   UNL     1      33.754  -4.395 -24.717  0.00  0.00    -0.022 C 
ATOM     24  C   UNL     1      30.227  -5.165 -21.440  0.00  0.00    -0.022 C 
ATOM     25  H   UNL     1      32.655  -4.605 -22.322  0.00  0.00    -0.084 HD
ATOM     26  H   UNL     1      31.520  -4.031 -23.410  0.00  0.00    -0.084 HD
ENDBRANCH  11  17
ENDBRANCH   5  16
BRANCH   6  27
ATOM     27  C   UNL     1      35.561 -18.442 -21.696  0.00  0.00    +0.047 C 
BRANCH  27  28
ATOM     28  C   UNL     1      34.374 -19.432 -21.588  0.00  0.00    +0.033 C 
BRANCH  28  29
ATOM     29  C   UNL     1      34.449 -20.310 -20.361  0.00  0.00    -0.016 C 
ATOM     30  C   UNL     1      33.280 -20.814 -19.791  0.00  0.00    +0.033 C 
ATOM     31  C   UNL     1      35.688 -20.618 -19.801  0.00  0.00    +0.033 C 
ATOM     32  C   UNL     1      35.760 -21.429 -18.669  0.00  0.00    +0.141 C 
ATOM     33  C   UNL     1      33.351 -21.625 -18.659  0.00  0.00    +0.141 C 
ATOM     34  C   UNL     1      34.590 -21.933 -18.097  0.00  0.00    +0.074 C 
BRANCH  32  35
ATOM     35  O   UNL     1      36.969 -21.731 -18.121  0.00  0.00    -0.471 OA
ATOM     36  C   UNL     1      37.052 -21.731 -16.696  0.00  0.00    +0.252 C 
ENDBRANCH  32  35
BRANCH  33  37
ATOM     37  O   UNL     1      32.211 -22.118 -18.102  0.00  0.00    -0.471 OA
ATOM     38  C   UNL     1      32.333 -22.757 -16.832  0.00  0.00    +0.252 C 
ENDBRANCH  33  37
ENDBRANCH  28  29
ENDBRANCH  27  28
ENDBRANCH   6  27
TORSDOF 7
ENDMDL
MODEL 2
REMARK VINA RESULT:     -12.6      0.043      2.019
REMARK  Name = 51039095
REMARK  7 active torsions:
REMARK  status: ('A' for Active; 'I' for Inactive)
REMARK    1  A    between atoms: C_5  and  C_16
REMARK    2  A    between atoms: C_6  and  C_27
REMARK    3  A    between atoms: C_11  and  N_17
REMARK    4  A    between atoms: C_27  and  C_28
REMARK    5  A    between atoms: C_28  and  C_29
REMARK    6  A    between atoms: C_32  and  O_35
REMARK    7  A    between atoms: C_33  and  O_37
REMARK                            x       y       z     vdW  Elec       q    Type
REMARK                         _______ _______ _______ _____ _____    ______ ____
ROOT
ATOM      1  O   UNL     1      34.201 -13.737 -23.893  0.00  0.00    -0.270 OA
ATOM      2  N   UNL     1      34.341 -13.605 -21.554  0.00  0.00    -0.265 N 
ATOM      3  N   UNL     1      35.218 -16.597 -20.028  0.00  0.00    -0.239 N 
ATOM      4  N   UNL     1      34.895 -15.297 -19.918  0.00  0.00    -0.166 NA
ATOM      5  C   UNL     1      34.114 -13.089 -22.838  0.00  0.00    +0.251 C 
ATOM      6  C   UNL     1      35.240 -17.052 -21.314  0.00  0.00    +0.046 C 
ATOM      7  C   UNL     1      34.705 -14.923 -21.185  0.00  0.00    +0.153 C 
ATOM      8  C   UNL     1      34.906 -15.975 -22.099  0.00  0.00    +0.048 C 
ATOM      9  H   UNL     1      34.233 -12.968 -20.812  0.00  0.00    +0.157 HD
ATOM     10  H   UNL     1      35.422 -17.168 -19.252  0.00  0.00    +0.174 HD
ENDROOT
BRANCH   5  16
ATOM     11  C   UNL     1      32.967  -9.006 -23.017  0.00  0.00    +0.048 C 
ATOM     12  C   UNL     1      32.289  -9.885 -22.173  0.00  0.00    +0.015 C 
ATOM     13  C   UNL     1      34.024  -9.468 -23.802  0.00  0.00    +0.015 C 
ATOM     14  C   UNL     1      32.666 -11.226 -22.114  0.00  0.00    +0.006 C 
ATOM     15  C   UNL     1      34.401 -10.810 -23.743  0.00  0.00    +0.006 C 
ATOM     16  C   UNL     1      33.723 -11.689 -22.899  0.00  0.00    +0.054 C 
BRANCH  11  17
ATOM     17  N   UNL     1      32.590  -7.660 -23.077  0.00  0.00    -0.312 N 
ATOM     18  N   UNL     1      32.005  -4.871 -23.062  0.00  0.00    +0.389 N 
ATOM     19  C   UNL     1      31.023  -5.831 -22.546  0.00  0.00    -0.042 C 
ATOM     20  C   UNL     1      32.767  -5.455 -24.170  0.00  0.00    -0.042 C 
ATOM     21  C   UNL     1      31.720  -7.102 -22.036  0.00  0.00    +0.069 C 
ATOM     22  C   UNL     1      33.519  -6.712 -23.708  0.00  0.00    +0.069 C 
ATOM     23  C   UNL     1      33.744  -4.412 -24.709  0.00  0.00    -0.022 C 
ATOM     24  C   UNL     1      30.221  -5.174 -21.425  0.00  0.00    -0.022 C 
ATOM     25  H   UNL     1      32.647  -4.614 -22.312  0.00  0.00    -0.084 HD
ATOM     26  H   UNL     1      31.510  -4.046 -23.401  0.00  0.00    -0.084 HD
ENDBRANCH  11  17
ENDBRANCH   5  16
BRANCH   6  27
ATOM     27  C   UNL     1      35.572 -18.447 -21.647  0.00  0.00    +0.047 C 
BRANCH  27  28
ATOM     28  C   UNL     1      34.384 -19.437 -21.549  0.00  0.00    +0.033 C 
BRANCH  28  29
ATOM     29  C   UNL     1      34.457 -20.323 -20.328  0.00  0.00    -0.016 C 
ATOM     30  C   UNL     1      35.693 -20.628 -19.759  0.00  0.00    +0.033 C 
ATOM     31  C   UNL     1      33.286 -20.835 -19.769  0.00  0.00    +0.033 C 
ATOM     32  C   UNL     1      33.351 -21.654 -18.641  0.00  0.00    +0.141 C 
ATOM     33  C   UNL     1      35.759 -21.445 -18.631  0.00  0.00    +0.141 C 
ATOM     34  C   UNL     1      34.588 -21.959 -18.072  0.00  0.00    +0.074 C 
BRANCH  32  35
ATOM     35  O   UNL     1      32.209 -22.154 -18.094  0.00  0.00    -0.471 OA
ATOM     36  C   UNL     1      32.320 -22.761 -16.808  0.00  0.00    +0.252 C 
ENDBRANCH  32  35
BRANCH  33  37
ATOM     37  O   UNL     1      36.965 -21.743 -18.075  0.00  0.00    -0.471 OA
ATOM     38  C   UNL     1      37.016 -21.844 -16.652  0.00  0.00    +0.252 C 
ENDBRANCH  33  37
ENDBRANCH  28  29
ENDBRANCH  27  28
ENDBRANCH   6  27
TORSDOF 7
ENDMDL
MODEL 3
REMARK VINA RESULT:     -12.1      4.492     13.476
REMARK  Name = 51039095
REMARK  7 active torsions:
REMARK  status: ('A' for Active; 'I' for Inactive)
REMARK    1  A    between atoms: C_5  and  C_16
REMARK    2  A    between atoms: C_6  and  C_27
REMARK    3  A    between atoms: C_11  and  N_17
REMARK    4  A    between atoms: C_27  and  C_28
REMARK    5  A    between atoms: C_28  and  C_29
REMARK    6  A    between atoms: C_32  and  O_35
REMARK    7  A    between atoms: C_33  and  O_37
REMARK                            x       y       z     vdW  Elec       q    Type
REMARK                         _______ _______ _______ _____ _____    ______ ____
ROOT
ATOM      1  O   UNL     1      33.825 -21.296 -19.538  0.00  0.00    -0.270 OA
ATOM      2  N   UNL     1      35.884 -20.189 -19.733  0.00  0.00    -0.265 N 
ATOM      3  N   UNL     1      36.132 -18.170 -22.546  0.00  0.00    -0.239 N 
ATOM      4  N   UNL     1      36.690 -18.663 -21.427  0.00  0.00    -0.166 NA
ATOM      5  C   UNL     1      34.963 -21.045 -19.112  0.00  0.00    +0.251 C 
ATOM      6  C   UNL     1      34.862 -18.617 -22.772  0.00  0.00    +0.046 C 
ATOM      7  C   UNL     1      35.732 -19.450 -20.932  0.00  0.00    +0.153 C 
ATOM      8  C   UNL     1      34.571 -19.461 -21.728  0.00  0.00    +0.048 C 
ATOM      9  H   UNL     1      36.750 -20.089 -19.276  0.00  0.00    +0.157 HD
ATOM     10  H   UNL     1      36.596 -17.543 -23.147  0.00  0.00    +0.174 HD
ENDROOT
BRANCH   5  16
ATOM     11  C   UNL     1      36.301 -22.932 -15.554  0.00  0.00    +0.048 C 
ATOM     12  C   UNL     1      37.173 -22.125 -16.285  0.00  0.00    +0.015 C 
ATOM     13  C   UNL     1      34.989 -23.119 -15.990  0.00  0.00    +0.015 C 
ATOM     14  C   UNL     1      36.733 -21.505 -17.454  0.00  0.00    +0.006 C 
ATOM     15  C   UNL     1      34.550 -22.498 -17.160  0.00  0.00    +0.006 C 
ATOM     16  C   UNL     1      35.421 -21.691 -17.892  0.00  0.00    +0.054 C 
BRANCH  11  17
ATOM     17  N   UNL     1      36.741 -23.555 -14.380  0.00  0.00    -0.312 N 
ATOM     18  N   UNL     1      37.556 -25.024 -12.078  0.00  0.00    +0.389 N 
ATOM     19  C   UNL     1      36.588 -23.930 -11.948  0.00  0.00    -0.042 C 
ATOM     20  C   UNL     1      38.520 -24.736 -13.145  0.00  0.00    -0.042 C 
ATOM     21  C   UNL     1      35.812 -23.731 -13.258  0.00  0.00    +0.069 C 
ATOM     22  C   UNL     1      37.803 -24.564 -14.492  0.00  0.00    +0.069 C 
ATOM     23  C   UNL     1      39.537 -25.874 -13.219  0.00  0.00    -0.022 C 
ATOM     24  C   UNL     1      35.629 -24.245 -10.800  0.00  0.00    -0.022 C 
ATOM     25  H   UNL     1      37.059 -25.887 -12.300  0.00  0.00    -0.084 HD
ATOM     26  H   UNL     1      38.060 -25.123 -11.197  0.00  0.00    -0.084 HD
ENDBRANCH  11  17
ENDBRANCH   5  16
BRANCH   6  27
ATOM     27  C   UNL     1      34.079 -18.195 -23.944  0.00  0.00    +0.047 C 
BRANCH  27  28
ATOM     28  C   UNL     1      34.675 -16.996 -24.724  0.00  0.00    +0.033 C 
BRANCH  28  29
ATOM     29  C   UNL     1      34.376 -15.665 -24.077  0.00  0.00    -0.016 C 
ATOM     30  C   UNL     1      34.600 -15.486 -22.712  0.00  0.00    +0.033 C 
ATOM     31  C   UNL     1      33.877 -14.614 -24.845  0.00  0.00    +0.033 C 
ATOM     32  C   UNL     1      33.601 -13.383 -24.249  0.00  0.00    +0.141 C 
ATOM     33  C   UNL     1      34.325 -14.256 -22.115  0.00  0.00    +0.141 C 
ATOM     34  C   UNL     1      33.825 -13.205 -22.883  0.00  0.00    +0.074 C 
BRANCH  32  35
ATOM     35  O   UNL     1      33.114 -12.356 -24.998  0.00  0.00    -0.471 OA
ATOM     36  C   UNL     1      33.871 -11.147 -25.008  0.00  0.00    +0.252 C 
ENDBRANCH  32  35
BRANCH  33  37
ATOM     37  O   UNL     1      34.544 -14.081 -20.783  0.00  0.00    -0.471 OA
ATOM     38  C   UNL     1      34.776 -15.254 -20.004  0.00  0.00    +0.252 C 
ENDBRANCH  33  37
ENDBRANCH  28  29
ENDBRANCH  27  28
ENDBRANCH   6  27
TORSDOF 7
ENDMDL
MODEL 4
REMARK VINA RESULT:     -12.1      4.484     13.504
REMARK  Name = 51039095
REMARK  7 active torsions:
REMARK  status: ('A' for Active; 'I' for Inactive)
REMARK    1  A    between atoms: C_5  and  C_16
REMARK    2  A    between atoms: C_6  and  C_27
REMARK    3  A    between atoms: C_11  and  N_17
REMARK    4  A    between atoms: C_27  and  C_28
REMARK    5  A    between atoms: C_28  and  C_29
REMARK    6  A    between atoms: C_32  and  O_35
REMARK    7  A    between atoms: C_33  and  O_37
REMARK                            x       y       z     vdW  Elec       q    Type
REMARK                         _______ _______ _______ _____ _____    ______ ____
ROOT
ATOM      1  O   UNL     1      33.837 -21.351 -19.485  0.00  0.00    -0.270 OA
ATOM      2  N   UNL     1      35.885 -20.223 -19.683  0.00  0.00    -0.265 N 
ATOM      3  N   UNL     1      36.114 -18.212 -22.503  0.00  0.00    -0.239 N 
ATOM      4  N   UNL     1      36.676 -18.694 -21.382  0.00  0.00    -0.166 NA
ATOM      5  C   UNL     1      34.973 -21.086 -19.060  0.00  0.00    +0.251 C 
ATOM      6  C   UNL     1      34.849 -18.673 -22.729  0.00  0.00    +0.046 C 
ATOM      7  C   UNL     1      35.726 -19.490 -20.885  0.00  0.00    +0.153 C 
ATOM      8  C   UNL     1      34.566 -19.517 -21.682  0.00  0.00    +0.048 C 
ATOM      9  H   UNL     1      36.750 -20.112 -19.226  0.00  0.00    +0.157 HD
ATOM     10  H   UNL     1      36.572 -17.582 -23.106  0.00  0.00    +0.174 HD
ENDROOT
BRANCH   5  16
ATOM     11  C   UNL     1      36.321 -22.941 -15.488  0.00  0.00    +0.048 C 
ATOM     12  C   UNL     1      35.008 -23.131 -15.920  0.00  0.00    +0.015 C 
ATOM     13  C   UNL     1      37.191 -22.142 -16.230  0.00  0.00    +0.015 C 
ATOM     14  C   UNL     1      34.566 -22.522 -17.094  0.00  0.00    +0.006 C 
ATOM     15  C   UNL     1      36.747 -21.533 -17.404  0.00  0.00    +0.006 C 
ATOM     16  C   UNL     1      35.436 -21.723 -17.836  0.00  0.00    +0.054 C 
BRANCH  11  17
ATOM     17  N   UNL     1      36.767 -23.552 -14.311  0.00  0.00    -0.312 N 
ATOM     18  N   UNL     1      37.587 -24.997 -11.995  0.00  0.00    +0.389 N 
ATOM     19  C   UNL     1      36.650 -23.876 -11.869  0.00  0.00    -0.042 C 
ATOM     20  C   UNL     1      38.538 -24.756 -13.086  0.00  0.00    -0.042 C 
ATOM     21  C   UNL     1      35.855 -23.681 -13.168  0.00  0.00    +0.069 C 
ATOM     22  C   UNL     1      37.799 -24.591 -14.422  0.00  0.00    +0.069 C 
ATOM     23  C   UNL     1      39.523 -25.921 -13.156  0.00  0.00    -0.022 C 
ATOM     24  C   UNL     1      35.706 -24.142 -10.697  0.00  0.00    -0.022 C 
ATOM     25  H   UNL     1      37.063 -25.851 -12.190  0.00  0.00    -0.084 HD
ATOM     26  H   UNL     1      38.105 -25.092 -11.122  0.00  0.00    -0.084 HD
ENDBRANCH  11  17
ENDBRANCH   5  16
BRANCH   6  27
ATOM     27  C   UNL     1      34.063 -18.264 -23.903  0.00  0.00    +0.047 C 
BRANCH  27  28
ATOM     28  C   UNL     1      34.683 -17.107 -24.727  0.00  0.00    +0.033 C 
BRANCH  28  29
ATOM     29  C   UNL     1      34.386 -15.745 -24.146  0.00  0.00    -0.016 C 
ATOM     30  C   UNL     1      33.877 -14.734 -24.961  0.00  0.00    +0.033 C 
ATOM     31  C   UNL     1      34.618 -15.500 -22.793  0.00  0.00    +0.033 C 
ATOM     32  C   UNL     1      34.343 -14.243 -22.254  0.00  0.00    +0.141 C 
ATOM     33  C   UNL     1      33.602 -13.477 -24.423  0.00  0.00    +0.141 C 
ATOM     34  C   UNL     1      33.835 -13.231 -23.070  0.00  0.00    +0.074 C 
BRANCH  32  35
ATOM     35  O   UNL     1      34.569 -14.002 -20.933  0.00  0.00    -0.471 OA
ATOM     36  C   UNL     1      34.753 -15.139 -20.091  0.00  0.00    +0.252 C 
ENDBRANCH  32  35
BRANCH  33  37
ATOM     37  O   UNL     1      33.106 -12.490 -25.218  0.00  0.00    -0.471 OA
ATOM     38  C   UNL     1      33.586 -11.166 -24.986  0.00  0.00    +0.252 C 
ENDBRANCH  33  37
ENDBRANCH  28  29
ENDBRANCH  27  28
ENDBRANCH   6  27
TORSDOF 7
ENDMDL
MODEL 5
REMARK VINA RESULT:     -11.8      1.440      1.831
REMARK  Name = 51039095
REMARK  7 active torsions:
REMARK  status: ('A' for Active; 'I' for Inactive)
REMARK    1  A    between atoms: C_5  and  C_16
REMARK    2  A    between atoms: C_6  and  C_27
REMARK    3  A    between atoms: C_11  and  N_17
REMARK    4  A    between atoms: C_27  and  C_28
REMARK    5  A    between atoms: C_28  and  C_29
REMARK    6  A    between atoms: C_32  and  O_35
REMARK    7  A    between atoms: C_33  and  O_37
REMARK                            x       y       z     vdW  Elec       q    Type
REMARK                         _______ _______ _______ _____ _____    ______ ____
ROOT
ATOM      1  O   UNL     1      34.424 -13.660 -21.410  0.00  0.00    -0.270 OA
ATOM      2  N   UNL     1      33.834 -14.040 -23.649  0.00  0.00    -0.265 N 
ATOM      3  N   UNL     1      34.327 -17.315 -24.694  0.00  0.00    -0.239 N 
ATOM      4  N   UNL     1      33.930 -16.062 -24.974  0.00  0.00    -0.166 NA
ATOM      5  C   UNL     1      33.989 -13.253 -22.500  0.00  0.00    +0.251 C 
ATOM      6  C   UNL     1      34.760 -17.481 -23.410  0.00  0.00    +0.046 C 
ATOM      7  C   UNL     1      34.123 -15.417 -23.821  0.00  0.00    +0.153 C 
ATOM      8  C   UNL     1      34.638 -16.251 -22.811  0.00  0.00    +0.048 C 
ATOM      9  H   UNL     1      33.477 -13.577 -24.441  0.00  0.00    +0.157 HD
ATOM     10  H   UNL     1      34.306 -18.045 -25.353  0.00  0.00    +0.174 HD
ENDROOT
BRANCH   5  16
ATOM     11  C   UNL     1      32.935  -9.162 -22.907  0.00  0.00    +0.048 C 
ATOM     12  C   UNL     1      32.258  -9.969 -21.992  0.00  0.00    +0.015 C 
ATOM     13  C   UNL     1      33.959  -9.698 -23.687  0.00  0.00    +0.015 C 
ATOM     14  C   UNL     1      32.605 -11.313 -21.859  0.00  0.00    +0.006 C 
ATOM     15  C   UNL     1      34.306 -11.043 -23.553  0.00  0.00    +0.006 C 
ATOM     16  C   UNL     1      33.629 -11.850 -22.639  0.00  0.00    +0.054 C 
BRANCH  11  17
ATOM     17  N   UNL     1      32.589  -7.813 -23.042  0.00  0.00    -0.312 N 
ATOM     18  N   UNL     1      32.063  -5.015 -23.177  0.00  0.00    +0.389 N 
ATOM     19  C   UNL     1      31.049  -5.929 -22.641  0.00  0.00    -0.042 C 
ATOM     20  C   UNL     1      32.840  -5.668 -24.235  0.00  0.00    -0.042 C 
ATOM     21  C   UNL     1      31.705  -7.187 -22.052  0.00  0.00    +0.069 C 
ATOM     22  C   UNL     1      33.553  -6.916 -23.693  0.00  0.00    +0.069 C 
ATOM     23  C   UNL     1      33.852  -4.673 -24.798  0.00  0.00    -0.022 C 
ATOM     24  C   UNL     1      30.232  -5.201 -21.574  0.00  0.00    -0.022 C 
ATOM     25  H   UNL     1      32.692  -4.734 -22.424  0.00  0.00    -0.084 HD
ATOM     26  H   UNL     1      31.595  -4.198 -23.568  0.00  0.00    -0.084 HD
ENDBRANCH  11  17
ENDBRANCH   5  16
BRANCH   6  27
ATOM     27  C   UNL     1      35.236 -18.778 -22.905  0.00  0.00    +0.047 C 
BRANCH  27  28
ATOM     28  C   UNL     1      36.067 -18.701 -21.600  0.00  0.00    +0.033 C 
BRANCH  28  29
ATOM     29  C   UNL     1      35.620 -19.698 -20.558  0.00  0.00    -0.016 C 
ATOM     30  C   UNL     1      34.264 -19.992 -20.408  0.00  0.00    +0.033 C 
ATOM     31  C   UNL     1      36.563 -20.327 -19.746  0.00  0.00    +0.033 C 
ATOM     32  C   UNL     1      36.152 -21.249 -18.783  0.00  0.00    +0.141 C 
ATOM     33  C   UNL     1      33.852 -20.914 -19.447  0.00  0.00    +0.141 C 
ATOM     34  C   UNL     1      34.795 -21.542 -18.633  0.00  0.00    +0.074 C 
BRANCH  32  35
ATOM     35  O   UNL     1      37.072 -21.864 -17.991  0.00  0.00    -0.471 OA
ATOM     36  C   UNL     1      37.008 -21.590 -16.592  0.00  0.00    +0.252 C 
ENDBRANCH  32  35
BRANCH  33  37
ATOM     37  O   UNL     1      32.530 -21.201 -19.301  0.00  0.00    -0.471 OA
ATOM     38  C   UNL     1      32.126 -21.786 -18.063  0.00  0.00    +0.252 C 
ENDBRANCH  33  37
ENDBRANCH  28  29
ENDBRANCH  27  28
ENDBRANCH   6  27
TORSDOF 7
ENDMDL
MODEL 6
REMARK VINA RESULT:     -11.3      1.515      3.001
REMARK  Name = 51039095
REMARK  7 active torsions:
REMARK  status: ('A' for Active; 'I' for Inactive)
REMARK    1  A    between atoms: C_5  and  C_16
REMARK    2  A    between atoms: C_6  and  C_27
REMARK    3  A    between atoms: C_11  and  N_17
REMARK    4  A    between atoms: C_27  and  C_28
REMARK    5  A    between atoms: C_28  and  C_29
REMARK    6  A    between atoms: C_32  and  O_35
REMARK    7  A    between atoms: C_33  and  O_37
REMARK                            x       y       z     vdW  Elec       q    Type
REMARK                         _______ _______ _______ _____ _____    ______ ____
ROOT
ATOM      1  O   UNL     1      34.603 -13.579 -21.621  0.00  0.00    -0.270 OA
ATOM      2  N   UNL     1      33.719 -13.918 -23.768  0.00  0.00    -0.265 N 
ATOM      3  N   UNL     1      33.920 -17.206 -24.866  0.00  0.00    -0.239 N 
ATOM      4  N   UNL     1      33.551 -15.934 -25.095  0.00  0.00    -0.166 NA
ATOM      5  C   UNL     1      34.055 -13.146 -22.648  0.00  0.00    +0.251 C 
ATOM      6  C   UNL     1      34.503 -17.400 -23.648  0.00  0.00    +0.046 C 
ATOM      7  C   UNL     1      33.918 -15.306 -23.975  0.00  0.00    +0.153 C 
ATOM      8  C   UNL     1      34.516 -16.169 -23.038  0.00  0.00    +0.048 C 
ATOM      9  H   UNL     1      33.288 -13.433 -24.509  0.00  0.00    +0.157 HD
ATOM     10  H   UNL     1      33.782 -17.930 -25.518  0.00  0.00    +0.174 HD
ENDROOT
BRANCH   5  16
ATOM     11  C   UNL     1      33.155  -9.007 -22.919  0.00  0.00    +0.048 C 
ATOM     12  C   UNL     1      32.412  -9.828 -22.071  0.00  0.00    +0.015 C 
ATOM     13  C   UNL     1      34.195  -9.545 -23.678  0.00  0.00    +0.015 C 
ATOM     14  C   UNL     1      32.708 -11.188 -21.982  0.00  0.00    +0.006 C 
ATOM     15  C   UNL     1      34.490 -10.906 -23.588  0.00  0.00    +0.006 C 
ATOM     16  C   UNL     1      33.748 -11.727 -22.740  0.00  0.00    +0.054 C 
BRANCH  11  17
ATOM     17  N   UNL     1      32.860  -7.642 -23.010  0.00  0.00    -0.312 N 
ATOM     18  N   UNL     1      32.078  -4.920 -23.330  0.00  0.00    +0.389 N 
ATOM     19  C   UNL     1      33.404  -5.362 -23.773  0.00  0.00    -0.042 C 
ATOM     20  C   UNL     1      31.652  -5.672 -22.145  0.00  0.00    -0.042 C 
ATOM     21  C   UNL     1      33.391  -6.856 -24.129  0.00  0.00    +0.069 C 
ATOM     22  C   UNL     1      31.583  -7.175 -22.452  0.00  0.00    +0.069 C 
ATOM     23  C   UNL     1      30.290  -5.154 -21.687  0.00  0.00    -0.022 C 
ATOM     24  C   UNL     1      33.831  -4.528 -24.980  0.00  0.00    -0.022 C 
ATOM     25  H   UNL     1      31.405  -5.073 -24.082  0.00  0.00    -0.084 HD
ATOM     26  H   UNL     1      32.123  -3.930 -23.092  0.00  0.00    -0.084 HD
ENDBRANCH  11  17
ENDBRANCH   5  16
BRANCH   6  27
ATOM     27  C   UNL     1      34.976 -18.722 -23.207  0.00  0.00    +0.047 C 
BRANCH  27  28
ATOM     28  C   UNL     1      35.943 -18.693 -21.996  0.00  0.00    +0.033 C 
BRANCH  28  29
ATOM     29  C   UNL     1      35.514 -19.614 -20.879  0.00  0.00    -0.016 C 
ATOM     30  C   UNL     1      36.473 -20.244 -20.086  0.00  0.00    +0.033 C 
ATOM     31  C   UNL     1      34.158 -19.833 -20.639  0.00  0.00    +0.033 C 
ATOM     32  C   UNL     1      33.760 -20.683 -19.606  0.00  0.00    +0.141 C 
ATOM     33  C   UNL     1      36.076 -21.092 -19.053  0.00  0.00    +0.141 C 
ATOM     34  C   UNL     1      34.720 -21.313 -18.813  0.00  0.00    +0.074 C 
BRANCH  32  35
ATOM     35  O   UNL     1      32.437 -20.897 -19.371  0.00  0.00    -0.471 OA
ATOM     36  C   UNL     1      32.101 -21.688 -18.232  0.00  0.00    +0.252 C 
ENDBRANCH  32  35
BRANCH  33  37
ATOM     37  O   UNL     1      37.012 -21.707 -18.278  0.00  0.00    -0.471 OA
ATOM     38  C   UNL     1      36.759 -21.759 -16.875  0.00  0.00    +0.252 C 
ENDBRANCH  33  37
ENDBRANCH  28  29
ENDBRANCH  27  28
ENDBRANCH   6  27
TORSDOF 7
ENDMDL
MODEL 7
REMARK VINA RESULT:     -11.3      4.196     13.017
REMARK  Name = 51039095
REMARK  7 active torsions:
REMARK  status: ('A' for Active; 'I' for Inactive)
REMARK    1  A    between atoms: C_5  and  C_16
REMARK    2  A    between atoms: C_6  and  C_27
REMARK    3  A    between atoms: C_11  and  N_17
REMARK    4  A    between atoms: C_27  and  C_28
REMARK    5  A    between atoms: C_28  and  C_29
REMARK    6  A    between atoms: C_32  and  O_35
REMARK    7  A    between atoms: C_33  and  O_37
REMARK                            x       y       z     vdW  Elec       q    Type
REMARK                         _______ _______ _______ _____ _____    ______ ____
ROOT
ATOM      1  O   UNL     1      36.630 -18.995 -20.331  0.00  0.00    -0.270 OA
ATOM      2  N   UNL     1      34.620 -19.908 -21.125  0.00  0.00    -0.265 N 
ATOM      3  N   UNL     1      33.474 -18.446 -24.058  0.00  0.00    -0.239 N 
ATOM      4  N   UNL     1      33.309 -19.353 -23.081  0.00  0.00    -0.166 NA
ATOM      5  C   UNL     1      35.691 -19.800 -20.227  0.00  0.00    +0.251 C 
ATOM      6  C   UNL     1      34.601 -17.688 -23.922  0.00  0.00    +0.046 C 
ATOM      7  C   UNL     1      34.375 -19.157 -22.301  0.00  0.00    +0.153 C 
ATOM      8  C   UNL     1      35.215 -18.131 -22.775  0.00  0.00    +0.048 C 
ATOM      9  H   UNL     1      33.949 -20.595 -20.910  0.00  0.00    +0.157 HD
ATOM     10  H   UNL     1      32.841 -18.338 -24.804  0.00  0.00    +0.174 HD
ENDROOT
BRANCH   5  16
ATOM     11  C   UNL     1      35.580 -22.421 -16.891  0.00  0.00    +0.048 C 
ATOM     12  C   UNL     1      34.471 -22.313 -17.730  0.00  0.00    +0.015 C 
ATOM     13  C   UNL     1      36.726 -21.669 -17.148  0.00  0.00    +0.015 C 
ATOM     14  C   UNL     1      34.508 -21.452 -18.826  0.00  0.00    +0.006 C 
ATOM     15  C   UNL     1      36.762 -20.808 -18.245  0.00  0.00    +0.006 C 
ATOM     16  C   UNL     1      35.654 -20.700 -19.085  0.00  0.00    +0.054 C 
BRANCH  11  17
ATOM     17  N   UNL     1      35.545 -23.285 -15.791  0.00  0.00    -0.312 N 
ATOM     18  N   UNL     1      35.456 -24.856 -13.414  0.00  0.00    +0.389 N 
ATOM     19  C   UNL     1      36.623 -24.926 -14.299  0.00  0.00    -0.042 C 
ATOM     20  C   UNL     1      34.232 -24.627 -14.190  0.00  0.00    -0.042 C 
ATOM     21  C   UNL     1      36.789 -23.619 -15.088  0.00  0.00    +0.069 C 
ATOM     22  C   UNL     1      34.324 -23.309 -14.972  0.00  0.00    +0.069 C 
ATOM     23  C   UNL     1      33.036 -24.606 -13.240  0.00  0.00    -0.022 C 
ATOM     24  C   UNL     1      37.870 -25.208 -13.461  0.00  0.00    -0.022 C 
ATOM     25  H   UNL     1      35.582 -24.088 -12.753  0.00  0.00    -0.084 HD
ATOM     26  H   UNL     1      35.368 -25.740 -12.914  0.00  0.00    -0.084 HD
ENDBRANCH  11  17
ENDBRANCH   5  16
BRANCH   6  27
ATOM     27  C   UNL     1      34.962 -16.639 -24.888  0.00  0.00    +0.047 C 
BRANCH  27  28
ATOM     28  C   UNL     1      33.835 -15.618 -25.187  0.00  0.00    +0.033 C 
BRANCH  28  29
ATOM     29  C   UNL     1      33.831 -14.449 -24.231  0.00  0.00    -0.016 C 
ATOM     30  C   UNL     1      33.602 -13.158 -24.707  0.00  0.00    +0.033 C 
ATOM     31  C   UNL     1      34.055 -14.660 -22.871  0.00  0.00    +0.033 C 
ATOM     32  C   UNL     1      34.051 -13.582 -21.987  0.00  0.00    +0.141 C 
ATOM     33  C   UNL     1      33.597 -12.079 -23.824  0.00  0.00    +0.141 C 
ATOM     34  C   UNL     1      33.822 -12.290 -22.464  0.00  0.00    +0.074 C 
BRANCH  32  35
ATOM     35  O   UNL     1      34.269 -13.787 -20.659  0.00  0.00    -0.471 OA
ATOM     36  C   UNL     1      34.746 -15.076 -20.273  0.00  0.00    +0.252 C 
ENDBRANCH  32  35
BRANCH  33  37
ATOM     37  O   UNL     1      33.373 -10.819 -24.288  0.00  0.00    -0.471 OA
ATOM     38  C   UNL     1      33.907  -9.740 -23.521  0.00  0.00    +0.252 C 
ENDBRANCH  33  37
ENDBRANCH  28  29
ENDBRANCH  27  28
ENDBRANCH   6  27
TORSDOF 7
ENDMDL
MODEL 8
REMARK VINA RESULT:     -11.3      4.168     13.034
REMARK  Name = 51039095
REMARK  7 active torsions:
REMARK  status: ('A' for Active; 'I' for Inactive)
REMARK    1  A    between atoms: C_5  and  C_16
REMARK    2  A    between atoms: C_6  and  C_27
REMARK    3  A    between atoms: C_11  and  N_17
REMARK    4  A    between atoms: C_27  and  C_28
REMARK    5  A    between atoms: C_28  and  C_29
REMARK    6  A    between atoms: C_32  and  O_35
REMARK    7  A    between atoms: C_33  and  O_37
REMARK                            x       y       z     vdW  Elec       q    Type
REMARK                         _______ _______ _______ _____ _____    ______ ____
ROOT
ATOM      1  O   UNL     1      36.650 -19.001 -20.325  0.00  0.00    -0.270 OA
ATOM      2  N   UNL     1      34.636 -19.919 -21.103  0.00  0.00    -0.265 N 
ATOM      3  N   UNL     1      33.473 -18.468 -24.036  0.00  0.00    -0.239 N 
ATOM      4  N   UNL     1      33.314 -19.372 -23.054  0.00  0.00    -0.166 NA
ATOM      5  C   UNL     1      35.712 -19.807 -20.213  0.00  0.00    +0.251 C 
ATOM      6  C   UNL     1      34.600 -17.710 -23.909  0.00  0.00    +0.046 C 
ATOM      7  C   UNL     1      34.384 -19.172 -22.281  0.00  0.00    +0.153 C 
ATOM      8  C   UNL     1      35.220 -18.148 -22.764  0.00  0.00    +0.048 C 
ATOM      9  H   UNL     1      33.966 -20.605 -20.882  0.00  0.00    +0.157 HD
ATOM     10  H   UNL     1      32.836 -18.364 -24.778  0.00  0.00    +0.174 HD
ENDROOT
BRANCH   5  16
ATOM     11  C   UNL     1      35.621 -22.414 -16.865  0.00  0.00    +0.048 C 
ATOM     12  C   UNL     1      34.506 -22.308 -17.697  0.00  0.00    +0.015 C 
ATOM     13  C   UNL     1      36.766 -21.665 -17.133  0.00  0.00    +0.015 C 
ATOM     14  C   UNL     1      34.537 -21.452 -18.797  0.00  0.00    +0.006 C 
ATOM     15  C   UNL     1      36.796 -20.808 -18.234  0.00  0.00    +0.006 C 
ATOM     16  C   UNL     1      35.682 -20.702 -19.066  0.00  0.00    +0.054 C 
BRANCH  11  17
ATOM     17  N   UNL     1      35.592 -23.274 -15.761  0.00  0.00    -0.312 N 
ATOM     18  N   UNL     1      35.520 -24.835 -13.377  0.00  0.00    +0.389 N 
ATOM     19  C   UNL     1      36.674 -24.920 -14.278  0.00  0.00    -0.042 C 
ATOM     20  C   UNL     1      34.288 -24.597 -14.137  0.00  0.00    -0.042 C 
ATOM     21  C   UNL     1      36.842 -23.617 -15.074  0.00  0.00    +0.069 C 
ATOM     22  C   UNL     1      34.383 -23.283 -14.926  0.00  0.00    +0.069 C 
ATOM     23  C   UNL     1      33.105 -24.561 -13.172  0.00  0.00    -0.022 C 
ATOM     24  C   UNL     1      37.929 -25.211 -13.456  0.00  0.00    -0.022 C 
ATOM     25  H   UNL     1      35.663 -24.066 -12.722  0.00  0.00    -0.084 HD
ATOM     26  H   UNL     1      35.431 -25.717 -12.873  0.00  0.00    -0.084 HD
ENDBRANCH  11  17
ENDBRANCH   5  16
BRANCH   6  27
ATOM     27  C   UNL     1      34.955 -16.664 -24.882  0.00  0.00    +0.047 C 
BRANCH  27  28
ATOM     28  C   UNL     1      33.833 -15.635 -25.165  0.00  0.00    +0.033 C 
BRANCH  28  29
ATOM     29  C   UNL     1      33.863 -14.456 -24.221  0.00  0.00    -0.016 C 
ATOM     30  C   UNL     1      34.205 -14.643 -22.882  0.00  0.00    +0.033 C 
ATOM     31  C   UNL     1      33.551 -13.181 -24.690  0.00  0.00    +0.033 C 
ATOM     32  C   UNL     1      33.580 -12.091 -23.820  0.00  0.00    +0.141 C 
ATOM     33  C   UNL     1      34.234 -13.554 -22.011  0.00  0.00    +0.141 C 
ATOM     34  C   UNL     1      33.921 -12.278 -22.479  0.00  0.00    +0.074 C 
BRANCH  32  35
ATOM     35  O   UNL     1      33.276 -10.845 -24.276  0.00  0.00    -0.471 OA
ATOM     36  C   UNL     1      33.406  -9.767 -23.351  0.00  0.00    +0.252 C 
ENDBRANCH  32  35
BRANCH  33  37
ATOM     37  O   UNL     1      34.568 -13.735 -20.704  0.00  0.00    -0.471 OA
ATOM     38  C   UNL     1      34.705 -15.081 -20.250  0.00  0.00    +0.252 C 
ENDBRANCH  33  37
ENDBRANCH  28  29
ENDBRANCH  27  28
ENDBRANCH   6  27
TORSDOF 7
ENDMDL
MODEL 9
REMARK VINA RESULT:     -10.4      3.230      6.062
REMARK  Name = 51039095
REMARK  7 active torsions:
REMARK  status: ('A' for Active; 'I' for Inactive)
REMARK    1  A    between atoms: C_5  and  C_16
REMARK    2  A    between atoms: C_6  and  C_27
REMARK    3  A    between atoms: C_11  and  N_17
REMARK    4  A    between atoms: C_27  and  C_28
REMARK    5  A    between atoms: C_28  and  C_29
REMARK    6  A    between atoms: C_32  and  O_35
REMARK    7  A    between atoms: C_33  and  O_37
REMARK                            x       y       z     vdW  Elec       q    Type
REMARK                         _______ _______ _______ _____ _____    ______ ____
ROOT
ATOM      1  O   UNL     1      36.139 -18.406 -20.203  0.00  0.00    -0.270 OA
ATOM      2  N   UNL     1      33.903 -19.039 -20.525  0.00  0.00    -0.265 N 
ATOM      3  N   UNL     1      33.074 -22.067 -19.041  0.00  0.00    -0.239 N 
ATOM      4  N   UNL     1      32.703 -20.998 -19.768  0.00  0.00    -0.166 NA
ATOM      5  C   UNL     1      35.010 -18.192 -20.672  0.00  0.00    +0.251 C 
ATOM      6  C   UNL     1      34.382 -22.043 -18.653  0.00  0.00    +0.046 C 
ATOM      7  C   UNL     1      33.824 -20.276 -19.839  0.00  0.00    +0.153 C 
ATOM      8  C   UNL     1      34.902 -20.878 -19.163  0.00  0.00    +0.048 C 
ATOM      9  H   UNL     1      33.071 -18.735 -20.955  0.00  0.00    +0.157 HD
ATOM     10  H   UNL     1      32.457 -22.798 -18.809  0.00  0.00    +0.174 HD
ENDROOT
BRANCH   5  16
ATOM     11  C   UNL     1      34.361 -14.689 -22.978  0.00  0.00    +0.048 C 
ATOM     12  C   UNL     1      34.450 -14.602 -21.589  0.00  0.00    +0.015 C 
ATOM     13  C   UNL     1      34.486 -15.926 -23.611  0.00  0.00    +0.015 C 
ATOM     14  C   UNL     1      34.663 -15.753 -20.831  0.00  0.00    +0.006 C 
ATOM     15  C   UNL     1      34.699 -17.077 -22.852  0.00  0.00    +0.006 C 
ATOM     16  C   UNL     1      34.789 -16.991 -21.463  0.00  0.00    +0.054 C 
BRANCH  11  17
ATOM     17  N   UNL     1      34.147 -13.534 -23.740  0.00  0.00    -0.312 N 
ATOM     18  N   UNL     1      33.536 -11.132 -25.146  0.00  0.00    +0.389 N 
ATOM     19  C   UNL     1      33.458 -12.426 -25.832  0.00  0.00    -0.042 C 
ATOM     20  C   UNL     1      34.604 -11.144 -24.141  0.00  0.00    -0.042 C 
ATOM     21  C   UNL     1      33.168 -13.556 -24.833  0.00  0.00    +0.069 C 
ATOM     22  C   UNL     1      34.347 -12.232 -23.090  0.00  0.00    +0.069 C 
ATOM     23  C   UNL     1      34.685  -9.768 -23.482  0.00  0.00    -0.022 C 
ATOM     24  C   UNL     1      32.366 -12.361 -26.899  0.00  0.00    -0.022 C 
ATOM     25  H   UNL     1      32.645 -10.942 -24.686  0.00  0.00    -0.084 HD
ATOM     26  H   UNL     1      33.739 -10.407 -25.834  0.00  0.00    -0.084 HD
ENDBRANCH  11  17
ENDBRANCH   5  16
BRANCH   6  27
ATOM     27  C   UNL     1      34.981 -23.120 -17.850  0.00  0.00    +0.047 C 
BRANCH  27  28
ATOM     28  C   UNL     1      35.352 -22.719 -16.400  0.00  0.00    +0.033 C 
BRANCH  28  29
ATOM     29  C   UNL     1      34.354 -23.212 -15.380  0.00  0.00    -0.016 C 
ATOM     30  C   UNL     1      33.008 -23.338 -15.724  0.00  0.00    +0.033 C 
ATOM     31  C   UNL     1      34.779 -23.544 -14.094  0.00  0.00    +0.033 C 
ATOM     32  C   UNL     1      33.859 -24.001 -13.150  0.00  0.00    +0.141 C 
ATOM     33  C   UNL     1      32.088 -23.795 -14.781  0.00  0.00    +0.141 C 
ATOM     34  C   UNL     1      32.512 -24.126 -13.494  0.00  0.00    +0.074 C 
BRANCH  32  35
ATOM     35  O   UNL     1      34.273 -24.325 -11.895  0.00  0.00    -0.471 OA
ATOM     36  C   UNL     1      35.679 -24.467 -11.693  0.00  0.00    +0.252 C 
ENDBRANCH  32  35
BRANCH  33  37
ATOM     37  O   UNL     1      30.774 -23.919 -15.116  0.00  0.00    -0.471 OA
ATOM     38  C   UNL     1      30.071 -25.041 -14.582  0.00  0.00    +0.252 C 
ENDBRANCH  33  37
ENDBRANCH  28  29
ENDBRANCH  27  28
ENDBRANCH   6  27
TORSDOF 7
ENDMDL
