MODEL 1
REMARK VINA RESULT:     -12.5      0.000      0.000
REMARK  Name = 23658582
REMARK  4 active torsions:
REMARK  status: ('A' for Active; 'I' for Inactive)
REMARK    1  A    between atoms: N_3  and  C_13
REMARK    2  A    between atoms: C_8  and  C_25
REMARK    3  A    between atoms: C_15  and  C_22
REMARK    4  A    between atoms: N_24  and  C_29
REMARK                            x       y       z     vdW  Elec       q    Type
REMARK                         _______ _______ _______ _____ _____    ______ ____
ROOT
ATOM      1 CL   UNL     1      33.246 -12.691 -26.117  0.00  0.00    -0.082 Cl
ATOM      2  O   UNL     1      34.483 -14.676 -21.500  0.00  0.00    -0.352 OA
ATOM      3  N   UNL     1      35.029 -18.062 -22.155  0.00  0.00    -0.295 N 
ATOM      4  N   UNL     1      34.816 -15.948 -21.049  0.00  0.00    -0.062 NA
ATOM      5  C   UNL     1      34.418 -16.016 -23.294  0.00  0.00    +0.072 A 
ATOM      6  C   UNL     1      34.247 -14.720 -22.840  0.00  0.00    +0.183 A 
ATOM      7  C   UNL     1      34.771 -16.729 -22.131  0.00  0.00    +0.174 A 
ATOM      8  C   UNL     1      33.887 -13.646 -23.650  0.00  0.00    +0.101 C 
ATOM      9  C   UNL     1      34.223 -16.293 -24.655  0.00  0.00    +0.007 C 
ATOM     10  C   UNL     1      33.696 -13.938 -25.004  0.00  0.00    +0.065 C 
ATOM     11  C   UNL     1      33.859 -15.235 -25.500  0.00  0.00    +0.012 C 
ATOM     12  H   UNL     1      34.858 -18.485 -23.028  0.00  0.00    +0.154 HD
ENDROOT
BRANCH   3  13
ATOM     13  C   UNL     1      35.498 -18.967 -21.162  0.00  0.00    +0.049 C 
ATOM     14  C   UNL     1      34.610 -19.849 -20.548  0.00  0.00    +0.018 C 
ATOM     15  C   UNL     1      35.070 -20.736 -19.574  0.00  0.00    +0.073 C 
ATOM     16  C   UNL     1      36.846 -18.971 -20.803  0.00  0.00    +0.015 C 
ATOM     17  C   UNL     1      36.418 -20.740 -19.215  0.00  0.00    +0.004 C 
ATOM     18  C   UNL     1      37.306 -19.857 -19.830  0.00  0.00    +0.001 C 
BRANCH  15  22
ATOM     19  F   UNL     1      33.967 -22.859 -19.586  0.00  0.00    -0.166 F 
ATOM     20  F   UNL     1      34.494 -22.036 -17.650  0.00  0.00    -0.166 F 
ATOM     21  F   UNL     1      32.865 -21.161 -18.794  0.00  0.00    -0.166 F 
ATOM     22  C   UNL     1      34.121 -21.680 -18.915  0.00  0.00    +0.419 C 
ENDBRANCH  15  22
ENDBRANCH   3  13
BRANCH   8  25
ATOM     23  O   UNL     1      34.523 -11.410 -23.368  0.00  0.00    -0.270 OA
ATOM     24  N   UNL     1      32.658 -12.176 -22.194  0.00  0.00    -0.278 N 
ATOM     25  C   UNL     1      33.729 -12.317 -23.086  0.00  0.00    +0.253 C 
ATOM     26  H   UNL     1      32.103 -12.978 -22.060  0.00  0.00    +0.155 HD
BRANCH  24  29
ATOM     27  N   UNL     1      31.524 -10.018 -19.407  0.00  0.00    -0.221 NA
ATOM     28  N   UNL     1      31.878  -8.654 -21.361  0.00  0.00    -0.221 NA
ATOM     29  C   UNL     1      32.270 -11.025 -21.461  0.00  0.00    +0.089 C 
ATOM     30  C   UNL     1      31.897 -11.091 -20.134  0.00  0.00    +0.117 C 
ATOM     31  C   UNL     1      32.241  -9.768 -22.029  0.00  0.00    +0.117 C 
ATOM     32  C   UNL     1      31.536  -8.848 -20.073  0.00  0.00    +0.199 C 
ENDBRANCH  24  29
ENDBRANCH   8  25
TORSDOF 4
ENDMDL
MODEL 2
REMARK VINA RESULT:     -11.8      4.622      9.122
REMARK  Name = 23658582
REMARK  4 active torsions:
REMARK  status: ('A' for Active; 'I' for Inactive)
REMARK    1  A    between atoms: N_3  and  C_13
REMARK    2  A    between atoms: C_8  and  C_25
REMARK    3  A    between atoms: C_15  and  C_22
REMARK    4  A    between atoms: N_24  and  C_29
REMARK                            x       y       z     vdW  Elec       q    Type
REMARK                         _______ _______ _______ _____ _____    ______ ____
ROOT
ATOM      1 CL   UNL     1      34.967 -19.800 -23.859  0.00  0.00    -0.082 Cl
ATOM      2  O   UNL     1      34.834 -15.344 -21.230  0.00  0.00    -0.352 OA
ATOM      3  N   UNL     1      34.053 -12.956 -23.654  0.00  0.00    -0.295 N 
ATOM      4  N   UNL     1      34.586 -14.021 -21.575  0.00  0.00    -0.062 NA
ATOM      5  C   UNL     1      34.425 -15.336 -23.432  0.00  0.00    +0.072 A 
ATOM      6  C   UNL     1      34.737 -16.126 -22.340  0.00  0.00    +0.183 A 
ATOM      7  C   UNL     1      34.345 -14.039 -22.889  0.00  0.00    +0.174 A 
ATOM      8  C   UNL     1      34.919 -17.506 -22.395  0.00  0.00    +0.101 C 
ATOM      9  C   UNL     1      34.276 -15.940 -24.690  0.00  0.00    +0.007 C 
ATOM     10  C   UNL     1      34.767 -18.094 -23.655  0.00  0.00    +0.065 C 
ATOM     11  C   UNL     1      34.452 -17.328 -24.782  0.00  0.00    +0.012 C 
ATOM     12  H   UNL     1      33.995 -13.153 -24.617  0.00  0.00    +0.154 HD
ENDROOT
BRANCH   3  13
ATOM     13  C   UNL     1      33.814 -11.590 -23.332  0.00  0.00    +0.049 C 
ATOM     14  C   UNL     1      32.832 -11.255 -22.402  0.00  0.00    +0.018 C 
ATOM     15  C   UNL     1      32.598  -9.916 -22.086  0.00  0.00    +0.073 C 
ATOM     16  C   UNL     1      34.564 -10.588 -23.947  0.00  0.00    +0.015 C 
ATOM     17  C   UNL     1      33.348  -8.914 -22.700  0.00  0.00    +0.004 C 
ATOM     18  C   UNL     1      34.332  -9.250 -23.632  0.00  0.00    +0.001 C 
BRANCH  15  22
ATOM     19  F   UNL     1      30.402 -10.291 -21.214  0.00  0.00    -0.166 F 
ATOM     20  F   UNL     1      31.940  -9.724 -19.794  0.00  0.00    -0.166 F 
ATOM     21  F   UNL     1      31.156  -8.252 -21.190  0.00  0.00    -0.166 F 
ATOM     22  C   UNL     1      31.547  -9.556 -21.092  0.00  0.00    +0.419 C 
ENDBRANCH  15  22
ENDBRANCH   3  13
BRANCH   8  25
ATOM     23  O   UNL     1      36.130 -17.863 -20.423  0.00  0.00    -0.270 OA
ATOM     24  N   UNL     1      34.520 -19.442 -21.022  0.00  0.00    -0.278 N 
ATOM     25  C   UNL     1      35.246 -18.256 -21.194  0.00  0.00    +0.253 C 
ATOM     26  H   UNL     1      33.844 -19.636 -21.711  0.00  0.00    +0.155 HD
BRANCH  24  29
ATOM     27  N   UNL     1      33.601 -21.878 -18.389  0.00  0.00    -0.221 NA
ATOM     28  N   UNL     1      36.002 -21.729 -18.515  0.00  0.00    -0.221 NA
ATOM     29  C   UNL     1      34.634 -20.398 -19.981  0.00  0.00    +0.089 C 
ATOM     30  C   UNL     1      33.529 -20.966 -19.381  0.00  0.00    +0.117 C 
ATOM     31  C   UNL     1      35.857 -20.821 -19.503  0.00  0.00    +0.117 C 
ATOM     32  C   UNL     1      34.849 -22.209 -18.010  0.00  0.00    +0.199 C 
ENDBRANCH  24  29
ENDBRANCH   8  25
TORSDOF 4
ENDMDL
MODEL 3
REMARK VINA RESULT:     -11.7      7.156     11.405
REMARK  Name = 23658582
REMARK  4 active torsions:
REMARK  status: ('A' for Active; 'I' for Inactive)
REMARK    1  A    between atoms: N_3  and  C_13
REMARK    2  A    between atoms: C_8  and  C_25
REMARK    3  A    between atoms: C_15  and  C_22
REMARK    4  A    between atoms: N_24  and  C_29
REMARK                            x       y       z     vdW  Elec       q    Type
REMARK                         _______ _______ _______ _____ _____    ______ ____
ROOT
ATOM      1 CL   UNL     1      32.101 -24.465 -14.313  0.00  0.00    -0.082 Cl
ATOM      2  O   UNL     1      35.831 -22.387 -17.239  0.00  0.00    -0.352 OA
ATOM      3  N   UNL     1      34.090 -20.674 -19.734  0.00  0.00    -0.295 N 
ATOM      4  N   UNL     1      35.840 -21.594 -18.380  0.00  0.00    -0.062 NA
ATOM      5  C   UNL     1      33.685 -22.038 -17.778  0.00  0.00    +0.072 A 
ATOM      6  C   UNL     1      34.544 -22.650 -16.882  0.00  0.00    +0.183 A 
ATOM      7  C   UNL     1      34.553 -21.399 -18.684  0.00  0.00    +0.174 A 
ATOM      8  C   UNL     1      34.129 -23.412 -15.793  0.00  0.00    +0.101 C 
ATOM      9  C   UNL     1      32.300 -22.178 -17.599  0.00  0.00    +0.007 C 
ATOM     10  C   UNL     1      32.747 -23.543 -15.628  0.00  0.00    +0.065 C 
ATOM     11  C   UNL     1      31.848 -22.939 -16.513  0.00  0.00    +0.012 C 
ATOM     12  H   UNL     1      33.113 -20.717 -19.848  0.00  0.00    +0.154 HD
ENDROOT
BRANCH   3  13
ATOM     13  C   UNL     1      34.745 -19.864 -20.704  0.00  0.00    +0.049 C 
ATOM     14  C   UNL     1      34.175 -19.686 -21.964  0.00  0.00    +0.018 C 
ATOM     15  C   UNL     1      34.817 -18.892 -22.915  0.00  0.00    +0.073 C 
ATOM     16  C   UNL     1      35.957 -19.246 -20.394  0.00  0.00    +0.015 C 
ATOM     17  C   UNL     1      36.029 -18.275 -22.605  0.00  0.00    +0.004 C 
ATOM     18  C   UNL     1      36.599 -18.453 -21.343  0.00  0.00    +0.001 C 
BRANCH  15  22
ATOM     19  F   UNL     1      32.844 -18.713 -24.255  0.00  0.00    -0.166 F 
ATOM     20  F   UNL     1      34.552 -17.522 -24.857  0.00  0.00    -0.166 F 
ATOM     21  F   UNL     1      34.577 -19.677 -25.146  0.00  0.00    -0.166 F 
ATOM     22  C   UNL     1      34.209 -18.703 -24.263  0.00  0.00    +0.419 C 
ENDBRANCH  15  22
ENDBRANCH   3  13
BRANCH   8  25
ATOM     23  O   UNL     1      35.263 -25.246 -14.880  0.00  0.00    -0.270 OA
ATOM     24  N   UNL     1      35.791 -23.120 -14.077  0.00  0.00    -0.278 N 
ATOM     25  C   UNL     1      35.104 -24.019 -14.903  0.00  0.00    +0.253 C 
ATOM     26  H   UNL     1      35.569 -22.169 -14.199  0.00  0.00    +0.155 HD
BRANCH  24  29
ATOM     27  N   UNL     1      38.913 -24.307 -12.479  0.00  0.00    -0.221 NA
ATOM     28  N   UNL     1      37.487 -23.343 -10.793  0.00  0.00    -0.221 NA
ATOM     29  C   UNL     1      36.767 -23.406 -13.088  0.00  0.00    +0.089 C 
ATOM     30  C   UNL     1      37.963 -24.021 -13.393  0.00  0.00    +0.117 C 
ATOM     31  C   UNL     1      36.581 -23.087 -11.759  0.00  0.00    +0.117 C 
ATOM     32  C   UNL     1      38.614 -23.947 -11.216  0.00  0.00    +0.199 C 
ENDBRANCH  24  29
ENDBRANCH   8  25
TORSDOF 4
ENDMDL
MODEL 4
REMARK VINA RESULT:     -10.7      5.314      9.578
REMARK  Name = 23658582
REMARK  4 active torsions:
REMARK  status: ('A' for Active; 'I' for Inactive)
REMARK    1  A    between atoms: N_3  and  C_13
REMARK    2  A    between atoms: C_8  and  C_25
REMARK    3  A    between atoms: C_15  and  C_22
REMARK    4  A    between atoms: N_24  and  C_29
REMARK                            x       y       z     vdW  Elec       q    Type
REMARK                         _______ _______ _______ _____ _____    ______ ____
ROOT
ATOM      1 CL   UNL     1      34.756 -18.732 -24.747  0.00  0.00    -0.082 Cl
ATOM      2  O   UNL     1      34.602 -14.947 -21.221  0.00  0.00    -0.352 OA
ATOM      3  N   UNL     1      33.128 -12.273 -22.915  0.00  0.00    -0.295 N 
ATOM      4  N   UNL     1      34.148 -13.633 -21.227  0.00  0.00    -0.062 NA
ATOM      5  C   UNL     1      33.801 -14.569 -23.278  0.00  0.00    +0.072 A 
ATOM      6  C   UNL     1      34.393 -15.502 -22.446  0.00  0.00    +0.183 A 
ATOM      7  C   UNL     1      33.676 -13.429 -22.460  0.00  0.00    +0.174 A 
ATOM      8  C   UNL     1      34.716 -16.802 -22.828  0.00  0.00    +0.101 C 
ATOM      9  C   UNL     1      33.494 -14.930 -24.599  0.00  0.00    +0.007 C 
ATOM     10  C   UNL     1      34.406 -17.147 -24.147  0.00  0.00    +0.065 C 
ATOM     11  C   UNL     1      33.806 -16.231 -25.018  0.00  0.00    +0.012 C 
ATOM     12  H   UNL     1      32.919 -12.284 -23.878  0.00  0.00    +0.154 HD
ENDROOT
BRANCH   3  13
ATOM     13  C   UNL     1      32.800 -11.047 -22.270  0.00  0.00    +0.049 C 
ATOM     14  C   UNL     1      33.256  -9.839 -22.796  0.00  0.00    +0.018 C 
ATOM     15  C   UNL     1      32.933  -8.638 -22.164  0.00  0.00    +0.073 C 
ATOM     16  C   UNL     1      32.020 -11.055 -21.114  0.00  0.00    +0.015 C 
ATOM     17  C   UNL     1      32.155  -8.645 -21.007  0.00  0.00    +0.004 C 
ATOM     18  C   UNL     1      31.698  -9.855 -20.482  0.00  0.00    +0.001 C 
BRANCH  15  22
ATOM     19  F   UNL     1      34.341  -6.717 -21.933  0.00  0.00    -0.166 F 
ATOM     20  F   UNL     1      34.030  -7.471 -23.941  0.00  0.00    -0.166 F 
ATOM     21  F   UNL     1      32.418  -6.439 -22.908  0.00  0.00    -0.166 F 
ATOM     22  C   UNL     1      33.422  -7.345 -22.724  0.00  0.00    +0.419 C 
ENDBRANCH  15  22
ENDBRANCH   3  13
BRANCH   8  25
ATOM     23  O   UNL     1      36.546 -17.634 -21.626  0.00  0.00    -0.270 OA
ATOM     24  N   UNL     1      34.482 -18.686 -21.349  0.00  0.00    -0.278 N 
ATOM     25  C   UNL     1      35.339 -17.715 -21.885  0.00  0.00    +0.253 C 
ATOM     26  H   UNL     1      33.543 -18.637 -21.639  0.00  0.00    +0.155 HD
BRANCH  24  29
ATOM     27  N   UNL     1      36.432 -21.038 -19.257  0.00  0.00    -0.221 NA
ATOM     28  N   UNL     1      34.084 -21.484 -18.957  0.00  0.00    -0.221 NA
ATOM     29  C   UNL     1      34.796 -19.729 -20.441  0.00  0.00    +0.089 C 
ATOM     30  C   UNL     1      36.098 -20.053 -20.116  0.00  0.00    +0.117 C 
ATOM     31  C   UNL     1      33.821 -20.485 -19.826  0.00  0.00    +0.117 C 
ATOM     32  C   UNL     1      35.391 -21.704 -18.722  0.00  0.00    +0.199 C 
ENDBRANCH  24  29
ENDBRANCH   8  25
TORSDOF 4
ENDMDL
MODEL 5
REMARK VINA RESULT:     -10.0      5.752      9.002
REMARK  Name = 23658582
REMARK  4 active torsions:
REMARK  status: ('A' for Active; 'I' for Inactive)
REMARK    1  A    between atoms: N_3  and  C_13
REMARK    2  A    between atoms: C_8  and  C_25
REMARK    3  A    between atoms: C_15  and  C_22
REMARK    4  A    between atoms: N_24  and  C_29
REMARK                            x       y       z     vdW  Elec       q    Type
REMARK                         _______ _______ _______ _____ _____    ______ ____
ROOT
ATOM      1 CL   UNL     1      32.347 -20.933 -20.223  0.00  0.00    -0.082 Cl
ATOM      2  O   UNL     1      36.748 -21.495 -17.559  0.00  0.00    -0.352 OA
ATOM      3  N   UNL     1      35.889 -23.656 -14.954  0.00  0.00    -0.295 N 
ATOM      4  N   UNL     1      37.110 -22.209 -16.422  0.00  0.00    -0.062 NA
ATOM      5  C   UNL     1      34.904 -22.567 -16.877  0.00  0.00    +0.072 A 
ATOM      6  C   UNL     1      35.432 -21.712 -17.828  0.00  0.00    +0.183 A 
ATOM      7  C   UNL     1      35.998 -22.838 -16.032  0.00  0.00    +0.174 A 
ATOM      8  C   UNL     1      34.706 -21.170 -18.885  0.00  0.00    +0.101 C 
ATOM      9  C   UNL     1      33.551 -22.928 -16.961  0.00  0.00    +0.007 C 
ATOM     10  C   UNL     1      33.359 -21.538 -18.957  0.00  0.00    +0.065 C 
ATOM     11  C   UNL     1      32.790 -22.400 -18.014  0.00  0.00    +0.012 C 
ATOM     12  H   UNL     1      34.969 -23.958 -14.775  0.00  0.00    +0.154 HD
ENDROOT
BRANCH   3  13
ATOM     13  C   UNL     1      36.848 -24.161 -14.032  0.00  0.00    +0.049 C 
ATOM     14  C   UNL     1      38.104 -24.567 -14.484  0.00  0.00    +0.018 C 
ATOM     15  C   UNL     1      39.044 -25.061 -13.580  0.00  0.00    +0.073 C 
ATOM     16  C   UNL     1      36.534 -24.248 -12.676  0.00  0.00    +0.015 C 
ATOM     17  C   UNL     1      38.730 -25.149 -12.225  0.00  0.00    +0.004 C 
ATOM     18  C   UNL     1      37.473 -24.742 -11.772  0.00  0.00    +0.001 C 
BRANCH  15  22
ATOM     19  F   UNL     1      40.951 -26.479 -13.300  0.00  0.00    -0.166 F 
ATOM     20  F   UNL     1      40.375 -25.997 -15.334  0.00  0.00    -0.166 F 
ATOM     21  F   UNL     1      41.295 -24.478 -14.079  0.00  0.00    -0.166 F 
ATOM     22  C   UNL     1      40.386 -25.497 -14.063  0.00  0.00    +0.419 C 
ENDBRANCH  15  22
ENDBRANCH   3  13
BRANCH   8  25
ATOM     23  O   UNL     1      36.574 -20.283 -19.987  0.00  0.00    -0.270 OA
ATOM     24  N   UNL     1      34.474 -19.416 -20.517  0.00  0.00    -0.278 N 
ATOM     25  C   UNL     1      35.345 -20.278 -19.838  0.00  0.00    +0.253 C 
ATOM     26  H   UNL     1      33.518 -19.517 -20.305  0.00  0.00    +0.155 HD
BRANCH  24  29
ATOM     27  N   UNL     1      34.887 -17.674 -23.759  0.00  0.00    -0.221 NA
ATOM     28  N   UNL     1      35.639 -16.224 -21.989  0.00  0.00    -0.221 NA
ATOM     29  C   UNL     1      34.794 -18.416 -21.471  0.00  0.00    +0.089 C 
ATOM     30  C   UNL     1      34.595 -18.602 -22.824  0.00  0.00    +0.117 C 
ATOM     31  C   UNL     1      35.324 -17.196 -21.108  0.00  0.00    +0.117 C 
ATOM     32  C   UNL     1      35.399 -16.526 -23.279  0.00  0.00    +0.199 C 
ENDBRANCH  24  29
ENDBRANCH   8  25
TORSDOF 4
ENDMDL
MODEL 6
REMARK VINA RESULT:      -9.9      4.045      6.513
REMARK  Name = 23658582
REMARK  4 active torsions:
REMARK  status: ('A' for Active; 'I' for Inactive)
REMARK    1  A    between atoms: N_3  and  C_13
REMARK    2  A    between atoms: C_8  and  C_25
REMARK    3  A    between atoms: C_15  and  C_22
REMARK    4  A    between atoms: N_24  and  C_29
REMARK                            x       y       z     vdW  Elec       q    Type
REMARK                         _______ _______ _______ _____ _____    ______ ____
ROOT
ATOM      1 CL   UNL     1      31.225  -6.656 -20.680  0.00  0.00    -0.082 Cl
ATOM      2  O   UNL     1      34.225  -9.784 -23.510  0.00  0.00    -0.352 OA
ATOM      3  N   UNL     1      33.127 -12.991 -22.673  0.00  0.00    -0.295 N 
ATOM      4  N   UNL     1      34.321 -11.163 -23.659  0.00  0.00    -0.062 NA
ATOM      5  C   UNL     1      32.673 -10.671 -22.160  0.00  0.00    +0.072 A 
ATOM      6  C   UNL     1      33.240  -9.494 -22.616  0.00  0.00    +0.183 A 
ATOM      7  C   UNL     1      33.389 -11.671 -22.847  0.00  0.00    +0.174 A 
ATOM      8  C   UNL     1      32.847  -8.223 -22.205  0.00  0.00    +0.101 C 
ATOM      9  C   UNL     1      31.630 -10.607 -21.224  0.00  0.00    +0.007 C 
ATOM     10  C   UNL     1      31.807  -8.175 -21.271  0.00  0.00    +0.065 C 
ATOM     11  C   UNL     1      31.209  -9.343 -20.788  0.00  0.00    +0.012 C 
ATOM     12  H   UNL     1      32.466 -13.176 -21.967  0.00  0.00    +0.154 HD
ENDROOT
BRANCH   3  13
ATOM     13  C   UNL     1      33.625 -14.161 -23.314  0.00  0.00    +0.049 C 
ATOM     14  C   UNL     1      34.205 -15.178 -22.556  0.00  0.00    +0.018 C 
ATOM     15  C   UNL     1      34.692 -16.324 -23.184  0.00  0.00    +0.073 C 
ATOM     16  C   UNL     1      33.532 -14.290 -24.700  0.00  0.00    +0.015 C 
ATOM     17  C   UNL     1      34.600 -16.453 -24.570  0.00  0.00    +0.004 C 
ATOM     18  C   UNL     1      34.020 -15.435 -25.328  0.00  0.00    +0.001 C 
BRANCH  15  22
ATOM     19  F   UNL     1      34.501 -18.495 -22.196  0.00  0.00    -0.166 F 
ATOM     20  F   UNL     1      36.459 -17.915 -22.923  0.00  0.00    -0.166 F 
ATOM     21  F   UNL     1      35.657 -17.001 -21.120  0.00  0.00    -0.166 F 
ATOM     22  C   UNL     1      35.314 -17.412 -22.375  0.00  0.00    +0.419 C 
ENDBRANCH  15  22
ENDBRANCH   3  13
BRANCH   8  25
ATOM     23  O   UNL     1      34.561  -6.627 -22.248  0.00  0.00    -0.270 OA
ATOM     24  N   UNL     1      32.825  -6.413 -23.791  0.00  0.00    -0.278 N 
ATOM     25  C   UNL     1      33.502  -7.040 -22.738  0.00  0.00    +0.253 C 
ATOM     26  H   UNL     1      31.992  -6.847 -24.085  0.00  0.00    +0.155 HD
BRANCH  24  29
ATOM     27  N   UNL     1      32.768  -2.926 -25.038  0.00  0.00    -0.221 NA
ATOM     28  N   UNL     1      34.664  -4.068 -25.989  0.00  0.00    -0.221 NA
ATOM     29  C   UNL     1      33.186  -5.232 -24.489  0.00  0.00    +0.089 C 
ATOM     30  C   UNL     1      32.453  -4.067 -24.390  0.00  0.00    +0.117 C 
ATOM     31  C   UNL     1      34.292  -5.174 -25.311  0.00  0.00    +0.117 C 
ATOM     32  C   UNL     1      33.869  -2.996 -25.809  0.00  0.00    +0.199 C 
ENDBRANCH  24  29
ENDBRANCH   8  25
TORSDOF 4
ENDMDL
MODEL 7
REMARK VINA RESULT:      -9.8      6.926     11.872
REMARK  Name = 23658582
REMARK  4 active torsions:
REMARK  status: ('A' for Active; 'I' for Inactive)
REMARK    1  A    between atoms: N_3  and  C_13
REMARK    2  A    between atoms: C_8  and  C_25
REMARK    3  A    between atoms: C_15  and  C_22
REMARK    4  A    between atoms: N_24  and  C_29
REMARK                            x       y       z     vdW  Elec       q    Type
REMARK                         _______ _______ _______ _____ _____    ______ ____
ROOT
ATOM      1 CL   UNL     1      32.089 -13.401 -20.324  0.00  0.00    -0.082 Cl
ATOM      2  O   UNL     1      33.232  -9.322 -23.297  0.00  0.00    -0.352 OA
ATOM      3  N   UNL     1      31.556  -6.667 -21.770  0.00  0.00    -0.295 N 
ATOM      4  N   UNL     1      32.900  -7.973 -23.263  0.00  0.00    -0.062 NA
ATOM      5  C   UNL     1      31.917  -9.045 -21.505  0.00  0.00    +0.072 A 
ATOM      6  C   UNL     1      32.645  -9.959 -22.247  0.00  0.00    +0.183 A 
ATOM      7  C   UNL     1      32.116  -7.830 -22.190  0.00  0.00    +0.174 A 
ATOM      8  C   UNL     1      32.744 -11.314 -21.944  0.00  0.00    +0.101 C 
ATOM      9  C   UNL     1      31.224  -9.488 -20.369  0.00  0.00    +0.007 C 
ATOM     10  C   UNL     1      32.048 -11.741 -20.809  0.00  0.00    +0.065 C 
ATOM     11  C   UNL     1      31.301 -10.847 -20.035  0.00  0.00    +0.012 C 
ATOM     12  H   UNL     1      30.938  -6.775 -21.011  0.00  0.00    +0.154 HD
ENDROOT
BRANCH   3  13
ATOM     13  C   UNL     1      31.690  -5.322 -22.215  0.00  0.00    +0.049 C 
ATOM     14  C   UNL     1      31.953  -5.055 -23.558  0.00  0.00    +0.018 C 
ATOM     15  C   UNL     1      32.084  -3.736 -23.994  0.00  0.00    +0.073 C 
ATOM     16  C   UNL     1      31.556  -4.271 -21.308  0.00  0.00    +0.015 C 
ATOM     17  C   UNL     1      31.950  -2.685 -23.088  0.00  0.00    +0.004 C 
ATOM     18  C   UNL     1      31.686  -2.953 -21.744  0.00  0.00    +0.001 C 
BRANCH  15  22
ATOM     19  F   UNL     1      32.520  -4.573 -26.193  0.00  0.00    -0.166 F 
ATOM     20  F   UNL     1      31.384  -2.732 -26.050  0.00  0.00    -0.166 F 
ATOM     21  F   UNL     1      33.512  -2.729 -25.606  0.00  0.00    -0.166 F 
ATOM     22  C   UNL     1      32.367  -3.450 -25.430  0.00  0.00    +0.419 C 
ENDBRANCH  15  22
ENDBRANCH   3  13
BRANCH   8  25
ATOM     23  O   UNL     1      34.512 -11.778 -23.409  0.00  0.00    -0.270 OA
ATOM     24  N   UNL     1      33.073 -13.524 -22.840  0.00  0.00    -0.278 N 
ATOM     25  C   UNL     1      33.533 -12.202 -22.781  0.00  0.00    +0.253 C 
ATOM     26  H   UNL     1      32.283 -13.728 -22.290  0.00  0.00    +0.155 HD
BRANCH  24  29
ATOM     27  N   UNL     1      35.059 -16.513 -23.752  0.00  0.00    -0.221 NA
ATOM     28  N   UNL     1      33.694 -15.876 -25.631  0.00  0.00    -0.221 NA
ATOM     29  C   UNL     1      33.601 -14.605 -23.590  0.00  0.00    +0.089 C 
ATOM     30  C   UNL     1      34.537 -15.474 -23.067  0.00  0.00    +0.117 C 
ATOM     31  C   UNL     1      33.212 -14.857 -24.890  0.00  0.00    +0.117 C 
ATOM     32  C   UNL     1      34.601 -16.653 -25.009  0.00  0.00    +0.199 C 
ENDBRANCH  24  29
ENDBRANCH   8  25
TORSDOF 4
ENDMDL
