MODEL 1
REMARK VINA RESULT:     -11.6      0.000      0.000
REMARK  Name = 16755766
REMARK  5 active torsions:
REMARK  status: ('A' for Active; 'I' for Inactive)
REMARK    1  A    between atoms: N_1  and  C_25
REMARK    2  A    between atoms: N_3  and  C_12
REMARK    3  A    between atoms: C_5  and  C_20
REMARK    4  A    between atoms: C_25  and  C_26
REMARK    5  A    between atoms: C_26  and  C_29
REMARK                            x       y       z     vdW  Elec       q    Type
REMARK                         _______ _______ _______ _____ _____    ______ ____
ROOT
ATOM      1  N   UNL     1      32.592 -23.287 -15.643  0.00  0.00    -0.174 N 
ATOM      2  N   UNL     1      33.808 -23.480 -15.129  0.00  0.00    -0.096 NA
ATOM      3  N   UNL     1      34.367 -24.397 -12.986  0.00  0.00    -0.246 N 
ATOM      4  N   UNL     1      32.152 -24.139 -13.696  0.00  0.00    -0.319 NA
ATOM      5  C   UNL     1      31.612 -23.675 -14.799  0.00  0.00    +0.216 C 
ATOM      6  C   UNL     1      33.487 -24.001 -13.942  0.00  0.00    +0.165 C 
ATOM      7  H   UNL     1      33.940 -24.676 -12.144  0.00  0.00    +0.165 HD
ENDROOT
BRANCH   3  12
ATOM      8  F   UNL     1      40.522 -26.890 -13.710  0.00  0.00    -0.125 F 
ATOM      9  F   UNL     1      40.646 -25.218 -15.114  0.00  0.00    -0.125 F 
ATOM     10  O   UNL     1      38.612 -26.103 -14.645  0.00  0.00    -0.395 OA
ATOM     11  O   UNL     1      39.868 -24.832 -13.021  0.00  0.00    -0.395 OA
ATOM     12  C   UNL     1      35.787 -24.487 -12.969  0.00  0.00    +0.061 C 
ATOM     13  C   UNL     1      37.808 -25.362 -13.832  0.00  0.00    +0.183 C 
ATOM     14  C   UNL     1      36.430 -25.308 -13.890  0.00  0.00    +0.056 C 
ATOM     15  C   UNL     1      38.525 -24.636 -12.907  0.00  0.00    +0.182 C 
ATOM     16  C   UNL     1      36.508 -23.746 -12.022  0.00  0.00    +0.019 C 
ATOM     17  C   UNL     1      37.902 -23.818 -11.987  0.00  0.00    +0.042 C 
ATOM     18  C   UNL     1      39.900 -25.756 -14.118  0.00  0.00    +0.589 C 
ENDBRANCH   3  12
BRANCH   5  20
ATOM     19  N   UNL     1      27.470 -23.391 -15.649  0.00  0.00    -0.242 NA
ATOM     20  C   UNL     1      30.201 -23.578 -15.087  0.00  0.00    +0.050 C 
ATOM     21  C   UNL     1      29.493 -22.436 -14.730  0.00  0.00    +0.025 C 
ATOM     22  C   UNL     1      29.547 -24.626 -15.724  0.00  0.00    +0.025 C 
ATOM     23  C   UNL     1      28.141 -22.392 -15.032  0.00  0.00    +0.099 C 
ATOM     24  C   UNL     1      28.192 -24.484 -15.980  0.00  0.00    +0.099 C 
ENDBRANCH   5  20
BRANCH   1  25
ATOM     25  C   UNL     1      32.458 -22.704 -16.972  0.00  0.00    +0.129 C 
BRANCH  25  26
ATOM     26  C   UNL     1      33.780 -22.706 -17.738  0.00  0.00    +0.109 C 
BRANCH  26  29
ATOM     27  O   UNL     1      32.724 -21.523 -19.535  0.00  0.00    -0.275 OA
ATOM     28  N   UNL     1      34.995 -21.151 -19.242  0.00  0.00    -0.276 N 
ATOM     29  C   UNL     1      33.770 -21.745 -18.919  0.00  0.00    +0.228 C 
ATOM     30  C   UNL     1      36.221 -21.428 -18.497  0.00  0.00    +0.115 C 
ATOM     31  C   UNL     1      35.140 -20.211 -20.347  0.00  0.00    +0.115 C 
ENDBRANCH  26  29
ENDBRANCH  25  26
ENDBRANCH   1  25
TORSDOF 5
ENDMDL
MODEL 2
REMARK VINA RESULT:     -11.6      4.332      8.252
REMARK  Name = 16755766
REMARK  5 active torsions:
REMARK  status: ('A' for Active; 'I' for Inactive)
REMARK    1  A    between atoms: N_1  and  C_25
REMARK    2  A    between atoms: N_3  and  C_12
REMARK    3  A    between atoms: C_5  and  C_20
REMARK    4  A    between atoms: C_25  and  C_26
REMARK    5  A    between atoms: C_26  and  C_29
REMARK                            x       y       z     vdW  Elec       q    Type
REMARK                         _______ _______ _______ _____ _____    ______ ____
ROOT
ATOM      1  N   UNL     1      34.919 -23.558 -15.165  0.00  0.00    -0.174 N 
ATOM      2  N   UNL     1      34.726 -22.805 -16.250  0.00  0.00    -0.096 NA
ATOM      3  N   UNL     1      36.386 -21.722 -17.598  0.00  0.00    -0.246 N 
ATOM      4  N   UNL     1      36.943 -23.002 -15.720  0.00  0.00    -0.319 NA
ATOM      5  C   UNL     1      36.226 -23.676 -14.849  0.00  0.00    +0.216 C 
ATOM      6  C   UNL     1      35.988 -22.491 -16.551  0.00  0.00    +0.165 C 
ATOM      7  H   UNL     1      37.351 -21.530 -17.607  0.00  0.00    +0.165 HD
ENDROOT
BRANCH   3  12
ATOM      8  F   UNL     1      34.692 -17.437 -22.435  0.00  0.00    -0.125 F 
ATOM      9  F   UNL     1      35.102 -19.207 -23.653  0.00  0.00    -0.125 F 
ATOM     10  O   UNL     1      36.111 -19.013 -21.632  0.00  0.00    -0.395 OA
ATOM     11  O   UNL     1      33.740 -19.411 -21.853  0.00  0.00    -0.395 OA
ATOM     12  C   UNL     1      35.674 -21.140 -18.685  0.00  0.00    +0.061 C 
ATOM     13  C   UNL     1      35.623 -19.808 -20.639  0.00  0.00    +0.183 C 
ATOM     14  C   UNL     1      36.357 -20.351 -19.603  0.00  0.00    +0.056 C 
ATOM     15  C   UNL     1      34.271 -20.035 -20.766  0.00  0.00    +0.182 C 
ATOM     16  C   UNL     1      34.298 -21.377 -18.805  0.00  0.00    +0.019 C 
ATOM     17  C   UNL     1      33.579 -20.817 -19.864  0.00  0.00    +0.042 C 
ATOM     18  C   UNL     1      34.912 -18.775 -22.382  0.00  0.00    +0.589 C 
ENDBRANCH   3  12
BRANCH   5  20
ATOM     19  N   UNL     1      37.700 -25.880 -11.544  0.00  0.00    -0.242 NA
ATOM     20  C   UNL     1      36.730 -24.426 -13.724  0.00  0.00    +0.050 C 
ATOM     21  C   UNL     1      37.093 -23.769 -12.553  0.00  0.00    +0.025 C 
ATOM     22  C   UNL     1      36.851 -25.808 -13.806  0.00  0.00    +0.025 C 
ATOM     23  C   UNL     1      37.568 -24.535 -11.502  0.00  0.00    +0.099 C 
ATOM     24  C   UNL     1      37.338 -26.483 -12.698  0.00  0.00    +0.099 C 
ENDBRANCH   5  20
BRANCH   1  25
ATOM     25  C   UNL     1      33.770 -24.127 -14.472  0.00  0.00    +0.129 C 
BRANCH  25  26
ATOM     26  C   UNL     1      32.699 -23.078 -14.175  0.00  0.00    +0.109 C 
BRANCH  26  29
ATOM     27  O   UNL     1      31.269 -22.946 -16.094  0.00  0.00    -0.275 OA
ATOM     28  N   UNL     1      30.411 -24.035 -14.235  0.00  0.00    -0.276 N 
ATOM     29  C   UNL     1      31.404 -23.339 -14.932  0.00  0.00    +0.228 C 
ATOM     30  C   UNL     1      30.593 -24.492 -12.859  0.00  0.00    +0.115 C 
ATOM     31  C   UNL     1      29.119 -24.357 -14.828  0.00  0.00    +0.115 C 
ENDBRANCH  26  29
ENDBRANCH  25  26
ENDBRANCH   1  25
TORSDOF 5
ENDMDL
MODEL 3
REMARK VINA RESULT:      -9.8      6.997     11.229
REMARK  Name = 16755766
REMARK  5 active torsions:
REMARK  status: ('A' for Active; 'I' for Inactive)
REMARK    1  A    between atoms: N_1  and  C_25
REMARK    2  A    between atoms: N_3  and  C_12
REMARK    3  A    between atoms: C_5  and  C_20
REMARK    4  A    between atoms: C_25  and  C_26
REMARK    5  A    between atoms: C_26  and  C_29
REMARK                            x       y       z     vdW  Elec       q    Type
REMARK                         _______ _______ _______ _____ _____    ______ ____
ROOT
ATOM      1  N   UNL     1      34.338 -14.584 -21.575  0.00  0.00    -0.174 N 
ATOM      2  N   UNL     1      34.563 -15.809 -21.096  0.00  0.00    -0.096 NA
ATOM      3  N   UNL     1      34.995 -17.814 -22.337  0.00  0.00    -0.246 N 
ATOM      4  N   UNL     1      34.620 -15.753 -23.382  0.00  0.00    -0.319 NA
ATOM      5  C   UNL     1      34.371 -14.548 -22.924  0.00  0.00    +0.216 C 
ATOM      6  C   UNL     1      34.729 -16.485 -22.235  0.00  0.00    +0.165 C 
ATOM      7  H   UNL     1      34.998 -18.149 -23.262  0.00  0.00    +0.165 HD
ENDROOT
BRANCH   3  12
ATOM      8  F   UNL     1      34.098 -22.075 -17.272  0.00  0.00    -0.125 F 
ATOM      9  F   UNL     1      34.557 -23.504 -18.863  0.00  0.00    -0.125 F 
ATOM     10  O   UNL     1      33.688 -21.485 -19.422  0.00  0.00    -0.395 OA
ATOM     11  O   UNL     1      35.931 -21.727 -18.561  0.00  0.00    -0.395 OA
ATOM     12  C   UNL     1      35.269 -18.813 -21.362  0.00  0.00    +0.061 C 
ATOM     13  C   UNL     1      34.555 -20.591 -19.974  0.00  0.00    +0.183 C 
ATOM     14  C   UNL     1      34.239 -19.637 -20.920  0.00  0.00    +0.056 C 
ATOM     15  C   UNL     1      35.834 -20.729 -19.483  0.00  0.00    +0.182 C 
ATOM     16  C   UNL     1      36.574 -18.946 -20.868  0.00  0.00    +0.019 C 
ATOM     17  C   UNL     1      36.867 -19.921 -19.911  0.00  0.00    +0.042 C 
ATOM     18  C   UNL     1      34.573 -22.187 -18.538  0.00  0.00    +0.589 C 
ENDBRANCH   3  12
BRANCH   5  20
ATOM     19  N   UNL     1      33.745 -11.061 -25.249  0.00  0.00    -0.242 NA
ATOM     20  C   UNL     1      34.157 -13.360 -23.715  0.00  0.00    +0.050 C 
ATOM     21  C   UNL     1      34.555 -12.118 -23.231  0.00  0.00    +0.025 C 
ATOM     22  C   UNL     1      33.554 -13.453 -24.964  0.00  0.00    +0.025 C 
ATOM     23  C   UNL     1      34.329 -11.009 -24.031  0.00  0.00    +0.099 C 
ATOM     24  C   UNL     1      33.372 -12.284 -25.685  0.00  0.00    +0.099 C 
ENDBRANCH   5  20
BRANCH   1  25
ATOM     25  C   UNL     1      34.085 -13.486 -20.650  0.00  0.00    +0.129 C 
BRANCH  25  26
ATOM     26  C   UNL     1      32.622 -13.425 -20.215  0.00  0.00    +0.109 C 
BRANCH  26  29
ATOM     27  O   UNL     1      31.423 -12.704 -22.162  0.00  0.00    -0.275 OA
ATOM     28  N   UNL     1      31.561 -11.191 -20.409  0.00  0.00    -0.276 N 
ATOM     29  C   UNL     1      31.815 -12.420 -21.027  0.00  0.00    +0.228 C 
ATOM     30  C   UNL     1      32.035 -10.876 -19.064  0.00  0.00    +0.115 C 
ATOM     31  C   UNL     1      30.804 -10.130 -21.063  0.00  0.00    +0.115 C 
ENDBRANCH  26  29
ENDBRANCH  25  26
ENDBRANCH   1  25
TORSDOF 5
ENDMDL
MODEL 4
REMARK VINA RESULT:      -9.4      4.877      8.693
REMARK  Name = 16755766
REMARK  5 active torsions:
REMARK  status: ('A' for Active; 'I' for Inactive)
REMARK    1  A    between atoms: N_1  and  C_25
REMARK    2  A    between atoms: N_3  and  C_12
REMARK    3  A    between atoms: C_5  and  C_20
REMARK    4  A    between atoms: C_25  and  C_26
REMARK    5  A    between atoms: C_26  and  C_29
REMARK                            x       y       z     vdW  Elec       q    Type
REMARK                         _______ _______ _______ _____ _____    ______ ____
ROOT
ATOM      1  N   UNL     1      35.199 -17.670 -21.053  0.00  0.00    -0.174 N 
ATOM      2  N   UNL     1      35.307 -18.579 -20.083  0.00  0.00    -0.096 NA
ATOM      3  N   UNL     1      34.751 -20.908 -20.186  0.00  0.00    -0.246 N 
ATOM      4  N   UNL     1      34.477 -19.476 -22.017  0.00  0.00    -0.319 NA
ATOM      5  C   UNL     1      34.709 -18.195 -22.196  0.00  0.00    +0.216 C 
ATOM      6  C   UNL     1      34.856 -19.663 -20.719  0.00  0.00    +0.165 C 
ATOM      7  H   UNL     1      34.316 -21.560 -20.782  0.00  0.00    +0.165 HD
ENDROOT
BRANCH   3  12
ATOM      8  F   UNL     1      34.399 -23.140 -13.900  0.00  0.00    -0.125 F 
ATOM      9  F   UNL     1      35.035 -24.980 -14.897  0.00  0.00    -0.125 F 
ATOM     10  O   UNL     1      33.918 -23.415 -16.099  0.00  0.00    -0.395 OA
ATOM     11  O   UNL     1      36.173 -23.064 -15.310  0.00  0.00    -0.395 OA
ATOM     12  C   UNL     1      35.150 -21.451 -18.933  0.00  0.00    +0.061 C 
ATOM     13  C   UNL     1      34.665 -22.682 -16.972  0.00  0.00    +0.183 C 
ATOM     14  C   UNL     1      34.232 -22.177 -18.181  0.00  0.00    +0.056 C 
ATOM     15  C   UNL     1      35.952 -22.483 -16.522  0.00  0.00    +0.182 C 
ATOM     16  C   UNL     1      36.461 -21.243 -18.483  0.00  0.00    +0.019 C 
ATOM     17  C   UNL     1      36.874 -21.766 -17.256  0.00  0.00    +0.042 C 
ATOM     18  C   UNL     1      34.884 -23.643 -15.063  0.00  0.00    +0.589 C 
ENDBRANCH   3  12
BRANCH   5  20
ATOM     19  N   UNL     1      34.034 -15.989 -25.750  0.00  0.00    -0.242 NA
ATOM     20  C   UNL     1      34.479 -17.446 -23.407  0.00  0.00    +0.050 C 
ATOM     21  C   UNL     1      33.439 -17.798 -24.260  0.00  0.00    +0.025 C 
ATOM     22  C   UNL     1      35.296 -16.366 -23.724  0.00  0.00    +0.025 C 
ATOM     23  C   UNL     1      33.260 -17.044 -25.409  0.00  0.00    +0.099 C 
ATOM     24  C   UNL     1      35.034 -15.677 -24.897  0.00  0.00    +0.099 C 
ENDBRANCH   5  20
BRANCH   1  25
ATOM     25  C   UNL     1      35.585 -16.288 -20.790  0.00  0.00    +0.129 C 
BRANCH  25  26
ATOM     26  C   UNL     1      34.434 -15.470 -20.206  0.00  0.00    +0.109 C 
BRANCH  26  29
ATOM     27  O   UNL     1      34.998 -13.786 -21.816  0.00  0.00    -0.275 OA
ATOM     28  N   UNL     1      32.974 -13.530 -20.713  0.00  0.00    -0.276 N 
ATOM     29  C   UNL     1      34.175 -14.191 -20.990  0.00  0.00    +0.228 C 
ATOM     30  C   UNL     1      32.014 -14.027 -19.730  0.00  0.00    +0.115 C 
ATOM     31  C   UNL     1      32.589 -12.293 -21.383  0.00  0.00    +0.115 C 
ENDBRANCH  26  29
ENDBRANCH  25  26
ENDBRANCH   1  25
TORSDOF 5
ENDMDL
MODEL 5
REMARK VINA RESULT:      -9.0     10.654     14.701
REMARK  Name = 16755766
REMARK  5 active torsions:
REMARK  status: ('A' for Active; 'I' for Inactive)
REMARK    1  A    between atoms: N_1  and  C_25
REMARK    2  A    between atoms: N_3  and  C_12
REMARK    3  A    between atoms: C_5  and  C_20
REMARK    4  A    between atoms: C_25  and  C_26
REMARK    5  A    between atoms: C_26  and  C_29
REMARK                            x       y       z     vdW  Elec       q    Type
REMARK                         _______ _______ _______ _____ _____    ______ ____
ROOT
ATOM      1  N   UNL     1      32.036 -10.406 -21.894  0.00  0.00    -0.174 N 
ATOM      2  N   UNL     1      32.540 -11.627 -21.706  0.00  0.00    -0.096 NA
ATOM      3  N   UNL     1      34.474 -12.590 -22.743  0.00  0.00    -0.246 N 
ATOM      4  N   UNL     1      33.753 -10.415 -23.220  0.00  0.00    -0.319 NA
ATOM      5  C   UNL     1      32.750  -9.688 -22.787  0.00  0.00    +0.216 C 
ATOM      6  C   UNL     1      33.585 -11.584 -22.536  0.00  0.00    +0.165 C 
ATOM      7  H   UNL     1      35.127 -12.403 -23.456  0.00  0.00    +0.165 HD
ENDROOT
BRANCH   3  12
ATOM      8  F   UNL     1      34.479 -19.216 -21.893  0.00  0.00    -0.125 F 
ATOM      9  F   UNL     1      36.619 -18.825 -21.668  0.00  0.00    -0.125 F 
ATOM     10  O   UNL     1      35.363 -17.373 -22.875  0.00  0.00    -0.395 OA
ATOM     11  O   UNL     1      35.149 -17.576 -20.478  0.00  0.00    -0.395 OA
ATOM     12  C   UNL     1      34.642 -13.862 -22.128  0.00  0.00    +0.061 C 
ATOM     13  C   UNL     1      35.082 -16.182 -22.276  0.00  0.00    +0.183 C 
ATOM     14  C   UNL     1      34.929 -14.970 -22.919  0.00  0.00    +0.056 C 
ATOM     15  C   UNL     1      34.961 -16.298 -20.909  0.00  0.00    +0.182 C 
ATOM     16  C   UNL     1      34.516 -13.971 -20.736  0.00  0.00    +0.019 C 
ATOM     17  C   UNL     1      34.678 -15.209 -20.111  0.00  0.00    +0.042 C 
ATOM     18  C   UNL     1      35.400 -18.234 -21.728  0.00  0.00    +0.589 C 
ENDBRANCH   3  12
BRANCH   5  20
ATOM     19  N   UNL     1      31.825  -5.723 -23.962  0.00  0.00    -0.242 NA
ATOM     20  C   UNL     1      32.434  -8.338 -23.188  0.00  0.00    +0.050 C 
ATOM     21  C   UNL     1      31.148  -8.017 -23.608  0.00  0.00    +0.025 C 
ATOM     22  C   UNL     1      33.416  -7.354 -23.155  0.00  0.00    +0.025 C 
ATOM     23  C   UNL     1      30.897  -6.706 -23.981  0.00  0.00    +0.099 C 
ATOM     24  C   UNL     1      33.063  -6.073 -23.548  0.00  0.00    +0.099 C 
ENDBRANCH   5  20
BRANCH   1  25
ATOM     25  C   UNL     1      30.836 -10.005 -21.169  0.00  0.00    +0.129 C 
BRANCH  25  26
ATOM     26  C   UNL     1      31.080  -9.901 -19.664  0.00  0.00    +0.109 C 
BRANCH  26  29
ATOM     27  O   UNL     1      33.290  -9.611 -18.782  0.00  0.00    -0.275 OA
ATOM     28  N   UNL     1      32.278  -7.729 -19.685  0.00  0.00    -0.276 N 
ATOM     29  C   UNL     1      32.320  -9.082 -19.332  0.00  0.00    +0.228 C 
ATOM     30  C   UNL     1      31.118  -7.123 -20.335  0.00  0.00    +0.115 C 
ATOM     31  C   UNL     1      33.389  -6.820 -19.429  0.00  0.00    +0.115 C 
ENDBRANCH  26  29
ENDBRANCH  25  26
ENDBRANCH   1  25
TORSDOF 5
ENDMDL
