MODEL 1
REMARK VINA RESULT:     -11.7      0.000      0.000
REMARK  Name = 71616860
REMARK  5 active torsions:
REMARK  status: ('A' for Active; 'I' for Inactive)
REMARK    1  A    between atoms: C_10  and  C_17
REMARK    2  A    between atoms: C_15  and  O_21
REMARK    3  A    between atoms: C_16  and  C_18
REMARK    4  A    between atoms: O_21  and  C_22
REMARK    5  A    between atoms: C_22  and  C_25
REMARK                            x       y       z     vdW  Elec       q    Type
REMARK                         _______ _______ _______ _____ _____    ______ ____
ROOT
ATOM      1  O   UNL     1      37.257 -24.362 -13.186  0.00  0.00    -0.193 OA
ATOM      2  N   UNL     1      36.154 -23.396 -14.977  0.00  0.00    -0.205 N 
ATOM      3  N   UNL     1      34.991 -24.458 -13.165  0.00  0.00    -0.284 NA
ATOM      4  C   UNL     1      37.314 -21.659 -16.315  0.00  0.00    +0.049 C 
ATOM      5  C   UNL     1      36.157 -21.682 -17.275  0.00  0.00    -0.019 C 
ATOM      6  C   UNL     1      37.417 -23.007 -15.615  0.00  0.00    +0.114 C 
ATOM      7  C   UNL     1      34.997 -22.412 -16.943  0.00  0.00    +0.011 C 
ATOM      8  C   UNL     1      34.951 -23.134 -15.640  0.00  0.00    +0.068 C 
ATOM      9  C   UNL     1      36.224 -20.958 -18.474  0.00  0.00    +0.004 C 
ATOM     10  C   UNL     1      35.160 -20.982 -19.371  0.00  0.00    +0.041 C 
ATOM     11  C   UNL     1      33.942 -22.436 -17.870  0.00  0.00    +0.002 C 
ATOM     12  C   UNL     1      33.786 -23.493 -15.079  0.00  0.00    +0.088 C 
ATOM     13  C   UNL     1      34.023 -21.726 -19.072  0.00  0.00    +0.008 C 
ATOM     14  C   UNL     1      36.191 -24.088 -13.743  0.00  0.00    +0.275 C 
ATOM     15  C   UNL     1      33.903 -24.178 -13.791  0.00  0.00    +0.291 C 
ENDROOT
BRANCH  10  17
ATOM     16  C   UNL     1      35.303 -19.635 -21.624  0.00  0.00    -0.087 C 
ATOM     17  C   UNL     1      35.237 -20.250 -20.595  0.00  0.00    -0.064 C 
BRANCH  16  18
ATOM     18  C   UNL     1      35.384 -18.898 -22.858  0.00  0.00    +0.065 C 
ATOM     19  C   UNL     1      34.829 -17.503 -22.900  0.00  0.00    +0.014 C 
ATOM     20  C   UNL     1      34.114 -18.614 -23.610  0.00  0.00    +0.014 C 
ENDBRANCH  16  18
ENDBRANCH  10  17
BRANCH  15  21
ATOM     21  O   UNL     1      32.706 -24.520 -13.262  0.00  0.00    -0.448 OA
BRANCH  21  22
ATOM     22  C   UNL     1      31.908 -23.409 -12.882  0.00  0.00    +0.240 C 
BRANCH  22  25
ATOM     23  O   UNL     1      30.367 -22.753 -14.590  0.00  0.00    -0.347 OA
ATOM     24  O   UNL     1      28.939 -25.163 -14.400  0.00  0.00    -0.348 OA
ATOM     25  C   UNL     1      30.505 -23.593 -13.438  0.00  0.00    +0.188 C 
ATOM     26  C   UNL     1      30.249 -25.044 -13.838  0.00  0.00    +0.175 C 
ATOM     27  C   UNL     1      29.059 -22.876 -15.156  0.00  0.00    +0.174 C 
ATOM     28  C   UNL     1      28.805 -24.322 -15.548  0.00  0.00    +0.174 C 
ENDBRANCH  22  25
ENDBRANCH  21  22
ENDBRANCH  15  21
TORSDOF 5
ENDMDL
MODEL 2
REMARK VINA RESULT:     -11.7      5.292      9.748
REMARK  Name = 71616860
REMARK  5 active torsions:
REMARK  status: ('A' for Active; 'I' for Inactive)
REMARK    1  A    between atoms: C_10  and  C_17
REMARK    2  A    between atoms: C_15  and  O_21
REMARK    3  A    between atoms: C_16  and  C_18
REMARK    4  A    between atoms: O_21  and  C_22
REMARK    5  A    between atoms: C_22  and  C_25
REMARK                            x       y       z     vdW  Elec       q    Type
REMARK                         _______ _______ _______ _____ _____    ______ ____
ROOT
ATOM      1  O   UNL     1      38.251 -18.393 -21.447  0.00  0.00    -0.193 OA
ATOM      2  N   UNL     1      36.314 -19.405 -20.684  0.00  0.00    -0.205 N 
ATOM      3  N   UNL     1      36.390 -18.127 -22.716  0.00  0.00    -0.284 NA
ATOM      4  C   UNL     1      36.488 -21.319 -19.116  0.00  0.00    +0.049 C 
ATOM      5  C   UNL     1      34.993 -21.281 -18.966  0.00  0.00    -0.019 C 
ATOM      6  C   UNL     1      36.993 -19.933 -19.496  0.00  0.00    +0.114 C 
ATOM      7  C   UNL     1      34.233 -20.445 -19.810  0.00  0.00    +0.011 C 
ATOM      8  C   UNL     1      34.941 -19.626 -20.835  0.00  0.00    +0.068 C 
ATOM      9  C   UNL     1      34.361 -22.096 -18.015  0.00  0.00    +0.004 C 
ATOM     10  C   UNL     1      32.978 -22.059 -17.866  0.00  0.00    +0.041 C 
ATOM     11  C   UNL     1      32.841 -20.411 -19.631  0.00  0.00    +0.002 C 
ATOM     12  C   UNL     1      34.300 -19.140 -21.908  0.00  0.00    +0.088 C 
ATOM     13  C   UNL     1      32.220 -21.213 -18.669  0.00  0.00    +0.008 C 
ATOM     14  C   UNL     1      37.051 -18.627 -21.610  0.00  0.00    +0.275 C 
ATOM     15  C   UNL     1      35.132 -18.372 -22.834  0.00  0.00    +0.291 C 
ENDROOT
BRANCH  10  17
ATOM     16  C   UNL     1      31.804 -23.577 -16.069  0.00  0.00    -0.087 C 
ATOM     17  C   UNL     1      32.340 -22.885 -16.890  0.00  0.00    -0.064 C 
BRANCH  16  18
ATOM     18  C   UNL     1      31.160 -24.406 -15.083  0.00  0.00    +0.065 C 
ATOM     19  C   UNL     1      29.659 -24.433 -15.036  0.00  0.00    +0.014 C 
ATOM     20  C   UNL     1      30.430 -23.741 -13.951  0.00  0.00    +0.014 C 
ENDBRANCH  16  18
ENDBRANCH  10  17
BRANCH  15  21
ATOM     21  O   UNL     1      34.446 -17.903 -23.901  0.00  0.00    -0.448 OA
BRANCH  21  22
ATOM     22  C   UNL     1      34.884 -16.628 -24.349  0.00  0.00    +0.240 C 
BRANCH  22  25
ATOM     23  O   UNL     1      35.173 -14.825 -22.803  0.00  0.00    -0.347 OA
ATOM     24  O   UNL     1      32.813 -13.561 -23.644  0.00  0.00    -0.348 OA
ATOM     25  C   UNL     1      34.181 -15.551 -23.540  0.00  0.00    +0.188 C 
ATOM     26  C   UNL     1      33.416 -14.584 -24.441  0.00  0.00    +0.175 C 
ATOM     27  C   UNL     1      34.571 -13.798 -22.012  0.00  0.00    +0.174 C 
ATOM     28  C   UNL     1      33.806 -12.842 -22.910  0.00  0.00    +0.174 C 
ENDBRANCH  22  25
ENDBRANCH  21  22
ENDBRANCH  15  21
TORSDOF 5
ENDMDL
MODEL 3
REMARK VINA RESULT:     -11.0      8.534     13.030
REMARK  Name = 71616860
REMARK  5 active torsions:
REMARK  status: ('A' for Active; 'I' for Inactive)
REMARK    1  A    between atoms: C_10  and  C_17
REMARK    2  A    between atoms: C_15  and  O_21
REMARK    3  A    between atoms: C_16  and  C_18
REMARK    4  A    between atoms: O_21  and  C_22
REMARK    5  A    between atoms: C_22  and  C_25
REMARK                            x       y       z     vdW  Elec       q    Type
REMARK                         _______ _______ _______ _____ _____    ______ ____
ROOT
ATOM      1  O   UNL     1      33.809 -12.971 -26.538  0.00  0.00    -0.193 OA
ATOM      2  N   UNL     1      34.122 -14.169 -24.582  0.00  0.00    -0.205 N 
ATOM      3  N   UNL     1      33.388 -11.883 -24.593  0.00  0.00    -0.284 NA
ATOM      4  C   UNL     1      34.057 -16.648 -24.660  0.00  0.00    +0.049 C 
ATOM      5  C   UNL     1      34.485 -16.665 -23.219  0.00  0.00    -0.019 C 
ATOM      6  C   UNL     1      34.547 -15.365 -25.318  0.00  0.00    +0.114 C 
ATOM      7  C   UNL     1      34.528 -15.456 -22.495  0.00  0.00    +0.011 C 
ATOM      8  C   UNL     1      34.137 -14.192 -23.184  0.00  0.00    +0.068 C 
ATOM      9  C   UNL     1      34.809 -17.880 -22.597  0.00  0.00    +0.004 C 
ATOM     10  C   UNL     1      35.214 -17.901 -21.265  0.00  0.00    +0.041 C 
ATOM     11  C   UNL     1      34.956 -15.499 -21.158  0.00  0.00    +0.002 C 
ATOM     12  C   UNL     1      33.764 -13.105 -22.492  0.00  0.00    +0.088 C 
ATOM     13  C   UNL     1      35.294 -16.711 -20.550  0.00  0.00    +0.008 C 
ATOM     14  C   UNL     1      33.774 -13.003 -25.306  0.00  0.00    +0.275 C 
ATOM     15  C   UNL     1      33.391 -11.949 -23.308  0.00  0.00    +0.291 C 
ENDROOT
BRANCH  10  17
ATOM     16  C   UNL     1      35.832 -20.180 -20.110  0.00  0.00    -0.087 C 
ATOM     17  C   UNL     1      35.550 -19.140 -20.638  0.00  0.00    -0.064 C 
BRANCH  16  18
ATOM     18  C   UNL     1      36.169 -21.428 -19.474  0.00  0.00    +0.065 C 
ATOM     19  C   UNL     1      35.195 -22.022 -18.498  0.00  0.00    +0.014 C 
ATOM     20  C   UNL     1      36.479 -21.424 -18.004  0.00  0.00    +0.014 C 
ENDBRANCH  16  18
ENDBRANCH  10  17
BRANCH  15  21
ATOM     21  O   UNL     1      33.020 -10.877 -22.572  0.00  0.00    -0.448 OA
BRANCH  21  22
ATOM     22  C   UNL     1      33.012  -9.657 -23.298  0.00  0.00    +0.240 C 
BRANCH  22  25
ATOM     23  O   UNL     1      32.362  -9.083 -21.068  0.00  0.00    -0.347 OA
ATOM     24  O   UNL     1      33.433  -6.498 -21.288  0.00  0.00    -0.348 OA
ATOM     25  C   UNL     1      32.651  -8.522 -22.354  0.00  0.00    +0.188 C 
ATOM     26  C   UNL     1      33.796  -7.520 -22.221  0.00  0.00    +0.175 C 
ATOM     27  C   UNL     1      32.005  -8.061 -20.134  0.00  0.00    +0.174 C 
ATOM     28  C   UNL     1      33.143  -7.063 -20.008  0.00  0.00    +0.174 C 
ENDBRANCH  22  25
ENDBRANCH  21  22
ENDBRANCH  15  21
TORSDOF 5
ENDMDL
MODEL 4
REMARK VINA RESULT:     -10.8      8.187     12.211
REMARK  Name = 71616860
REMARK  5 active torsions:
REMARK  status: ('A' for Active; 'I' for Inactive)
REMARK    1  A    between atoms: C_10  and  C_17
REMARK    2  A    between atoms: C_15  and  O_21
REMARK    3  A    between atoms: C_16  and  C_18
REMARK    4  A    between atoms: O_21  and  C_22
REMARK    5  A    between atoms: C_22  and  C_25
REMARK                            x       y       z     vdW  Elec       q    Type
REMARK                         _______ _______ _______ _____ _____    ______ ____
ROOT
ATOM      1  O   UNL     1      34.352 -15.591 -25.831  0.00  0.00    -0.193 OA
ATOM      2  N   UNL     1      33.836 -13.947 -24.286  0.00  0.00    -0.205 N 
ATOM      3  N   UNL     1      34.781 -16.062 -23.655  0.00  0.00    -0.284 NA
ATOM      4  C   UNL     1      33.670 -11.589 -25.040  0.00  0.00    +0.049 C 
ATOM      5  C   UNL     1      33.174 -11.226 -23.668  0.00  0.00    -0.019 C 
ATOM      6  C   UNL     1      33.334 -13.046 -25.330  0.00  0.00    +0.114 C 
ATOM      7  C   UNL     1      33.211 -12.192 -22.641  0.00  0.00    +0.011 C 
ATOM      8  C   UNL     1      33.752 -13.547 -22.948  0.00  0.00    +0.068 C 
ATOM      9  C   UNL     1      32.709  -9.929 -23.409  0.00  0.00    +0.004 C 
ATOM     10  C   UNL     1      32.241  -9.589 -22.143  0.00  0.00    +0.041 C 
ATOM     11  C   UNL     1      32.719 -11.833 -21.375  0.00  0.00    +0.002 C 
ATOM     12  C   UNL     1      34.194 -14.361 -21.978  0.00  0.00    +0.088 C 
ATOM     13  C   UNL     1      32.240 -10.542 -21.130  0.00  0.00    +0.008 C 
ATOM     14  C   UNL     1      34.326 -15.222 -24.655  0.00  0.00    +0.275 C 
ATOM     15  C   UNL     1      34.712 -15.650 -22.437  0.00  0.00    +0.291 C 
ENDROOT
BRANCH  10  17
ATOM     16  C   UNL     1      31.357  -7.159 -21.669  0.00  0.00    -0.087 C 
ATOM     17  C   UNL     1      31.760  -8.269 -21.886  0.00  0.00    -0.064 C 
BRANCH  16  18
ATOM     18  C   UNL     1      30.874  -5.828 -21.407  0.00  0.00    +0.065 C 
ATOM     19  C   UNL     1      30.931  -4.813 -22.512  0.00  0.00    +0.014 C 
ATOM     20  C   UNL     1      31.868  -4.702 -21.347  0.00  0.00    +0.014 C 
ENDBRANCH  16  18
ENDBRANCH  10  17
BRANCH  15  21
ATOM     21  O   UNL     1      35.147 -16.437 -21.428  0.00  0.00    -0.448 OA
BRANCH  21  22
ATOM     22  C   UNL     1      35.460 -17.763 -21.829  0.00  0.00    +0.240 C 
BRANCH  22  25
ATOM     23  O   UNL     1      34.422 -19.716 -20.915  0.00  0.00    -0.347 OA
ATOM     24  O   UNL     1      36.577 -20.203 -19.183  0.00  0.00    -0.348 OA
ATOM     25  C   UNL     1      35.368 -18.681 -20.620  0.00  0.00    +0.188 C 
ATOM     26  C   UNL     1      36.719 -19.312 -20.293  0.00  0.00    +0.175 C 
ATOM     27  C   UNL     1      34.284 -20.610 -19.809  0.00  0.00    +0.174 C 
ATOM     28  C   UNL     1      35.630 -21.232 -19.481  0.00  0.00    +0.174 C 
ENDBRANCH  22  25
ENDBRANCH  21  22
ENDBRANCH  15  21
TORSDOF 5
ENDMDL
MODEL 5
REMARK VINA RESULT:     -10.3      2.482      4.816
REMARK  Name = 71616860
REMARK  5 active torsions:
REMARK  status: ('A' for Active; 'I' for Inactive)
REMARK    1  A    between atoms: C_10  and  C_17
REMARK    2  A    between atoms: C_15  and  O_21
REMARK    3  A    between atoms: C_16  and  C_18
REMARK    4  A    between atoms: O_21  and  C_22
REMARK    5  A    between atoms: C_22  and  C_25
REMARK                            x       y       z     vdW  Elec       q    Type
REMARK                         _______ _______ _______ _____ _____    ______ ____
ROOT
ATOM      1  O   UNL     1      33.621 -23.973 -14.960  0.00  0.00    -0.193 OA
ATOM      2  N   UNL     1      34.620 -22.711 -16.623  0.00  0.00    -0.205 N 
ATOM      3  N   UNL     1      35.870 -23.714 -14.836  0.00  0.00    -0.284 NA
ATOM      4  C   UNL     1      33.453 -22.433 -18.795  0.00  0.00    +0.049 C 
ATOM      5  C   UNL     1      34.519 -21.453 -19.198  0.00  0.00    -0.019 C 
ATOM      6  C   UNL     1      33.332 -22.452 -17.277  0.00  0.00    +0.114 C 
ATOM      7  C   UNL     1      35.660 -21.296 -18.383  0.00  0.00    +0.011 C 
ATOM      8  C   UNL     1      35.775 -22.119 -17.144  0.00  0.00    +0.068 C 
ATOM      9  C   UNL     1      34.391 -20.726 -20.391  0.00  0.00    +0.004 C 
ATOM     10  C   UNL     1      35.372 -19.812 -20.765  0.00  0.00    +0.041 C 
ATOM     11  C   UNL     1      36.627 -20.356 -18.771  0.00  0.00    +0.002 C 
ATOM     12  C   UNL     1      36.961 -22.332 -16.554  0.00  0.00    +0.088 C 
ATOM     13  C   UNL     1      36.484 -19.622 -19.953  0.00  0.00    +0.008 C 
ATOM     14  C   UNL     1      34.649 -23.494 -15.445  0.00  0.00    +0.275 C 
ATOM     15  C   UNL     1      36.916 -23.174 -15.358  0.00  0.00    +0.291 C 
ENDROOT
BRANCH  10  17
ATOM     16  C   UNL     1      35.114 -18.443 -22.995  0.00  0.00    -0.087 C 
ATOM     17  C   UNL     1      35.233 -19.068 -21.977  0.00  0.00    -0.064 C 
BRANCH  16  18
ATOM     18  C   UNL     1      34.970 -17.693 -24.216  0.00  0.00    +0.065 C 
ATOM     19  C   UNL     1      34.311 -16.345 -24.158  0.00  0.00    +0.014 C 
ATOM     20  C   UNL     1      33.592 -17.503 -24.784  0.00  0.00    +0.014 C 
ENDBRANCH  16  18
ENDBRANCH  10  17
BRANCH  15  21
ATOM     21  O   UNL     1      38.131 -23.364 -14.797  0.00  0.00    -0.448 OA
BRANCH  21  22
ATOM     22  C   UNL     1      38.300 -24.649 -14.216  0.00  0.00    +0.240 C 
BRANCH  22  25
ATOM     23  O   UNL     1      37.739 -23.189 -12.405  0.00  0.00    -0.347 OA
ATOM     24  O   UNL     1      36.692 -25.294 -10.870  0.00  0.00    -0.348 OA
ATOM     25  C   UNL     1      38.061 -24.550 -12.718  0.00  0.00    +0.188 C 
ATOM     26  C   UNL     1      36.914 -25.455 -12.274  0.00  0.00    +0.175 C 
ATOM     27  C   UNL     1      37.510 -23.030 -11.003  0.00  0.00    +0.174 C 
ATOM     28  C   UNL     1      36.373 -23.935 -10.563  0.00  0.00    +0.174 C 
ENDBRANCH  22  25
ENDBRANCH  21  22
ENDBRANCH  15  21
TORSDOF 5
ENDMDL
MODEL 6
REMARK VINA RESULT:     -10.2      1.784      5.309
REMARK  Name = 71616860
REMARK  5 active torsions:
REMARK  status: ('A' for Active; 'I' for Inactive)
REMARK    1  A    between atoms: C_10  and  C_17
REMARK    2  A    between atoms: C_15  and  O_21
REMARK    3  A    between atoms: C_16  and  C_18
REMARK    4  A    between atoms: O_21  and  C_22
REMARK    5  A    between atoms: C_22  and  C_25
REMARK                            x       y       z     vdW  Elec       q    Type
REMARK                         _______ _______ _______ _____ _____    ______ ____
ROOT
ATOM      1  O   UNL     1      31.736 -24.310 -13.399  0.00  0.00    -0.193 OA
ATOM      2  N   UNL     1      33.143 -23.512 -15.055  0.00  0.00    -0.205 N 
ATOM      3  N   UNL     1      33.925 -24.884 -13.246  0.00  0.00    -0.284 NA
ATOM      4  C   UNL     1      32.180 -22.851 -17.243  0.00  0.00    +0.049 C 
ATOM      5  C   UNL     1      33.534 -22.329 -17.637  0.00  0.00    -0.019 C 
ATOM      6  C   UNL     1      32.044 -22.810 -15.727  0.00  0.00    +0.114 C 
ATOM      7  C   UNL     1      34.644 -22.589 -16.807  0.00  0.00    +0.011 C 
ATOM      8  C   UNL     1      34.440 -23.385 -15.563  0.00  0.00    +0.068 C 
ATOM      9  C   UNL     1      33.691 -21.617 -18.835  0.00  0.00    +0.004 C 
ATOM     10  C   UNL     1      34.940 -21.124 -19.200  0.00  0.00    +0.041 C 
ATOM     11  C   UNL     1      35.891 -22.068 -17.187  0.00  0.00    +0.002 C 
ATOM     12  C   UNL     1      35.461 -24.009 -14.955  0.00  0.00    +0.088 C 
ATOM     13  C   UNL     1      36.037 -21.344 -18.374  0.00  0.00    +0.008 C 
ATOM     14  C   UNL     1      32.873 -24.241 -13.872  0.00  0.00    +0.275 C 
ATOM     15  C   UNL     1      35.100 -24.765 -13.756  0.00  0.00    +0.291 C 
ENDROOT
BRANCH  10  17
ATOM     16  C   UNL     1      35.222 -19.777 -21.440  0.00  0.00    -0.087 C 
ATOM     17  C   UNL     1      35.094 -20.393 -20.418  0.00  0.00    -0.064 C 
BRANCH  16  18
ATOM     18  C   UNL     1      35.374 -19.037 -22.666  0.00  0.00    +0.065 C 
ATOM     19  C   UNL     1      34.785 -17.658 -22.751  0.00  0.00    +0.014 C 
ATOM     20  C   UNL     1      34.156 -18.788 -23.510  0.00  0.00    +0.014 C 
ENDBRANCH  16  18
ENDBRANCH  10  17
BRANCH  15  21
ATOM     21  O   UNL     1      36.157 -25.378 -13.178  0.00  0.00    -0.448 OA
BRANCH  21  22
ATOM     22  C   UNL     1      36.992 -24.502 -12.435  0.00  0.00    +0.240 C 
BRANCH  22  25
ATOM     23  O   UNL     1      38.735 -26.050 -12.974  0.00  0.00    -0.347 OA
ATOM     24  O   UNL     1      39.956 -24.250 -14.749  0.00  0.00    -0.348 OA
ATOM     25  C   UNL     1      38.425 -24.652 -12.922  0.00  0.00    +0.188 C 
ATOM     26  C   UNL     1      38.610 -24.043 -14.310  0.00  0.00    +0.175 C 
ATOM     27  C   UNL     1      40.078 -26.256 -13.419  0.00  0.00    +0.174 C 
ATOM     28  C   UNL     1      40.262 -25.645 -14.797  0.00  0.00    +0.174 C 
ENDBRANCH  22  25
ENDBRANCH  21  22
ENDBRANCH  15  21
TORSDOF 5
ENDMDL
MODEL 7
REMARK VINA RESULT:     -10.0      6.102      9.789
REMARK  Name = 71616860
REMARK  5 active torsions:
REMARK  status: ('A' for Active; 'I' for Inactive)
REMARK    1  A    between atoms: C_10  and  C_17
REMARK    2  A    between atoms: C_15  and  O_21
REMARK    3  A    between atoms: C_16  and  C_18
REMARK    4  A    between atoms: O_21  and  C_22
REMARK    5  A    between atoms: C_22  and  C_25
REMARK                            x       y       z     vdW  Elec       q    Type
REMARK                         _______ _______ _______ _____ _____    ______ ____
ROOT
ATOM      1  O   UNL     1      34.566 -19.246 -24.376  0.00  0.00    -0.193 OA
ATOM      2  N   UNL     1      34.471 -17.113 -23.484  0.00  0.00    -0.205 N 
ATOM      3  N   UNL     1      35.510 -18.947 -22.336  0.00  0.00    -0.284 NA
ATOM      4  C   UNL     1      34.159 -15.179 -25.006  0.00  0.00    +0.049 C 
ATOM      5  C   UNL     1      34.022 -14.298 -23.796  0.00  0.00    -0.019 C 
ATOM      6  C   UNL     1      33.741 -16.599 -24.648  0.00  0.00    +0.114 C 
ATOM      7  C   UNL     1      34.296 -14.829 -22.518  0.00  0.00    +0.011 C 
ATOM      8  C   UNL     1      34.725 -16.253 -22.410  0.00  0.00    +0.068 C 
ATOM      9  C   UNL     1      33.654 -12.953 -23.944  0.00  0.00    +0.004 C 
ATOM     10  C   UNL     1      33.517 -12.135 -22.826  0.00  0.00    +0.041 C 
ATOM     11  C   UNL     1      34.135 -13.990 -21.404  0.00  0.00    +0.002 C 
ATOM     12  C   UNL     1      35.379 -16.707 -21.330  0.00  0.00    +0.088 C 
ATOM     13  C   UNL     1      33.751 -12.655 -21.558  0.00  0.00    +0.008 C 
ATOM     14  C   UNL     1      34.836 -18.480 -23.449  0.00  0.00    +0.275 C 
ATOM     15  C   UNL     1      35.749 -18.122 -21.378  0.00  0.00    +0.291 C 
ENDROOT
BRANCH  10  17
ATOM     16  C   UNL     1      32.813  -9.618 -23.113  0.00  0.00    -0.087 C 
ATOM     17  C   UNL     1      33.134 -10.767 -22.982  0.00  0.00    -0.064 C 
BRANCH  16  18
ATOM     18  C   UNL     1      32.429  -8.239 -23.273  0.00  0.00    +0.065 C 
ATOM     19  C   UNL     1      32.571  -7.314 -22.099  0.00  0.00    +0.014 C 
ATOM     20  C   UNL     1      31.207  -7.746 -22.550  0.00  0.00    +0.014 C 
ENDBRANCH  16  18
ENDBRANCH  10  17
BRANCH  15  21
ATOM     21  O   UNL     1      36.407 -18.536 -20.272  0.00  0.00    -0.448 OA
BRANCH  21  22
ATOM     22  C   UNL     1      36.580 -19.943 -20.201  0.00  0.00    +0.240 C 
BRANCH  22  25
ATOM     23  O   UNL     1      34.380 -20.836 -19.908  0.00  0.00    -0.347 OA
ATOM     24  O   UNL     1      35.143 -22.305 -17.641  0.00  0.00    -0.348 OA
ATOM     25  C   UNL     1      35.586 -20.515 -19.203  0.00  0.00    +0.188 C 
ATOM     26  C   UNL     1      36.127 -21.775 -18.532  0.00  0.00    +0.175 C 
ATOM     27  C   UNL     1      33.397 -21.372 -19.018  0.00  0.00    +0.174 C 
ATOM     28  C   UNL     1      33.941 -22.622 -18.348  0.00  0.00    +0.174 C 
ENDBRANCH  22  25
ENDBRANCH  21  22
ENDBRANCH  15  21
TORSDOF 5
ENDMDL
MODEL 8
REMARK VINA RESULT:      -9.6      9.585     13.815
REMARK  Name = 71616860
REMARK  5 active torsions:
REMARK  status: ('A' for Active; 'I' for Inactive)
REMARK    1  A    between atoms: C_10  and  C_17
REMARK    2  A    between atoms: C_15  and  O_21
REMARK    3  A    between atoms: C_16  and  C_18
REMARK    4  A    between atoms: O_21  and  C_22
REMARK    5  A    between atoms: C_22  and  C_25
REMARK                            x       y       z     vdW  Elec       q    Type
REMARK                         _______ _______ _______ _____ _____    ______ ____
ROOT
ATOM      1  O   UNL     1      32.061 -13.926 -19.680  0.00  0.00    -0.193 OA
ATOM      2  N   UNL     1      32.386 -12.093 -21.054  0.00  0.00    -0.205 N 
ATOM      3  N   UNL     1      33.439 -14.213 -21.458  0.00  0.00    -0.284 NA
ATOM      4  C   UNL     1      30.693 -10.280 -21.070  0.00  0.00    +0.049 C 
ATOM      5  C   UNL     1      31.615  -9.480 -21.948  0.00  0.00    -0.019 C 
ATOM      6  C   UNL     1      31.512 -11.251 -20.230  0.00  0.00    +0.114 C 
ATOM      7  C   UNL     1      32.772 -10.091 -22.476  0.00  0.00    +0.011 C 
ATOM      8  C   UNL     1      33.040 -11.522 -22.151  0.00  0.00    +0.068 C 
ATOM      9  C   UNL     1      31.308  -8.148 -22.262  0.00  0.00    +0.004 C 
ATOM     10  C   UNL     1      32.162  -7.401 -23.067  0.00  0.00    +0.041 C 
ATOM     11  C   UNL     1      33.627  -9.313 -23.272  0.00  0.00    +0.002 C 
ATOM     12  C   UNL     1      33.854 -12.271 -22.909  0.00  0.00    +0.088 C 
ATOM     13  C   UNL     1      33.323  -7.981 -23.566  0.00  0.00    +0.008 C 
ATOM     14  C   UNL     1      32.600 -13.440 -20.676  0.00  0.00    +0.275 C 
ATOM     15  C   UNL     1      34.003 -13.660 -22.474  0.00  0.00    +0.291 C 
ENDROOT
BRANCH  10  17
ATOM     16  C   UNL     1      31.586  -4.900 -23.639  0.00  0.00    -0.087 C 
ATOM     17  C   UNL     1      31.848  -6.042 -23.377  0.00  0.00    -0.064 C 
BRANCH  16  18
ATOM     18  C   UNL     1      31.273  -3.530 -23.954  0.00  0.00    +0.065 C 
ATOM     19  C   UNL     1      32.302  -2.704 -24.671  0.00  0.00    +0.014 C 
ATOM     20  C   UNL     1      32.005  -2.439 -23.224  0.00  0.00    +0.014 C 
ENDBRANCH  16  18
ENDBRANCH  10  17
BRANCH  15  21
ATOM     21  O   UNL     1      34.830 -14.379 -23.267  0.00  0.00    -0.448 OA
BRANCH  21  22
ATOM     22  C   UNL     1      34.155 -15.277 -24.135  0.00  0.00    +0.240 C 
BRANCH  22  25
ATOM     23  O   UNL     1      35.187 -16.845 -22.652  0.00  0.00    -0.347 OA
ATOM     24  O   UNL     1      34.437 -19.033 -24.243  0.00  0.00    -0.348 OA
ATOM     25  C   UNL     1      34.791 -16.653 -24.015  0.00  0.00    +0.188 C 
ATOM     26  C   UNL     1      33.815 -17.757 -24.417  0.00  0.00    +0.175 C 
ATOM     27  C   UNL     1      35.802 -18.124 -22.476  0.00  0.00    +0.174 C 
ATOM     28  C   UNL     1      34.832 -19.220 -22.882  0.00  0.00    +0.174 C 
ENDBRANCH  22  25
ENDBRANCH  21  22
ENDBRANCH  15  21
TORSDOF 5
ENDMDL
MODEL 9
REMARK VINA RESULT:      -9.4      1.724      2.493
REMARK  Name = 71616860
REMARK  5 active torsions:
REMARK  status: ('A' for Active; 'I' for Inactive)
REMARK    1  A    between atoms: C_10  and  C_17
REMARK    2  A    between atoms: C_15  and  O_21
REMARK    3  A    between atoms: C_16  and  C_18
REMARK    4  A    between atoms: O_21  and  C_22
REMARK    5  A    between atoms: C_22  and  C_25
REMARK                            x       y       z     vdW  Elec       q    Type
REMARK                         _______ _______ _______ _____ _____    ______ ____
ROOT
ATOM      1  O   UNL     1      36.314 -23.831 -15.317  0.00  0.00    -0.193 OA
ATOM      2  N   UNL     1      35.252 -22.602 -16.966  0.00  0.00    -0.205 N 
ATOM      3  N   UNL     1      34.056 -23.670 -15.179  0.00  0.00    -0.284 NA
ATOM      4  C   UNL     1      36.545 -20.904 -18.229  0.00  0.00    +0.049 C 
ATOM      5  C   UNL     1      35.351 -20.716 -19.123  0.00  0.00    -0.019 C 
ATOM      6  C   UNL     1      36.520 -22.308 -17.641  0.00  0.00    +0.114 C 
ATOM      7  C   UNL     1      34.129 -21.333 -18.785  0.00  0.00    +0.011 C 
ATOM      8  C   UNL     1      34.058 -22.150 -17.539  0.00  0.00    +0.068 C 
ATOM      9  C   UNL     1      35.448 -19.908 -20.265  0.00  0.00    +0.004 C 
ATOM     10  C   UNL     1      34.348 -19.737 -21.101  0.00  0.00    +0.041 C 
ATOM     11  C   UNL     1      33.037 -21.161 -19.651  0.00  0.00    +0.002 C 
ATOM     12  C   UNL     1      32.886 -22.420 -16.944  0.00  0.00    +0.088 C 
ATOM     13  C   UNL     1      33.147 -20.368 -20.797  0.00  0.00    +0.008 C 
ATOM     14  C   UNL     1      35.263 -23.393 -15.792  0.00  0.00    +0.275 C 
ATOM     15  C   UNL     1      32.980 -23.217 -15.721  0.00  0.00    +0.291 C 
ENDROOT
BRANCH  10  17
ATOM     16  C   UNL     1      34.543 -18.231 -23.247  0.00  0.00    -0.087 C 
ATOM     17  C   UNL     1      34.455 -18.919 -22.268  0.00  0.00    -0.064 C 
BRANCH  16  18
ATOM     18  C   UNL     1      34.648 -17.404 -24.422  0.00  0.00    +0.065 C 
ATOM     19  C   UNL     1      34.923 -15.938 -24.246  0.00  0.00    +0.014 C 
ATOM     20  C   UNL     1      33.566 -16.397 -24.690  0.00  0.00    +0.014 C 
ENDBRANCH  16  18
ENDBRANCH  10  17
BRANCH  15  21
ATOM     21  O   UNL     1      31.777 -23.463 -15.155  0.00  0.00    -0.448 OA
BRANCH  21  22
ATOM     22  C   UNL     1      30.790 -23.904 -16.075  0.00  0.00    +0.240 C 
BRANCH  22  25
ATOM     23  O   UNL     1      28.578 -23.462 -16.872  0.00  0.00    -0.347 OA
ATOM     24  O   UNL     1      27.994 -21.787 -14.696  0.00  0.00    -0.348 OA
ATOM     25  C   UNL     1      29.632 -22.919 -16.067  0.00  0.00    +0.188 C 
ATOM     26  C   UNL     1      29.112 -22.678 -14.651  0.00  0.00    +0.175 C 
ATOM     27  C   UNL     1      27.458 -22.573 -16.911  0.00  0.00    +0.174 C 
ATOM     28  C   UNL     1      26.946 -22.331 -15.502  0.00  0.00    +0.174 C 
ENDBRANCH  22  25
ENDBRANCH  21  22
ENDBRANCH  15  21
TORSDOF 5
ENDMDL
