MODEL 1
REMARK VINA RESULT:     -11.1      0.000      0.000
REMARK  Name = 54689025
REMARK  9 active torsions:
REMARK  status: ('A' for Active; 'I' for Inactive)
REMARK    1  A    between atoms: C_1  and  C_21
REMARK    2  A    between atoms: C_4  and  N_8
REMARK    3  A    between atoms: C_9  and  C_11
REMARK    4  A    between atoms: C_11  and  N_13
REMARK    5  A    between atoms: C_14  and  O_16
REMARK    6  A    between atoms: O_16  and  C_17
REMARK    7  A    between atoms: C_21  and  C_24
REMARK    8  A    between atoms: C_21  and  C_35
REMARK    9  A    between atoms: C_25  and  O_33
REMARK                            x       y       z     vdW  Elec       q    Type
REMARK                         _______ _______ _______ _____ _____    ______ ____
ROOT
ATOM      1  C   UNL     1      35.256 -16.580 -22.419  0.00  0.00    -0.017 C 
ATOM      2  C   UNL     1      35.173 -15.457 -23.241  0.00  0.00    +0.011 C 
ATOM      3  C   UNL     1      34.922 -16.482 -21.068  0.00  0.00    -0.004 C 
ATOM      4  C   UNL     1      34.755 -14.235 -22.713  0.00  0.00    +0.050 C 
ATOM      5  C   UNL     1      34.505 -15.260 -20.540  0.00  0.00    +0.001 C 
ATOM      6  C   UNL     1      34.421 -14.137 -21.362  0.00  0.00    +0.015 C 
ENDROOT
BRANCH   4   8
ATOM      7  O   UNL     1      33.429 -13.868 -25.384  0.00  0.00    -0.273 OA
ATOM      8  N   UNL     1      34.673 -13.111 -23.535  0.00  0.00    -0.283 N 
ATOM      9  C   UNL     1      34.038 -12.990 -24.782  0.00  0.00    +0.246 C 
ATOM     10  H   UNL     1      35.115 -12.298 -23.197  0.00  0.00    +0.155 HD
BRANCH   9  11
ATOM     11  C   UNL     1      34.190 -11.585 -25.335  0.00  0.00    +0.179 C 
BRANCH  11  13
ATOM     12  O   UNL     1      35.614  -9.250 -24.354  0.00  0.00    -0.226 OA
ATOM     13  N   UNL     1      33.739 -10.619 -24.376  0.00  0.00    -0.262 N 
ATOM     14  C   UNL     1      34.486  -9.529 -23.961  0.00  0.00    +0.402 C 
ATOM     15  H   UNL     1      32.842 -10.738 -23.987  0.00  0.00    +0.153 HD
BRANCH  14  16
ATOM     16  O   UNL     1      33.782  -8.800 -23.044  0.00  0.00    -0.442 OA
BRANCH  16  17
ATOM     17  C   UNL     1      33.304  -7.527 -23.493  0.00  0.00    +0.138 C 
ATOM     18  C   UNL     1      34.368  -6.897 -24.391  0.00  0.00    +0.044 C 
ATOM     19  C   UNL     1      33.065  -6.663 -22.256  0.00  0.00    +0.044 C 
ATOM     20  C   UNL     1      32.000  -7.741 -24.261  0.00  0.00    +0.044 C 
ENDBRANCH  16  17
ENDBRANCH  14  16
ENDBRANCH  11  13
ENDBRANCH   9  11
ENDBRANCH   4   8
BRANCH   1  21
ATOM     21  C   UNL     1      35.710 -17.910 -22.993  0.00  0.00    +0.054 C 
BRANCH  21  24
ATOM     22  O   UNL     1      37.172 -20.210 -20.366  0.00  0.00    -0.421 OA
ATOM     23  O   UNL     1      38.068 -18.605 -21.706  0.00  0.00    -0.245 OA
ATOM     24  C   UNL     1      35.727 -18.977 -21.932  0.00  0.00    +0.091 A 
ATOM     25  C   UNL     1      34.659 -19.678 -21.508  0.00  0.00    +0.139 A 
ATOM     26  C   UNL     1      37.075 -19.231 -21.346  0.00  0.00    +0.345 A 
ATOM     27  C   UNL     1      34.795 -20.704 -20.472  0.00  0.00    +0.068 A 
ATOM     28  C   UNL     1      36.054 -20.941 -19.930  0.00  0.00    +0.152 A 
ATOM     29  C   UNL     1      33.722 -21.468 -19.993  0.00  0.00    +0.006 C 
ATOM     30  C   UNL     1      36.270 -21.901 -18.940  0.00  0.00    +0.038 C 
ATOM     31  C   UNL     1      33.921 -22.434 -19.000  0.00  0.00    +0.000 C 
ATOM     32  C   UNL     1      35.194 -22.651 -18.476  0.00  0.00    +0.003 C 
BRANCH  25  33
ATOM     33  O   UNL     1      33.374 -19.511 -21.982  0.00  0.00    -0.506 OA
ATOM     34  H   UNL     1      32.676 -20.030 -21.635  0.00  0.00    +0.292 HD
ENDBRANCH  25  33
ENDBRANCH  21  24
BRANCH  21  35
ATOM     35  C   UNL     1      34.871 -18.382 -24.199  0.00  0.00    +0.009 C 
ATOM     36  C   UNL     1      35.289 -19.756 -24.712  0.00  0.00    +0.001 C 
ENDBRANCH  21  35
ENDBRANCH   1  21
TORSDOF 9
ENDMDL
MODEL 2
REMARK VINA RESULT:     -10.7      4.704     11.699
REMARK  Name = 54689025
REMARK  9 active torsions:
REMARK  status: ('A' for Active; 'I' for Inactive)
REMARK    1  A    between atoms: C_1  and  C_21
REMARK    2  A    between atoms: C_4  and  N_8
REMARK    3  A    between atoms: C_9  and  C_11
REMARK    4  A    between atoms: C_11  and  N_13
REMARK    5  A    between atoms: C_14  and  O_16
REMARK    6  A    between atoms: O_16  and  C_17
REMARK    7  A    between atoms: C_21  and  C_24
REMARK    8  A    between atoms: C_21  and  C_35
REMARK    9  A    between atoms: C_25  and  O_33
REMARK                            x       y       z     vdW  Elec       q    Type
REMARK                         _______ _______ _______ _____ _____    ______ ____
ROOT
ATOM      1  C   UNL     1      34.998 -20.246 -21.218  0.00  0.00    -0.017 C 
ATOM      2  C   UNL     1      35.334 -21.061 -20.138  0.00  0.00    +0.011 C 
ATOM      3  C   UNL     1      33.658 -19.977 -21.500  0.00  0.00    -0.004 C 
ATOM      4  C   UNL     1      34.330 -21.606 -19.337  0.00  0.00    +0.050 C 
ATOM      5  C   UNL     1      32.655 -20.524 -20.700  0.00  0.00    +0.001 C 
ATOM      6  C   UNL     1      32.990 -21.337 -19.619  0.00  0.00    +0.015 C 
ENDROOT
BRANCH   4   8
ATOM      7  O   UNL     1      36.806 -21.664 -17.635  0.00  0.00    -0.273 OA
ATOM      8  N   UNL     1      34.665 -22.422 -18.256  0.00  0.00    -0.283 N 
ATOM      9  C   UNL     1      35.842 -22.410 -17.490  0.00  0.00    +0.246 C 
ATOM     10  H   UNL     1      33.990 -23.090 -17.996  0.00  0.00    +0.155 HD
BRANCH   9  11
ATOM     11  C   UNL     1      35.794 -23.469 -16.403  0.00  0.00    +0.179 C 
BRANCH  11  13
ATOM     12  O   UNL     1      36.896 -23.502 -13.716  0.00  0.00    -0.226 OA
ATOM     13  N   UNL     1      37.121 -23.834 -16.002  0.00  0.00    -0.262 N 
ATOM     14  C   UNL     1      37.568 -23.822 -14.691  0.00  0.00    +0.402 C 
ATOM     15  H   UNL     1      37.755 -24.111 -16.703  0.00  0.00    +0.153 HD
BRANCH  14  16
ATOM     16  O   UNL     1      38.874 -24.220 -14.637  0.00  0.00    -0.442 OA
BRANCH  16  17
ATOM     17  C   UNL     1      39.099 -25.558 -14.179  0.00  0.00    +0.138 C 
ATOM     18  C   UNL     1      38.780 -25.622 -12.686  0.00  0.00    +0.044 C 
ATOM     19  C   UNL     1      40.569 -25.888 -14.429  0.00  0.00    +0.044 C 
ATOM     20  C   UNL     1      38.194 -26.501 -14.971  0.00  0.00    +0.044 C 
ENDBRANCH  16  17
ENDBRANCH  14  16
ENDBRANCH  11  13
ENDBRANCH   9  11
ENDBRANCH   4   8
BRANCH   1  21
ATOM     21  C   UNL     1      36.090 -19.652 -22.089  0.00  0.00    +0.054 C 
BRANCH  21  24
ATOM     22  O   UNL     1      34.735 -17.989 -25.208  0.00  0.00    -0.421 OA
ATOM     23  O   UNL     1      35.396 -20.114 -24.736  0.00  0.00    -0.245 OA
ATOM     24  C   UNL     1      35.548 -18.545 -22.952  0.00  0.00    +0.091 A 
ATOM     25  C   UNL     1      35.347 -17.272 -22.560  0.00  0.00    +0.139 A 
ATOM     26  C   UNL     1      35.231 -18.961 -24.349  0.00  0.00    +0.345 A 
ATOM     27  C   UNL     1      34.822 -16.272 -23.491  0.00  0.00    +0.068 A 
ATOM     28  C   UNL     1      34.531 -16.662 -24.794  0.00  0.00    +0.152 A 
ATOM     29  C   UNL     1      34.596 -14.933 -23.143  0.00  0.00    +0.006 C 
ATOM     30  C   UNL     1      34.028 -15.771 -25.744  0.00  0.00    +0.038 C 
ATOM     31  C   UNL     1      34.091 -14.027 -24.083  0.00  0.00    +0.000 C 
ATOM     32  C   UNL     1      33.810 -14.446 -25.382  0.00  0.00    +0.003 C 
BRANCH  25  33
ATOM     33  O   UNL     1      35.602 -16.794 -21.291  0.00  0.00    -0.506 OA
ATOM     34  H   UNL     1      36.447 -16.449 -21.082  0.00  0.00    +0.292 HD
ENDBRANCH  25  33
ENDBRANCH  21  24
BRANCH  21  35
ATOM     35  C   UNL     1      37.311 -19.147 -21.292  0.00  0.00    +0.009 C 
ATOM     36  C   UNL     1      38.418 -18.598 -22.186  0.00  0.00    +0.001 C 
ENDBRANCH  21  35
ENDBRANCH   1  21
TORSDOF 9
ENDMDL
MODEL 3
REMARK VINA RESULT:     -10.2      4.711     10.992
REMARK  Name = 54689025
REMARK  9 active torsions:
REMARK  status: ('A' for Active; 'I' for Inactive)
REMARK    1  A    between atoms: C_1  and  C_21
REMARK    2  A    between atoms: C_4  and  N_8
REMARK    3  A    between atoms: C_9  and  C_11
REMARK    4  A    between atoms: C_11  and  N_13
REMARK    5  A    between atoms: C_14  and  O_16
REMARK    6  A    between atoms: O_16  and  C_17
REMARK    7  A    between atoms: C_21  and  C_24
REMARK    8  A    between atoms: C_21  and  C_35
REMARK    9  A    between atoms: C_25  and  O_33
REMARK                            x       y       z     vdW  Elec       q    Type
REMARK                         _______ _______ _______ _____ _____    ______ ____
ROOT
ATOM      1  C   UNL     1      35.149 -20.261 -21.216  0.00  0.00    -0.017 C 
ATOM      2  C   UNL     1      35.541 -21.029 -20.119  0.00  0.00    +0.011 C 
ATOM      3  C   UNL     1      33.794 -20.067 -21.484  0.00  0.00    -0.004 C 
ATOM      4  C   UNL     1      34.577 -21.602 -19.290  0.00  0.00    +0.050 C 
ATOM      5  C   UNL     1      32.830 -20.642 -20.655  0.00  0.00    +0.001 C 
ATOM      6  C   UNL     1      33.222 -21.409 -19.558  0.00  0.00    +0.015 C 
ENDROOT
BRANCH   4   8
ATOM      7  O   UNL     1      37.064 -21.474 -17.609  0.00  0.00    -0.273 OA
ATOM      8  N   UNL     1      34.968 -22.371 -18.193  0.00  0.00    -0.283 N 
ATOM      9  C   UNL     1      36.147 -22.272 -17.438  0.00  0.00    +0.246 C 
ATOM     10  H   UNL     1      34.335 -23.072 -17.912  0.00  0.00    +0.155 HD
BRANCH   9  11
ATOM     11  C   UNL     1      36.170 -23.306 -16.327  0.00  0.00    +0.179 C 
BRANCH  11  13
ATOM     12  O   UNL     1      34.731 -24.005 -13.902  0.00  0.00    -0.226 OA
ATOM     13  N   UNL     1      34.894 -23.950 -16.218  0.00  0.00    -0.262 N 
ATOM     14  C   UNL     1      34.275 -24.249 -15.015  0.00  0.00    +0.402 C 
ATOM     15  H   UNL     1      34.428 -24.195 -17.049  0.00  0.00    +0.153 HD
BRANCH  14  16
ATOM     16  O   UNL     1      33.073 -24.858 -15.245  0.00  0.00    -0.442 OA
BRANCH  16  17
ATOM     17  C   UNL     1      31.922 -24.008 -15.190  0.00  0.00    +0.138 C 
ATOM     18  C   UNL     1      31.909 -23.293 -13.840  0.00  0.00    +0.044 C 
ATOM     19  C   UNL     1      30.688 -24.896 -15.340  0.00  0.00    +0.044 C 
ATOM     20  C   UNL     1      32.005 -23.003 -16.338  0.00  0.00    +0.044 C 
ENDBRANCH  16  17
ENDBRANCH  14  16
ENDBRANCH  11  13
ENDBRANCH   9  11
ENDBRANCH   4   8
BRANCH   1  21
ATOM     21  C   UNL     1      36.198 -19.636 -22.118  0.00  0.00    +0.054 C 
BRANCH  21  24
ATOM     22  O   UNL     1      34.685 -18.020 -25.189  0.00  0.00    -0.421 OA
ATOM     23  O   UNL     1      35.408 -20.128 -24.732  0.00  0.00    -0.245 OA
ATOM     24  C   UNL     1      35.599 -18.545 -22.964  0.00  0.00    +0.091 A 
ATOM     25  C   UNL     1      35.388 -17.275 -22.571  0.00  0.00    +0.139 A 
ATOM     26  C   UNL     1      35.235 -18.977 -24.345  0.00  0.00    +0.345 A 
ATOM     27  C   UNL     1      34.806 -16.291 -23.486  0.00  0.00    +0.068 A 
ATOM     28  C   UNL     1      34.470 -16.695 -24.774  0.00  0.00    +0.152 A 
ATOM     29  C   UNL     1      34.566 -14.955 -23.136  0.00  0.00    +0.006 C 
ATOM     30  C   UNL     1      33.912 -15.820 -25.708  0.00  0.00    +0.038 C 
ATOM     31  C   UNL     1      34.006 -14.065 -24.060  0.00  0.00    +0.000 C 
ATOM     32  C   UNL     1      33.681 -14.498 -25.344  0.00  0.00    +0.003 C 
BRANCH  25  33
ATOM     33  O   UNL     1      35.684 -16.784 -21.316  0.00  0.00    -0.506 OA
ATOM     34  H   UNL     1      36.122 -17.327 -20.692  0.00  0.00    +0.292 HD
ENDBRANCH  25  33
ENDBRANCH  21  24
BRANCH  21  35
ATOM     35  C   UNL     1      37.427 -19.095 -21.357  0.00  0.00    +0.009 C 
ATOM     36  C   UNL     1      38.511 -18.558 -22.285  0.00  0.00    +0.001 C 
ENDBRANCH  21  35
ENDBRANCH   1  21
TORSDOF 9
ENDMDL
MODEL 4
REMARK VINA RESULT:      -9.7      3.446      5.871
REMARK  Name = 54689025
REMARK  9 active torsions:
REMARK  status: ('A' for Active; 'I' for Inactive)
REMARK    1  A    between atoms: C_1  and  C_21
REMARK    2  A    between atoms: C_4  and  N_8
REMARK    3  A    between atoms: C_9  and  C_11
REMARK    4  A    between atoms: C_11  and  N_13
REMARK    5  A    between atoms: C_14  and  O_16
REMARK    6  A    between atoms: O_16  and  C_17
REMARK    7  A    between atoms: C_21  and  C_24
REMARK    8  A    between atoms: C_21  and  C_35
REMARK    9  A    between atoms: C_25  and  O_33
REMARK                            x       y       z     vdW  Elec       q    Type
REMARK                         _______ _______ _______ _____ _____    ______ ____
ROOT
ATOM      1  C   UNL     1      33.369 -12.147 -23.300  0.00  0.00    -0.017 C 
ATOM      2  C   UNL     1      33.111 -10.796 -23.068  0.00  0.00    +0.011 C 
ATOM      3  C   UNL     1      32.674 -13.123 -22.585  0.00  0.00    -0.004 C 
ATOM      4  C   UNL     1      32.159 -10.420 -22.121  0.00  0.00    +0.050 C 
ATOM      5  C   UNL     1      31.723 -12.747 -21.637  0.00  0.00    +0.001 C 
ATOM      6  C   UNL     1      31.465 -11.396 -21.405  0.00  0.00    +0.015 C 
ENDROOT
BRANCH   4   8
ATOM      7  O   UNL     1      33.034  -8.632 -19.871  0.00  0.00    -0.273 OA
ATOM      8  N   UNL     1      31.901  -9.069 -21.888  0.00  0.00    -0.283 N 
ATOM      9  C   UNL     1      32.336  -8.274 -20.815  0.00  0.00    +0.246 C 
ATOM     10  H   UNL     1      31.346  -8.615 -22.562  0.00  0.00    +0.155 HD
BRANCH   9  11
ATOM     11  C   UNL     1      31.827  -6.851 -20.952  0.00  0.00    +0.179 C 
BRANCH  11  13
ATOM     12  O   UNL     1      30.799  -4.906 -22.850  0.00  0.00    -0.226 OA
ATOM     13  N   UNL     1      32.549  -6.159 -21.979  0.00  0.00    -0.262 N 
ATOM     14  C   UNL     1      31.979  -5.242 -22.847  0.00  0.00    +0.402 C 
ATOM     15  H   UNL     1      33.511  -6.347 -22.074  0.00  0.00    +0.153 HD
BRANCH  14  16
ATOM     16  O   UNL     1      32.925  -4.759 -23.706  0.00  0.00    -0.442 OA
BRANCH  16  17
ATOM     17  C   UNL     1      33.204  -5.575 -24.849  0.00  0.00    +0.138 C 
ATOM     18  C   UNL     1      34.605  -6.165 -24.696  0.00  0.00    +0.044 C 
ATOM     19  C   UNL     1      33.131  -4.678 -26.084  0.00  0.00    +0.044 C 
ATOM     20  C   UNL     1      32.153  -6.681 -24.925  0.00  0.00    +0.044 C 
ENDBRANCH  16  17
ENDBRANCH  14  16
ENDBRANCH  11  13
ENDBRANCH   9  11
ENDBRANCH   4   8
BRANCH   1  21
ATOM     21  C   UNL     1      34.405 -12.556 -24.332  0.00  0.00    +0.054 C 
BRANCH  21  24
ATOM     22  O   UNL     1      33.608 -15.834 -26.051  0.00  0.00    -0.421 OA
ATOM     23  O   UNL     1      33.161 -13.661 -26.553  0.00  0.00    -0.245 OA
ATOM     24  C   UNL     1      34.388 -14.045 -24.550  0.00  0.00    +0.091 A 
ATOM     25  C   UNL     1      34.945 -14.963 -23.736  0.00  0.00    +0.139 A 
ATOM     26  C   UNL     1      33.674 -14.472 -25.788  0.00  0.00    +0.345 A 
ATOM     27  C   UNL     1      34.858 -16.392 -24.043  0.00  0.00    +0.068 A 
ATOM     28  C   UNL     1      34.189 -16.787 -25.197  0.00  0.00    +0.152 A 
ATOM     29  C   UNL     1      35.414 -17.393 -23.234  0.00  0.00    +0.006 C 
ATOM     30  C   UNL     1      34.060 -18.128 -25.561  0.00  0.00    +0.038 C 
ATOM     31  C   UNL     1      35.295 -18.742 -23.586  0.00  0.00    +0.000 C 
ATOM     32  C   UNL     1      34.617 -19.108 -24.747  0.00  0.00    +0.003 C 
BRANCH  25  33
ATOM     33  O   UNL     1      35.630 -14.667 -22.577  0.00  0.00    -0.506 OA
ATOM     34  H   UNL     1      35.192 -14.236 -21.870  0.00  0.00    +0.292 HD
ENDBRANCH  25  33
ENDBRANCH  21  24
BRANCH  21  35
ATOM     35  C   UNL     1      34.256 -11.826 -25.683  0.00  0.00    +0.009 C 
ATOM     36  C   UNL     1      35.297 -10.731 -25.884  0.00  0.00    +0.001 C 
ENDBRANCH  21  35
ENDBRANCH   1  21
TORSDOF 9
ENDMDL
MODEL 5
REMARK VINA RESULT:      -9.5      2.410     10.773
REMARK  Name = 54689025
REMARK  9 active torsions:
REMARK  status: ('A' for Active; 'I' for Inactive)
REMARK    1  A    between atoms: C_1  and  C_21
REMARK    2  A    between atoms: C_4  and  N_8
REMARK    3  A    between atoms: C_9  and  C_11
REMARK    4  A    between atoms: C_11  and  N_13
REMARK    5  A    between atoms: C_14  and  O_16
REMARK    6  A    between atoms: O_16  and  C_17
REMARK    7  A    between atoms: C_21  and  C_24
REMARK    8  A    between atoms: C_21  and  C_35
REMARK    9  A    between atoms: C_25  and  O_33
REMARK                            x       y       z     vdW  Elec       q    Type
REMARK                         _______ _______ _______ _____ _____    ______ ____
ROOT
ATOM      1  C   UNL     1      33.144 -11.317 -23.080  0.00  0.00    -0.017 C 
ATOM      2  C   UNL     1      33.137 -12.690 -23.323  0.00  0.00    +0.011 C 
ATOM      3  C   UNL     1      33.871 -10.465 -23.911  0.00  0.00    -0.004 C 
ATOM      4  C   UNL     1      33.856 -13.212 -24.398  0.00  0.00    +0.050 C 
ATOM      5  C   UNL     1      34.592 -10.987 -24.985  0.00  0.00    +0.001 C 
ATOM      6  C   UNL     1      34.584 -12.360 -25.229  0.00  0.00    +0.015 C 
ENDROOT
BRANCH   4   8
ATOM      7  O   UNL     1      33.721 -14.731 -26.987  0.00  0.00    -0.273 OA
ATOM      8  N   UNL     1      33.850 -14.586 -24.641  0.00  0.00    -0.283 N 
ATOM      9  C   UNL     1      33.785 -15.250 -25.877  0.00  0.00    +0.246 C 
ATOM     10  H   UNL     1      33.900 -15.164 -23.845  0.00  0.00    +0.155 HD
BRANCH   9  11
ATOM     11  C   UNL     1      33.806 -16.756 -25.686  0.00  0.00    +0.179 C 
BRANCH  11  13
ATOM     12  O   UNL     1      34.289 -19.349 -24.470  0.00  0.00    -0.226 OA
ATOM     13  N   UNL     1      34.892 -17.136 -24.832  0.00  0.00    -0.262 N 
ATOM     14  C   UNL     1      35.048 -18.402 -24.291  0.00  0.00    +0.402 C 
ATOM     15  H   UNL     1      35.570 -16.456 -24.615  0.00  0.00    +0.153 HD
BRANCH  14  16
ATOM     16  O   UNL     1      36.178 -18.447 -23.523  0.00  0.00    -0.442 OA
BRANCH  16  17
ATOM     17  C   UNL     1      35.968 -18.506 -22.108  0.00  0.00    +0.138 C 
ATOM     18  C   UNL     1      35.447 -17.149 -21.637  0.00  0.00    +0.044 C 
ATOM     19  C   UNL     1      37.314 -18.820 -21.457  0.00  0.00    +0.044 C 
ATOM     20  C   UNL     1      34.956 -19.611 -21.811  0.00  0.00    +0.044 C 
ENDBRANCH  16  17
ENDBRANCH  14  16
ENDBRANCH  11  13
ENDBRANCH   9  11
ENDBRANCH   4   8
BRANCH   1  21
ATOM     21  C   UNL     1      32.360 -10.749 -21.910  0.00  0.00    +0.054 C 
BRANCH  21  24
ATOM     22  O   UNL     1      32.659  -7.158 -20.751  0.00  0.00    -0.421 OA
ATOM     23  O   UNL     1      33.108  -9.157 -19.764  0.00  0.00    -0.245 OA
ATOM     24  C   UNL     1      32.281  -9.249 -21.994  0.00  0.00    +0.091 A 
ATOM     25  C   UNL     1      31.861  -8.544 -23.063  0.00  0.00    +0.139 A 
ATOM     26  C   UNL     1      32.714  -8.545 -20.752  0.00  0.00    +0.345 A 
ATOM     27  C   UNL     1      31.815  -7.081 -23.028  0.00  0.00    +0.068 A 
ATOM     28  C   UNL     1      32.217  -6.428 -21.868  0.00  0.00    +0.152 A 
ATOM     29  C   UNL     1      31.385  -6.295 -24.106  0.00  0.00    +0.006 C 
ATOM     30  C   UNL     1      32.203  -5.037 -21.752  0.00  0.00    +0.038 C 
ATOM     31  C   UNL     1      31.366  -4.899 -24.007  0.00  0.00    +0.000 C 
ATOM     32  C   UNL     1      31.773  -4.272 -22.831  0.00  0.00    +0.003 C 
BRANCH  25  33
ATOM     33  O   UNL     1      31.449  -9.102 -24.255  0.00  0.00    -0.506 OA
ATOM     34  H   UNL     1      31.401  -8.574 -25.027  0.00  0.00    +0.292 HD
ENDBRANCH  25  33
ENDBRANCH  21  24
BRANCH  21  35
ATOM     35  C   UNL     1      30.943 -11.343 -21.767  0.00  0.00    +0.009 C 
ATOM     36  C   UNL     1      30.446 -11.352 -20.326  0.00  0.00    +0.001 C 
ENDBRANCH  21  35
ENDBRANCH   1  21
TORSDOF 9
ENDMDL
MODEL 6
REMARK VINA RESULT:      -9.2      5.553     10.230
REMARK  Name = 54689025
REMARK  9 active torsions:
REMARK  status: ('A' for Active; 'I' for Inactive)
REMARK    1  A    between atoms: C_1  and  C_21
REMARK    2  A    between atoms: C_4  and  N_8
REMARK    3  A    between atoms: C_9  and  C_11
REMARK    4  A    between atoms: C_11  and  N_13
REMARK    5  A    between atoms: C_14  and  O_16
REMARK    6  A    between atoms: O_16  and  C_17
REMARK    7  A    between atoms: C_21  and  C_24
REMARK    8  A    between atoms: C_21  and  C_35
REMARK    9  A    between atoms: C_25  and  O_33
REMARK                            x       y       z     vdW  Elec       q    Type
REMARK                         _______ _______ _______ _____ _____    ______ ____
ROOT
ATOM      1  C   UNL     1      32.574 -24.100 -16.145  0.00  0.00    -0.017 C 
ATOM      2  C   UNL     1      33.573 -23.793 -17.069  0.00  0.00    +0.011 C 
ATOM      3  C   UNL     1      31.352 -23.429 -16.190  0.00  0.00    -0.004 C 
ATOM      4  C   UNL     1      33.349 -22.816 -18.039  0.00  0.00    +0.050 C 
ATOM      5  C   UNL     1      31.129 -22.451 -17.159  0.00  0.00    +0.001 C 
ATOM      6  C   UNL     1      32.127 -22.145 -18.084  0.00  0.00    +0.015 C 
ENDROOT
BRANCH   4   8
ATOM      7  O   UNL     1      36.177 -21.894 -17.614  0.00  0.00    -0.273 OA
ATOM      8  N   UNL     1      34.349 -22.507 -18.963  0.00  0.00    -0.283 N 
ATOM      9  C   UNL     1      35.662 -22.078 -18.712  0.00  0.00    +0.246 C 
ATOM     10  H   UNL     1      34.102 -22.605 -19.911  0.00  0.00    +0.155 HD
BRANCH   9  11
ATOM     11  C   UNL     1      36.418 -21.856 -20.009  0.00  0.00    +0.179 C 
BRANCH  11  13
ATOM     12  O   UNL     1      34.104 -20.570 -21.205  0.00  0.00    -0.226 OA
ATOM     13  N   UNL     1      36.292 -20.492 -20.434  0.00  0.00    -0.262 N 
ATOM     14  C   UNL     1      35.146 -19.957 -20.998  0.00  0.00    +0.402 C 
ATOM     15  H   UNL     1      37.069 -19.899 -20.317  0.00  0.00    +0.153 HD
BRANCH  14  16
ATOM     16  O   UNL     1      35.342 -18.637 -21.294  0.00  0.00    -0.442 OA
BRANCH  16  17
ATOM     17  C   UNL     1      35.867 -18.361 -22.597  0.00  0.00    +0.138 C 
ATOM     18  C   UNL     1      37.374 -18.612 -22.578  0.00  0.00    +0.044 C 
ATOM     19  C   UNL     1      35.570 -16.895 -22.911  0.00  0.00    +0.044 C 
ATOM     20  C   UNL     1      35.174 -19.278 -23.604  0.00  0.00    +0.044 C 
ENDBRANCH  16  17
ENDBRANCH  14  16
ENDBRANCH  11  13
ENDBRANCH   9  11
ENDBRANCH   4   8
BRANCH   1  21
ATOM     21  C   UNL     1      32.817 -25.164 -15.090  0.00  0.00    +0.054 C 
BRANCH  21  24
ATOM     22  O   UNL     1      34.959 -23.642 -12.365  0.00  0.00    -0.421 OA
ATOM     23  O   UNL     1      32.739 -23.530 -12.848  0.00  0.00    -0.245 OA
ATOM     24  C   UNL     1      34.066 -24.867 -14.305  0.00  0.00    +0.091 A 
ATOM     25  C   UNL     1      35.297 -25.336 -14.583  0.00  0.00    +0.139 A 
ATOM     26  C   UNL     1      33.850 -23.969 -13.133  0.00  0.00    +0.345 A 
ATOM     27  C   UNL     1      36.447 -24.971 -13.753  0.00  0.00    +0.068 A 
ATOM     28  C   UNL     1      36.242 -24.131 -12.663  0.00  0.00    +0.152 A 
ATOM     29  C   UNL     1      37.751 -25.424 -13.994  0.00  0.00    +0.006 C 
ATOM     30  C   UNL     1      37.284 -23.735 -11.822  0.00  0.00    +0.038 C 
ATOM     31  C   UNL     1      38.807 -25.037 -13.160  0.00  0.00    +0.000 C 
ATOM     32  C   UNL     1      38.572 -24.192 -12.077  0.00  0.00    +0.003 C 
BRANCH  25  33
ATOM     33  O   UNL     1      35.596 -26.175 -15.636  0.00  0.00    -0.506 OA
ATOM     34  H   UNL     1      34.921 -26.693 -16.028  0.00  0.00    +0.292 HD
ENDBRANCH  25  33
ENDBRANCH  21  24
BRANCH  21  35
ATOM     35  C   UNL     1      31.628 -25.367 -14.129  0.00  0.00    +0.009 C 
ATOM     36  C   UNL     1      30.356 -25.813 -14.843  0.00  0.00    +0.001 C 
ENDBRANCH  21  35
ENDBRANCH   1  21
TORSDOF 9
ENDMDL
MODEL 7
REMARK VINA RESULT:      -9.0      3.254      5.667
REMARK  Name = 54689025
REMARK  9 active torsions:
REMARK  status: ('A' for Active; 'I' for Inactive)
REMARK    1  A    between atoms: C_1  and  C_21
REMARK    2  A    between atoms: C_4  and  N_8
REMARK    3  A    between atoms: C_9  and  C_11
REMARK    4  A    between atoms: C_11  and  N_13
REMARK    5  A    between atoms: C_14  and  O_16
REMARK    6  A    between atoms: O_16  and  C_17
REMARK    7  A    between atoms: C_21  and  C_24
REMARK    8  A    between atoms: C_21  and  C_35
REMARK    9  A    between atoms: C_25  and  O_33
REMARK                            x       y       z     vdW  Elec       q    Type
REMARK                         _______ _______ _______ _____ _____    ______ ____
ROOT
ATOM      1  C   UNL     1      33.248 -12.025 -23.066  0.00  0.00    -0.017 C 
ATOM      2  C   UNL     1      33.017 -10.658 -22.922  0.00  0.00    +0.011 C 
ATOM      3  C   UNL     1      32.441 -12.944 -22.395  0.00  0.00    -0.004 C 
ATOM      4  C   UNL     1      31.977 -10.208 -22.108  0.00  0.00    +0.050 C 
ATOM      5  C   UNL     1      31.403 -12.495 -21.580  0.00  0.00    +0.001 C 
ATOM      6  C   UNL     1      31.170 -11.127 -21.437  0.00  0.00    +0.015 C 
ENDROOT
BRANCH   4   8
ATOM      7  O   UNL     1      33.159  -8.227 -20.183  0.00  0.00    -0.273 OA
ATOM      8  N   UNL     1      31.745  -8.840 -21.962  0.00  0.00    -0.283 N 
ATOM      9  C   UNL     1      32.326  -7.953 -21.041  0.00  0.00    +0.246 C 
ATOM     10  H   UNL     1      31.093  -8.446 -22.585  0.00  0.00    +0.155 HD
BRANCH   9  11
ATOM     11  C   UNL     1      31.790  -6.546 -21.231  0.00  0.00    +0.179 C 
BRANCH  11  13
ATOM     12  O   UNL     1      30.749  -4.571 -23.089  0.00  0.00    -0.226 OA
ATOM     13  N   UNL     1      32.491  -5.883 -22.292  0.00  0.00    -0.262 N 
ATOM     14  C   UNL     1      31.916  -4.948 -23.137  0.00  0.00    +0.402 C 
ATOM     15  H   UNL     1      33.440  -6.106 -22.428  0.00  0.00    +0.153 HD
BRANCH  14  16
ATOM     16  O   UNL     1      32.840  -4.501 -24.040  0.00  0.00    -0.442 OA
BRANCH  16  17
ATOM     17  C   UNL     1      33.223  -5.437 -25.054  0.00  0.00    +0.138 C 
ATOM     18  C   UNL     1      32.207  -6.578 -25.072  0.00  0.00    +0.044 C 
ATOM     19  C   UNL     1      34.613  -5.959 -24.696  0.00  0.00    +0.044 C 
ATOM     20  C   UNL     1      33.251  -4.711 -26.399  0.00  0.00    +0.044 C 
ENDBRANCH  16  17
ENDBRANCH  14  16
ENDBRANCH  11  13
ENDBRANCH   9  11
ENDBRANCH   4   8
BRANCH   1  21
ATOM     21  C   UNL     1      34.379 -12.514 -23.953  0.00  0.00    +0.054 C 
BRANCH  21  24
ATOM     22  O   UNL     1      35.275 -15.804 -22.308  0.00  0.00    -0.421 OA
ATOM     23  O   UNL     1      35.318 -13.643 -21.598  0.00  0.00    -0.245 OA
ATOM     24  C   UNL     1      34.558 -14.003 -23.825  0.00  0.00    +0.091 A 
ATOM     25  C   UNL     1      34.296 -14.909 -24.787  0.00  0.00    +0.139 A 
ATOM     26  C   UNL     1      35.075 -14.443 -22.497  0.00  0.00    +0.345 A 
ATOM     27  C   UNL     1      34.518 -16.338 -24.554  0.00  0.00    +0.068 A 
ATOM     28  C   UNL     1      35.003 -16.744 -23.316  0.00  0.00    +0.152 A 
ATOM     29  C   UNL     1      34.267 -17.326 -25.516  0.00  0.00    +0.006 C 
ATOM     30  C   UNL     1      35.243 -18.086 -23.014  0.00  0.00    +0.038 C 
ATOM     31  C   UNL     1      34.501 -18.676 -25.229  0.00  0.00    +0.000 C 
ATOM     32  C   UNL     1      34.990 -19.054 -23.980  0.00  0.00    +0.003 C 
BRANCH  25  33
ATOM     33  O   UNL     1      33.810 -14.602 -26.040  0.00  0.00    -0.506 OA
ATOM     34  H   UNL     1      34.403 -14.406 -26.738  0.00  0.00    +0.292 HD
ENDBRANCH  25  33
ENDBRANCH  21  24
BRANCH  21  35
ATOM     35  C   UNL     1      34.212 -12.131 -25.438  0.00  0.00    +0.009 C 
ATOM     36  C   UNL     1      35.112 -10.974 -25.858  0.00  0.00    +0.001 C 
ENDBRANCH  21  35
ENDBRANCH   1  21
TORSDOF 9
ENDMDL
MODEL 8
REMARK VINA RESULT:      -8.9      5.514     10.092
REMARK  Name = 54689025
REMARK  9 active torsions:
REMARK  status: ('A' for Active; 'I' for Inactive)
REMARK    1  A    between atoms: C_1  and  C_21
REMARK    2  A    between atoms: C_4  and  N_8
REMARK    3  A    between atoms: C_9  and  C_11
REMARK    4  A    between atoms: C_11  and  N_13
REMARK    5  A    between atoms: C_14  and  O_16
REMARK    6  A    between atoms: O_16  and  C_17
REMARK    7  A    between atoms: C_21  and  C_24
REMARK    8  A    between atoms: C_21  and  C_35
REMARK    9  A    between atoms: C_25  and  O_33
REMARK                            x       y       z     vdW  Elec       q    Type
REMARK                         _______ _______ _______ _____ _____    ______ ____
ROOT
ATOM      1  C   UNL     1      32.898 -24.119 -16.166  0.00  0.00    -0.017 C 
ATOM      2  C   UNL     1      33.889 -23.710 -17.058  0.00  0.00    +0.011 C 
ATOM      3  C   UNL     1      31.624 -23.557 -16.233  0.00  0.00    -0.004 C 
ATOM      4  C   UNL     1      33.606 -22.739 -18.018  0.00  0.00    +0.050 C 
ATOM      5  C   UNL     1      31.340 -22.585 -17.193  0.00  0.00    +0.001 C 
ATOM      6  C   UNL     1      32.331 -22.177 -18.086  0.00  0.00    +0.015 C 
ENDROOT
BRANCH   4   8
ATOM      7  O   UNL     1      36.475 -21.992 -17.532  0.00  0.00    -0.273 OA
ATOM      8  N   UNL     1      34.597 -22.329 -18.911  0.00  0.00    -0.283 N 
ATOM      9  C   UNL     1      35.931 -21.988 -18.631  0.00  0.00    +0.246 C 
ATOM     10  H   UNL     1      34.328 -22.272 -19.856  0.00  0.00    +0.155 HD
BRANCH   9  11
ATOM     11  C   UNL     1      36.668 -21.598 -19.899  0.00  0.00    +0.179 C 
BRANCH  11  13
ATOM     12  O   UNL     1      37.673 -18.913 -20.368  0.00  0.00    -0.226 OA
ATOM     13  N   UNL     1      35.999 -20.512 -20.553  0.00  0.00    -0.262 N 
ATOM     14  C   UNL     1      36.553 -19.255 -20.736  0.00  0.00    +0.402 C 
ATOM     15  H   UNL     1      35.088 -20.668 -20.892  0.00  0.00    +0.153 HD
BRANCH  14  16
ATOM     16  O   UNL     1      35.669 -18.444 -21.389  0.00  0.00    -0.442 OA
BRANCH  16  17
ATOM     17  C   UNL     1      35.868 -18.314 -22.801  0.00  0.00    +0.138 C 
ATOM     18  C   UNL     1      35.542 -16.878 -23.209  0.00  0.00    +0.044 C 
ATOM     19  C   UNL     1      34.923 -19.297 -23.490  0.00  0.00    +0.044 C 
ATOM     20  C   UNL     1      37.323 -18.654 -23.120  0.00  0.00    +0.044 C 
ENDBRANCH  16  17
ENDBRANCH  14  16
ENDBRANCH  11  13
ENDBRANCH   9  11
ENDBRANCH   4   8
BRANCH   1  21
ATOM     21  C   UNL     1      33.207 -25.177 -15.121  0.00  0.00    +0.054 C 
BRANCH  21  24
ATOM     22  O   UNL     1      36.958 -25.537 -14.758  0.00  0.00    -0.421 OA
ATOM     23  O   UNL     1      35.450 -26.361 -16.248  0.00  0.00    -0.245 OA
ATOM     24  C   UNL     1      34.574 -24.965 -14.530  0.00  0.00    +0.091 A 
ATOM     25  C   UNL     1      34.852 -24.217 -13.445  0.00  0.00    +0.139 A 
ATOM     26  C   UNL     1      35.668 -25.676 -15.253  0.00  0.00    +0.345 A 
ATOM     27  C   UNL     1      36.224 -24.090 -12.949  0.00  0.00    +0.068 A 
ATOM     28  C   UNL     1      37.241 -24.757 -13.624  0.00  0.00    +0.152 A 
ATOM     29  C   UNL     1      36.574 -23.329 -11.825  0.00  0.00    +0.006 C 
ATOM     30  C   UNL     1      38.574 -24.690 -13.217  0.00  0.00    +0.038 C 
ATOM     31  C   UNL     1      37.906 -23.250 -11.404  0.00  0.00    +0.000 C 
ATOM     32  C   UNL     1      38.904 -23.931 -12.099  0.00  0.00    +0.003 C 
BRANCH  25  33
ATOM     33  O   UNL     1      33.913 -23.518 -12.715  0.00  0.00    -0.506 OA
ATOM     34  H   UNL     1      33.768 -22.609 -12.888  0.00  0.00    +0.292 HD
ENDBRANCH  25  33
ENDBRANCH  21  24
BRANCH  21  35
ATOM     35  C   UNL     1      32.155 -25.261 -13.996  0.00  0.00    +0.009 C 
ATOM     36  C   UNL     1      30.766 -25.626 -14.507  0.00  0.00    +0.001 C 
ENDBRANCH  21  35
ENDBRANCH   1  21
TORSDOF 9
ENDMDL
MODEL 9
REMARK VINA RESULT:      -8.8      2.151     10.570
REMARK  Name = 54689025
REMARK  9 active torsions:
REMARK  status: ('A' for Active; 'I' for Inactive)
REMARK    1  A    between atoms: C_1  and  C_21
REMARK    2  A    between atoms: C_4  and  N_8
REMARK    3  A    between atoms: C_9  and  C_11
REMARK    4  A    between atoms: C_11  and  N_13
REMARK    5  A    between atoms: C_14  and  O_16
REMARK    6  A    between atoms: O_16  and  C_17
REMARK    7  A    between atoms: C_21  and  C_24
REMARK    8  A    between atoms: C_21  and  C_35
REMARK    9  A    between atoms: C_25  and  O_33
REMARK                            x       y       z     vdW  Elec       q    Type
REMARK                         _______ _______ _______ _____ _____    ______ ____
ROOT
ATOM      1  C   UNL     1      33.601 -12.593 -24.496  0.00  0.00    -0.017 C 
ATOM      2  C   UNL     1      33.712 -13.980 -24.583  0.00  0.00    +0.011 C 
ATOM      3  C   UNL     1      33.553 -11.822 -25.658  0.00  0.00    -0.004 C 
ATOM      4  C   UNL     1      33.775 -14.598 -25.831  0.00  0.00    +0.050 C 
ATOM      5  C   UNL     1      33.616 -12.440 -26.907  0.00  0.00    +0.001 C 
ATOM      6  C   UNL     1      33.726 -13.828 -26.993  0.00  0.00    +0.015 C 
ENDROOT
BRANCH   4   8
ATOM      7  O   UNL     1      35.398 -16.527 -24.197  0.00  0.00    -0.273 OA
ATOM      8  N   UNL     1      33.887 -15.986 -25.919  0.00  0.00    -0.283 N 
ATOM      9  C   UNL     1      34.664 -16.847 -25.127  0.00  0.00    +0.246 C 
ATOM     10  H   UNL     1      33.352 -16.417 -26.625  0.00  0.00    +0.155 HD
BRANCH   9  11
ATOM     11  C   UNL     1      34.491 -18.290 -25.563  0.00  0.00    +0.179 C 
BRANCH  11  13
ATOM     12  O   UNL     1      36.578 -19.328 -23.829  0.00  0.00    -0.226 OA
ATOM     13  N   UNL     1      34.340 -19.143 -24.420  0.00  0.00    -0.262 N 
ATOM     14  C   UNL     1      35.395 -19.594 -23.643  0.00  0.00    +0.402 C 
ATOM     15  H   UNL     1      33.430 -19.425 -24.171  0.00  0.00    +0.153 HD
BRANCH  14  16
ATOM     16  O   UNL     1      34.927 -20.385 -22.631  0.00  0.00    -0.442 OA
BRANCH  16  17
ATOM     17  C   UNL     1      35.032 -19.837 -21.313  0.00  0.00    +0.138 C 
ATOM     18  C   UNL     1      36.218 -20.492 -20.606  0.00  0.00    +0.044 C 
ATOM     19  C   UNL     1      33.729 -20.151 -20.580  0.00  0.00    +0.044 C 
ATOM     20  C   UNL     1      35.233 -18.327 -21.428  0.00  0.00    +0.044 C 
ENDBRANCH  16  17
ENDBRANCH  14  16
ENDBRANCH  11  13
ENDBRANCH   9  11
ENDBRANCH   4   8
BRANCH   1  21
ATOM     21  C   UNL     1      33.532 -11.920 -23.136  0.00  0.00    +0.054 C 
BRANCH  21  24
ATOM     22  O   UNL     1      31.502  -8.728 -22.993  0.00  0.00    -0.421 OA
ATOM     23  O   UNL     1      31.043 -10.893 -22.467  0.00  0.00    -0.245 OA
ATOM     24  C   UNL     1      33.237 -10.451 -23.277  0.00  0.00    +0.091 A 
ATOM     25  C   UNL     1      34.101  -9.517 -23.719  0.00  0.00    +0.139 A 
ATOM     26  C   UNL     1      31.852 -10.067 -22.880  0.00  0.00    +0.345 A 
ATOM     27  C   UNL     1      33.700  -8.113 -23.826  0.00  0.00    +0.068 A 
ATOM     28  C   UNL     1      32.407  -7.758 -23.458  0.00  0.00    +0.152 A 
ATOM     29  C   UNL     1      34.553  -7.097 -24.282  0.00  0.00    +0.006 C 
ATOM     30  C   UNL     1      31.945  -6.443 -23.530  0.00  0.00    +0.038 C 
ATOM     31  C   UNL     1      34.106  -5.773 -24.359  0.00  0.00    +0.000 C 
ATOM     32  C   UNL     1      32.804  -5.447 -23.985  0.00  0.00    +0.003 C 
BRANCH  25  33
ATOM     33  O   UNL     1      35.401  -9.772 -24.102  0.00  0.00    -0.506 OA
ATOM     34  H   UNL     1      36.104  -9.624 -23.500  0.00  0.00    +0.292 HD
ENDBRANCH  25  33
ENDBRANCH  21  24
BRANCH  21  35
ATOM     35  C   UNL     1      32.516 -12.570 -22.174  0.00  0.00    +0.009 C 
ATOM     36  C   UNL     1      33.180 -13.398 -21.079  0.00  0.00    +0.001 C 
ENDBRANCH  21  35
ENDBRANCH   1  21
TORSDOF 9
ENDMDL
