MODEL 1
REMARK VINA RESULT:     -11.3      0.000      0.000
REMARK  Name = 24905142
REMARK  2 active torsions:
REMARK  status: ('A' for Active; 'I' for Inactive)
REMARK    1  A    between atoms: N_1  and  C_20
REMARK    2  A    between atoms: C_7  and  C_12
REMARK                            x       y       z     vdW  Elec       q    Type
REMARK                         _______ _______ _______ _____ _____    ______ ____
ROOT
ATOM      1  N   UNL     1      33.962 -22.787 -18.171  0.00  0.00    -0.200 N 
ATOM      2  N   UNL     1      35.130 -23.071 -17.566  0.00  0.00    -0.181 NA
ATOM      3  N   UNL     1      31.591 -22.730 -17.683  0.00  0.00    -0.232 NA
ATOM      4  N   UNL     1      31.128 -23.386 -15.380  0.00  0.00    -0.234 NA
ATOM      5  C   UNL     1      32.877 -22.939 -17.359  0.00  0.00    +0.137 C 
ATOM      6  C   UNL     1      33.371 -23.352 -16.135  0.00  0.00    +0.150 C 
ATOM      7  C   UNL     1      34.764 -23.415 -16.326  0.00  0.00    +0.091 C 
ATOM      8  C   UNL     1      32.444 -23.577 -15.123  0.00  0.00    +0.112 C 
ATOM      9  C   UNL     1      30.788 -22.980 -16.626  0.00  0.00    +0.252 C 
ATOM     10  N   UNL     1      32.848 -23.999 -13.843  0.00  0.00    -0.346 N 
ATOM     11  H   UNL     1      32.176 -24.154 -13.140  0.00  0.00    +0.143 HD
ATOM     12  H   UNL     1      33.803 -24.139 -13.649  0.00  0.00    +0.143 HD
ENDROOT
BRANCH   7  15
ATOM     13  N   UNL     1      37.555 -23.071 -13.876  0.00  0.00    -0.229 NA
ATOM     14  N   UNL     1      38.571 -24.886 -12.660  0.00  0.00    -0.297 N 
ATOM     15  C   UNL     1      35.761 -23.792 -15.367  0.00  0.00    +0.035 C 
ATOM     16  C   UNL     1      35.922 -25.126 -15.000  0.00  0.00    +0.006 C 
ATOM     17  C   UNL     1      36.584 -22.836 -14.788  0.00  0.00    +0.102 C 
ATOM     18  C   UNL     1      36.915 -25.431 -14.056  0.00  0.00    +0.033 C 
ATOM     19  C   UNL     1      37.669 -24.375 -13.555  0.00  0.00    +0.132 C 
ATOM     20  C   UNL     1      37.394 -26.612 -13.428  0.00  0.00    +0.019 C 
ATOM     21  C   UNL     1      38.412 -26.246 -12.574  0.00  0.00    +0.063 C 
ATOM     22  H   UNL     1      39.231 -24.359 -12.155  0.00  0.00    +0.154 HD
ENDBRANCH   7  15
BRANCH   1  23
ATOM     23  C   UNL     1      33.958 -22.349 -19.618  0.00  0.00    +0.098 C 
ATOM     24  C   UNL     1      35.360 -22.125 -20.222  0.00  0.00    +0.022 C 
ATOM     25  C   UNL     1      33.196 -21.029 -19.834  0.00  0.00    +0.022 C 
ATOM     26  C   UNL     1      35.410 -20.653 -20.617  0.00  0.00    +0.002 C 
ATOM     27  C   UNL     1      33.965 -20.315 -20.935  0.00  0.00    +0.002 C 
ENDBRANCH   1  23
TORSDOF 2
ENDMDL
MODEL 2
REMARK VINA RESULT:     -11.3      0.840      1.344
REMARK  Name = 24905142
REMARK  2 active torsions:
REMARK  status: ('A' for Active; 'I' for Inactive)
REMARK    1  A    between atoms: N_1  and  C_20
REMARK    2  A    between atoms: C_7  and  C_12
REMARK                            x       y       z     vdW  Elec       q    Type
REMARK                         _______ _______ _______ _____ _____    ______ ____
ROOT
ATOM      1  N   UNL     1      33.875 -22.908 -18.110  0.00  0.00    -0.200 N 
ATOM      2  N   UNL     1      35.012 -23.268 -17.487  0.00  0.00    -0.181 NA
ATOM      3  N   UNL     1      31.500 -22.730 -17.670  0.00  0.00    -0.232 NA
ATOM      4  N   UNL     1      30.952 -23.407 -15.392  0.00  0.00    -0.234 NA
ATOM      5  C   UNL     1      32.765 -23.016 -17.325  0.00  0.00    +0.137 C 
ATOM      6  C   UNL     1      33.209 -23.480 -16.099  0.00  0.00    +0.150 C 
ATOM      7  C   UNL     1      34.601 -23.616 -16.263  0.00  0.00    +0.091 C 
ATOM      8  C   UNL     1      32.250 -23.675 -15.112  0.00  0.00    +0.112 C 
ATOM      9  C   UNL     1      30.662 -22.957 -16.636  0.00  0.00    +0.252 C 
ATOM     10  N   UNL     1      32.602 -24.143 -13.833  0.00  0.00    -0.346 N 
ATOM     11  H   UNL     1      31.906 -24.275 -13.148  0.00  0.00    +0.143 HD
ATOM     12  H   UNL     1      33.543 -24.340 -13.622  0.00  0.00    +0.143 HD
ENDROOT
BRANCH   7  15
ATOM     13  N   UNL     1      36.869 -25.924 -14.408  0.00  0.00    -0.229 NA
ATOM     14  N   UNL     1      38.252 -25.308 -12.534  0.00  0.00    -0.297 N 
ATOM     15  C   UNL     1      35.555 -24.066 -15.291  0.00  0.00    +0.035 C 
ATOM     16  C   UNL     1      36.074 -23.182 -14.347  0.00  0.00    +0.006 C 
ATOM     17  C   UNL     1      35.978 -25.387 -15.272  0.00  0.00    +0.102 C 
ATOM     18  C   UNL     1      37.005 -23.683 -13.423  0.00  0.00    +0.033 C 
ATOM     19  C   UNL     1      37.340 -25.030 -13.518  0.00  0.00    +0.132 C 
ATOM     20  C   UNL     1      37.751 -23.149 -12.339  0.00  0.00    +0.019 C 
ATOM     21  C   UNL     1      38.510 -24.171 -11.812  0.00  0.00    +0.063 C 
ATOM     22  H   UNL     1      38.661 -26.189 -12.371  0.00  0.00    +0.154 HD
ENDBRANCH   7  15
BRANCH   1  23
ATOM     23  C   UNL     1      33.927 -22.442 -19.547  0.00  0.00    +0.098 C 
ATOM     24  C   UNL     1      35.352 -22.220 -20.097  0.00  0.00    +0.022 C 
ATOM     25  C   UNL     1      33.186 -21.110 -19.763  0.00  0.00    +0.022 C 
ATOM     26  C   UNL     1      35.430 -20.742 -20.460  0.00  0.00    +0.002 C 
ATOM     27  C   UNL     1      34.001 -20.382 -20.822  0.00  0.00    +0.002 C 
ENDBRANCH   1  23
TORSDOF 2
ENDMDL
MODEL 3
REMARK VINA RESULT:     -10.1      6.011      9.430
REMARK  Name = 24905142
REMARK  2 active torsions:
REMARK  status: ('A' for Active; 'I' for Inactive)
REMARK    1  A    between atoms: N_1  and  C_20
REMARK    2  A    between atoms: C_7  and  C_12
REMARK                            x       y       z     vdW  Elec       q    Type
REMARK                         _______ _______ _______ _____ _____    ______ ____
ROOT
ATOM      1  N   UNL     1      34.652 -15.142 -22.661  0.00  0.00    -0.200 N 
ATOM      2  N   UNL     1      35.009 -16.021 -21.706  0.00  0.00    -0.181 NA
ATOM      3  N   UNL     1      34.263 -15.062 -25.050  0.00  0.00    -0.232 NA
ATOM      4  N   UNL     1      34.621 -17.235 -26.096  0.00  0.00    -0.234 NA
ATOM      5  C   UNL     1      34.589 -15.689 -23.909  0.00  0.00    +0.137 C 
ATOM      6  C   UNL     1      34.931 -17.021 -23.759  0.00  0.00    +0.150 C 
ATOM      7  C   UNL     1      35.178 -17.163 -22.381  0.00  0.00    +0.091 C 
ATOM      8  C   UNL     1      34.940 -17.804 -24.908  0.00  0.00    +0.112 C 
ATOM      9  C   UNL     1      34.306 -15.918 -26.093  0.00  0.00    +0.252 C 
ATOM     10  N   UNL     1      35.273 -19.170 -24.859  0.00  0.00    -0.346 N 
ATOM     11  H   UNL     1      35.274 -19.707 -25.685  0.00  0.00    +0.143 HD
ATOM     12  H   UNL     1      35.505 -19.590 -24.000  0.00  0.00    +0.143 HD
ENDROOT
BRANCH   7  15
ATOM     13  N   UNL     1      37.392 -19.672 -20.731  0.00  0.00    -0.229 NA
ATOM     14  N   UNL     1      36.650 -21.722 -19.705  0.00  0.00    -0.297 N 
ATOM     15  C   UNL     1      35.571 -18.353 -21.682  0.00  0.00    +0.035 C 
ATOM     16  C   UNL     1      34.617 -19.291 -21.291  0.00  0.00    +0.006 C 
ATOM     17  C   UNL     1      36.905 -18.591 -21.383  0.00  0.00    +0.102 C 
ATOM     18  C   UNL     1      35.064 -20.434 -20.609  0.00  0.00    +0.033 C 
ATOM     19  C   UNL     1      36.431 -20.547 -20.375  0.00  0.00    +0.132 C 
ATOM     20  C   UNL     1      34.455 -21.591 -20.054  0.00  0.00    +0.019 C 
ATOM     21  C   UNL     1      35.455 -22.364 -19.504  0.00  0.00    +0.063 C 
ATOM     22  H   UNL     1      37.529 -22.053 -19.413  0.00  0.00    +0.154 HD
ENDBRANCH   7  15
BRANCH   1  23
ATOM     23  C   UNL     1      34.367 -13.706 -22.284  0.00  0.00    +0.098 C 
ATOM     24  C   UNL     1      33.682 -13.528 -20.913  0.00  0.00    +0.022 C 
ATOM     25  C   UNL     1      33.452 -12.999 -23.301  0.00  0.00    +0.022 C 
ATOM     26  C   UNL     1      32.337 -12.872 -21.203  0.00  0.00    +0.002 C 
ATOM     27  C   UNL     1      32.593 -12.064 -22.463  0.00  0.00    +0.002 C 
ENDBRANCH   1  23
TORSDOF 2
ENDMDL
MODEL 4
REMARK VINA RESULT:     -10.0      1.653      6.310
REMARK  Name = 24905142
REMARK  2 active torsions:
REMARK  status: ('A' for Active; 'I' for Inactive)
REMARK    1  A    between atoms: N_1  and  C_20
REMARK    2  A    between atoms: C_7  and  C_12
REMARK                            x       y       z     vdW  Elec       q    Type
REMARK                         _______ _______ _______ _____ _____    ______ ____
ROOT
ATOM      1  N   UNL     1      35.224 -24.438 -15.431  0.00  0.00    -0.200 N 
ATOM      2  N   UNL     1      35.610 -23.754 -16.525  0.00  0.00    -0.181 NA
ATOM      3  N   UNL     1      33.210 -24.975 -14.200  0.00  0.00    -0.232 NA
ATOM      4  N   UNL     1      31.232 -23.987 -15.229  0.00  0.00    -0.234 NA
ATOM      5  C   UNL     1      33.880 -24.393 -15.206  0.00  0.00    +0.137 C 
ATOM      6  C   UNL     1      33.348 -23.624 -16.226  0.00  0.00    +0.150 C 
ATOM      7  C   UNL     1      34.462 -23.260 -17.004  0.00  0.00    +0.091 C 
ATOM      8  C   UNL     1      31.971 -23.428 -16.217  0.00  0.00    +0.112 C 
ATOM      9  C   UNL     1      31.888 -24.716 -14.295  0.00  0.00    +0.252 C 
ATOM     10  N   UNL     1      31.336 -22.662 -17.211  0.00  0.00    -0.346 N 
ATOM     11  H   UNL     1      30.359 -22.535 -17.187  0.00  0.00    +0.143 HD
ATOM     12  H   UNL     1      31.866 -22.253 -17.933  0.00  0.00    +0.143 HD
ENDROOT
BRANCH   7  15
ATOM     13  N   UNL     1      33.191 -21.482 -20.027  0.00  0.00    -0.229 NA
ATOM     14  N   UNL     1      34.537 -20.184 -21.547  0.00  0.00    -0.297 N 
ATOM     15  C   UNL     1      34.474 -22.457 -18.193  0.00  0.00    +0.035 C 
ATOM     16  C   UNL     1      35.663 -21.902 -18.660  0.00  0.00    +0.006 C 
ATOM     17  C   UNL     1      33.303 -22.220 -18.899  0.00  0.00    +0.102 C 
ATOM     18  C   UNL     1      35.609 -21.125 -19.828  0.00  0.00    +0.033 C 
ATOM     19  C   UNL     1      34.367 -20.968 -20.436  0.00  0.00    +0.132 C 
ATOM     20  C   UNL     1      36.546 -20.404 -20.615  0.00  0.00    +0.019 C 
ATOM     21  C   UNL     1      35.858 -19.835 -21.665  0.00  0.00    +0.063 C 
ATOM     22  H   UNL     1      33.821 -19.913 -22.165  0.00  0.00    +0.154 HD
ENDBRANCH   7  15
BRANCH   1  23
ATOM     23  C   UNL     1      36.260 -25.155 -14.596  0.00  0.00    +0.098 C 
ATOM     24  C   UNL     1      37.498 -24.304 -14.243  0.00  0.00    +0.022 C 
ATOM     25  C   UNL     1      36.807 -26.416 -15.289  0.00  0.00    +0.022 C 
ATOM     26  C   UNL     1      38.687 -25.018 -14.876  0.00  0.00    +0.002 C 
ATOM     27  C   UNL     1      38.271 -26.478 -14.880  0.00  0.00    +0.002 C 
ENDBRANCH   1  23
TORSDOF 2
ENDMDL
MODEL 5
REMARK VINA RESULT:     -10.0     10.488     13.744
REMARK  Name = 24905142
REMARK  2 active torsions:
REMARK  status: ('A' for Active; 'I' for Inactive)
REMARK    1  A    between atoms: N_1  and  C_20
REMARK    2  A    between atoms: C_7  and  C_12
REMARK                            x       y       z     vdW  Elec       q    Type
REMARK                         _______ _______ _______ _____ _____    ______ ____
ROOT
ATOM      1  N   UNL     1      32.923 -10.069 -23.188  0.00  0.00    -0.200 N 
ATOM      2  N   UNL     1      33.458 -11.040 -23.950  0.00  0.00    -0.181 NA
ATOM      3  N   UNL     1      31.785  -9.795 -21.069  0.00  0.00    -0.232 NA
ATOM      4  N   UNL     1      31.494 -11.926 -19.919  0.00  0.00    -0.234 NA
ATOM      5  C   UNL     1      32.384 -10.525 -22.022  0.00  0.00    +0.137 C 
ATOM      6  C   UNL     1      32.581 -11.895 -22.021  0.00  0.00    +0.150 C 
ATOM      7  C   UNL     1      33.247 -12.150 -23.235  0.00  0.00    +0.091 C 
ATOM      8  C   UNL     1      32.111 -12.600 -20.919  0.00  0.00    +0.112 C 
ATOM      9  C   UNL     1      31.371 -10.583 -20.054  0.00  0.00    +0.252 C 
ATOM     10  N   UNL     1      32.264 -13.995 -20.825  0.00  0.00    -0.346 N 
ATOM     11  H   UNL     1      31.923 -14.476 -20.035  0.00  0.00    +0.143 HD
ATOM     12  H   UNL     1      32.711 -14.492 -21.547  0.00  0.00    +0.143 HD
ENDROOT
BRANCH   7  15
ATOM     13  N   UNL     1      33.752 -14.977 -25.616  0.00  0.00    -0.229 NA
ATOM     14  N   UNL     1      34.956 -17.007 -25.131  0.00  0.00    -0.297 N 
ATOM     15  C   UNL     1      33.690 -13.418 -23.738  0.00  0.00    +0.035 C 
ATOM     16  C   UNL     1      34.431 -14.280 -22.931  0.00  0.00    +0.006 C 
ATOM     17  C   UNL     1      33.389 -13.810 -25.034  0.00  0.00    +0.102 C 
ATOM     18  C   UNL     1      34.836 -15.506 -23.481  0.00  0.00    +0.033 C 
ATOM     19  C   UNL     1      34.465 -15.772 -24.796  0.00  0.00    +0.132 C 
ATOM     20  C   UNL     1      35.575 -16.631 -23.027  0.00  0.00    +0.019 C 
ATOM     21  C   UNL     1      35.634 -17.537 -24.064  0.00  0.00    +0.063 C 
ATOM     22  H   UNL     1      34.841 -17.444 -26.005  0.00  0.00    +0.154 HD
ENDBRANCH   7  15
BRANCH   1  23
ATOM     23  C   UNL     1      32.966  -8.635 -23.668  0.00  0.00    +0.098 C 
ATOM     24  C   UNL     1      33.912  -7.719 -22.864  0.00  0.00    +0.022 C 
ATOM     25  C   UNL     1      31.586  -7.955 -23.618  0.00  0.00    +0.022 C 
ATOM     26  C   UNL     1      33.025  -6.640 -22.255  0.00  0.00    +0.002 C 
ATOM     27  C   UNL     1      31.881  -6.510 -23.245  0.00  0.00    +0.002 C 
ENDBRANCH   1  23
TORSDOF 2
ENDMDL
MODEL 6
REMARK VINA RESULT:     -10.0     11.413     13.935
REMARK  Name = 24905142
REMARK  2 active torsions:
REMARK  status: ('A' for Active; 'I' for Inactive)
REMARK    1  A    between atoms: N_1  and  C_20
REMARK    2  A    between atoms: C_7  and  C_12
REMARK                            x       y       z     vdW  Elec       q    Type
REMARK                         _______ _______ _______ _____ _____    ______ ____
ROOT
ATOM      1  N   UNL     1      32.815  -9.944 -23.043  0.00  0.00    -0.200 N 
ATOM      2  N   UNL     1      33.431 -10.911 -23.749  0.00  0.00    -0.181 NA
ATOM      3  N   UNL     1      31.613  -9.652 -20.962  0.00  0.00    -0.232 NA
ATOM      4  N   UNL     1      31.439 -11.743 -19.720  0.00  0.00    -0.234 NA
ATOM      5  C   UNL     1      32.281 -10.383 -21.868  0.00  0.00    +0.137 C 
ATOM      6  C   UNL     1      32.569 -11.734 -21.799  0.00  0.00    +0.150 C 
ATOM      7  C   UNL     1      33.278 -11.999 -22.986  0.00  0.00    +0.091 C 
ATOM      8  C   UNL     1      32.122 -12.419 -20.675  0.00  0.00    +0.112 C 
ATOM      9  C   UNL     1      31.230 -10.420 -19.920  0.00  0.00    +0.252 C 
ATOM     10  N   UNL     1      32.366 -13.795 -20.512  0.00  0.00    -0.346 N 
ATOM     11  H   UNL     1      32.040 -14.262 -19.708  0.00  0.00    +0.143 HD
ATOM     12  H   UNL     1      32.862 -14.293 -21.202  0.00  0.00    +0.143 HD
ENDROOT
BRANCH   7  15
ATOM     13  N   UNL     1      35.357 -15.096 -22.975  0.00  0.00    -0.229 NA
ATOM     14  N   UNL     1      35.319 -16.804 -24.673  0.00  0.00    -0.297 N 
ATOM     15  C   UNL     1      33.816 -13.255 -23.420  0.00  0.00    +0.035 C 
ATOM     16  C   UNL     1      33.381 -13.839 -24.608  0.00  0.00    +0.006 C 
ATOM     17  C   UNL     1      34.779 -13.912 -22.667  0.00  0.00    +0.102 C 
ATOM     18  C   UNL     1      33.946 -15.070 -24.979  0.00  0.00    +0.033 C 
ATOM     19  C   UNL     1      34.903 -15.617 -24.130  0.00  0.00    +0.132 C 
ATOM     20  C   UNL     1      33.794 -15.973 -26.065  0.00  0.00    +0.019 C 
ATOM     21  C   UNL     1      34.651 -17.031 -25.849  0.00  0.00    +0.063 C 
ATOM     22  H   UNL     1      35.993 -17.403 -24.279  0.00  0.00    +0.154 HD
ENDBRANCH   7  15
BRANCH   1  23
ATOM     23  C   UNL     1      32.773  -8.535 -23.589  0.00  0.00    +0.098 C 
ATOM     24  C   UNL     1      33.644  -7.522 -22.816  0.00  0.00    +0.022 C 
ATOM     25  C   UNL     1      31.352  -7.944 -23.590  0.00  0.00    +0.022 C 
ATOM     26  C   UNL     1      32.679  -6.477 -22.270  0.00  0.00    +0.002 C 
ATOM     27  C   UNL     1      31.546  -6.468 -23.280  0.00  0.00    +0.002 C 
ENDBRANCH   1  23
TORSDOF 2
ENDMDL
MODEL 7
REMARK VINA RESULT:     -10.0      1.966      6.698
REMARK  Name = 24905142
REMARK  2 active torsions:
REMARK  status: ('A' for Active; 'I' for Inactive)
REMARK    1  A    between atoms: N_1  and  C_20
REMARK    2  A    between atoms: C_7  and  C_12
REMARK                            x       y       z     vdW  Elec       q    Type
REMARK                         _______ _______ _______ _____ _____    ______ ____
ROOT
ATOM      1  N   UNL     1      36.160 -23.249 -15.112  0.00  0.00    -0.200 N 
ATOM      2  N   UNL     1      34.945 -23.631 -14.674  0.00  0.00    -0.181 NA
ATOM      3  N   UNL     1      37.221 -22.394 -17.113  0.00  0.00    -0.232 NA
ATOM      4  N   UNL     1      35.623 -22.125 -18.936  0.00  0.00    -0.234 NA
ATOM      5  C   UNL     1      36.164 -22.830 -16.409  0.00  0.00    +0.137 C 
ATOM      6  C   UNL     1      34.859 -22.947 -16.853  0.00  0.00    +0.150 C 
ATOM      7  C   UNL     1      34.157 -23.446 -15.739  0.00  0.00    +0.091 C 
ATOM      8  C   UNL     1      34.602 -22.575 -18.168  0.00  0.00    +0.112 C 
ATOM      9  C   UNL     1      36.852 -22.063 -18.369  0.00  0.00    +0.252 C 
ATOM     10  N   UNL     1      33.308 -22.657 -18.711  0.00  0.00    -0.346 N 
ATOM     11  H   UNL     1      33.147 -22.388 -19.645  0.00  0.00    +0.143 HD
ATOM     12  H   UNL     1      32.561 -22.982 -18.158  0.00  0.00    +0.143 HD
ENDROOT
BRANCH   7  15
ATOM     13  N   UNL     1      31.030 -25.247 -14.794  0.00  0.00    -0.229 NA
ATOM     14  N   UNL     1      28.801 -24.591 -15.427  0.00  0.00    -0.297 N 
ATOM     15  C   UNL     1      32.759 -23.752 -15.653  0.00  0.00    +0.035 C 
ATOM     16  C   UNL     1      31.817 -22.939 -16.281  0.00  0.00    +0.006 C 
ATOM     17  C   UNL     1      32.318 -24.860 -14.944  0.00  0.00    +0.102 C 
ATOM     18  C   UNL     1      30.463 -23.291 -16.159  0.00  0.00    +0.033 C 
ATOM     19  C   UNL     1      30.161 -24.430 -15.418  0.00  0.00    +0.132 C 
ATOM     20  C   UNL     1      29.229 -22.762 -16.621  0.00  0.00    +0.019 C 
ATOM     21  C   UNL     1      28.224 -23.581 -16.154  0.00  0.00    +0.063 C 
ATOM     22  H   UNL     1      28.313 -25.318 -14.978  0.00  0.00    +0.154 HD
ENDBRANCH   7  15
BRANCH   1  23
ATOM     23  C   UNL     1      37.345 -23.315 -14.175  0.00  0.00    +0.098 C 
ATOM     24  C   UNL     1      38.237 -24.561 -14.357  0.00  0.00    +0.022 C 
ATOM     25  C   UNL     1      36.927 -23.316 -12.693  0.00  0.00    +0.022 C 
ATOM     26  C   UNL     1      38.174 -25.313 -13.033  0.00  0.00    +0.002 C 
ATOM     27  C   UNL     1      37.940 -24.219 -12.007  0.00  0.00    +0.002 C 
ENDBRANCH   1  23
TORSDOF 2
ENDMDL
MODEL 8
REMARK VINA RESULT:      -9.9      1.283      3.895
REMARK  Name = 24905142
REMARK  2 active torsions:
REMARK  status: ('A' for Active; 'I' for Inactive)
REMARK    1  A    between atoms: N_1  and  C_20
REMARK    2  A    between atoms: C_7  and  C_12
REMARK                            x       y       z     vdW  Elec       q    Type
REMARK                         _______ _______ _______ _____ _____    ______ ____
ROOT
ATOM      1  N   UNL     1      32.599 -23.480 -16.943  0.00  0.00    -0.200 N 
ATOM      2  N   UNL     1      33.368 -23.926 -15.932  0.00  0.00    -0.181 NA
ATOM      3  N   UNL     1      32.807 -22.281 -19.036  0.00  0.00    -0.232 NA
ATOM      4  N   UNL     1      35.121 -21.667 -19.498  0.00  0.00    -0.234 NA
ATOM      5  C   UNL     1      33.300 -22.830 -17.915  0.00  0.00    +0.137 C 
ATOM      6  C   UNL     1      34.623 -22.853 -17.511  0.00  0.00    +0.150 C 
ATOM      7  C   UNL     1      34.600 -23.541 -16.284  0.00  0.00    +0.091 C 
ATOM      8  C   UNL     1      35.550 -22.243 -18.349  0.00  0.00    +0.112 C 
ATOM      9  C   UNL     1      33.795 -21.721 -19.766  0.00  0.00    +0.252 C 
ATOM     10  N   UNL     1      36.919 -22.214 -18.027  0.00  0.00    -0.346 N 
ATOM     11  H   UNL     1      37.559 -21.776 -18.634  0.00  0.00    +0.143 HD
ATOM     12  H   UNL     1      37.238 -22.631 -17.194  0.00  0.00    +0.143 HD
ENDROOT
BRANCH   7  15
ATOM     13  N   UNL     1      37.493 -22.997 -13.992  0.00  0.00    -0.229 NA
ATOM     14  N   UNL     1      38.852 -24.737 -13.029  0.00  0.00    -0.297 N 
ATOM     15  C   UNL     1      35.712 -23.845 -15.432  0.00  0.00    +0.035 C 
ATOM     16  C   UNL     1      36.092 -25.167 -15.210  0.00  0.00    +0.006 C 
ATOM     17  C   UNL     1      36.430 -22.831 -14.814  0.00  0.00    +0.102 C 
ATOM     18  C   UNL     1      37.189 -25.401 -14.365  0.00  0.00    +0.033 C 
ATOM     19  C   UNL     1      37.819 -24.291 -13.811  0.00  0.00    +0.132 C 
ATOM     20  C   UNL     1      37.881 -26.546 -13.888  0.00  0.00    +0.019 C 
ATOM     21  C   UNL     1      38.898 -26.107 -13.068  0.00  0.00    +0.063 C 
ATOM     22  H   UNL     1      39.465 -24.163 -12.517  0.00  0.00    +0.154 HD
ENDBRANCH   7  15
BRANCH   1  23
ATOM     23  C   UNL     1      31.108 -23.727 -16.911  0.00  0.00    +0.098 C 
ATOM     24  C   UNL     1      30.259 -22.480 -16.584  0.00  0.00    +0.022 C 
ATOM     25  C   UNL     1      30.707 -24.787 -15.868  0.00  0.00    +0.022 C 
ATOM     26  C   UNL     1      29.526 -22.805 -15.288  0.00  0.00    +0.002 C 
ATOM     27  C   UNL     1      29.364 -24.314 -15.333  0.00  0.00    +0.002 C 
ENDBRANCH   1  23
TORSDOF 2
ENDMDL
MODEL 9
REMARK VINA RESULT:      -9.8      1.623      6.371
REMARK  Name = 24905142
REMARK  2 active torsions:
REMARK  status: ('A' for Active; 'I' for Inactive)
REMARK    1  A    between atoms: N_1  and  C_20
REMARK    2  A    between atoms: C_7  and  C_12
REMARK                            x       y       z     vdW  Elec       q    Type
REMARK                         _______ _______ _______ _____ _____    ______ ____
ROOT
ATOM      1  N   UNL     1      35.323 -24.447 -15.357  0.00  0.00    -0.200 N 
ATOM      2  N   UNL     1      35.864 -23.764 -16.384  0.00  0.00    -0.181 NA
ATOM      3  N   UNL     1      33.157 -24.918 -14.385  0.00  0.00    -0.232 NA
ATOM      4  N   UNL     1      31.357 -23.831 -15.622  0.00  0.00    -0.234 NA
ATOM      5  C   UNL     1      33.965 -24.349 -15.293  0.00  0.00    +0.137 C 
ATOM      6  C   UNL     1      33.590 -23.543 -16.353  0.00  0.00    +0.150 C 
ATOM      7  C   UNL     1      34.803 -23.215 -16.986  0.00  0.00    +0.091 C 
ATOM      8  C   UNL     1      32.231 -23.289 -16.504  0.00  0.00    +0.112 C 
ATOM      9  C   UNL     1      31.867 -24.602 -14.631  0.00  0.00    +0.252 C 
ATOM     10  N   UNL     1      31.750 -22.482 -17.550  0.00  0.00    -0.346 N 
ATOM     11  H   UNL     1      30.783 -22.314 -17.639  0.00  0.00    +0.143 HD
ATOM     12  H   UNL     1      32.379 -22.085 -18.195  0.00  0.00    +0.143 HD
ENDROOT
BRANCH   7  15
ATOM     13  N   UNL     1      36.554 -21.214 -19.603  0.00  0.00    -0.229 NA
ATOM     14  N   UNL     1      35.481 -20.080 -21.437  0.00  0.00    -0.297 N 
ATOM     15  C   UNL     1      34.989 -22.396 -18.148  0.00  0.00    +0.035 C 
ATOM     16  C   UNL     1      33.895 -21.997 -18.915  0.00  0.00    +0.006 C 
ATOM     17  C   UNL     1      36.258 -21.984 -18.530  0.00  0.00    +0.102 C 
ATOM     18  C   UNL     1      34.142 -21.195 -20.041  0.00  0.00    +0.033 C 
ATOM     19  C   UNL     1      35.465 -20.856 -20.309  0.00  0.00    +0.132 C 
ATOM     20  C   UNL     1      33.350 -20.593 -21.054  0.00  0.00    +0.019 C 
ATOM     21  C   UNL     1      34.201 -19.914 -21.899  0.00  0.00    +0.063 C 
ATOM     22  H   UNL     1      36.288 -19.700 -21.853  0.00  0.00    +0.154 HD
ENDBRANCH   7  15
BRANCH   1  23
ATOM     23  C   UNL     1      36.223 -25.220 -14.420  0.00  0.00    +0.098 C 
ATOM     24  C   UNL     1      37.381 -24.396 -13.818  0.00  0.00    +0.022 C 
ATOM     25  C   UNL     1      36.886 -26.431 -15.102  0.00  0.00    +0.022 C 
ATOM     26  C   UNL     1      38.662 -25.065 -14.303  0.00  0.00    +0.002 C 
ATOM     27  C   UNL     1      38.267 -26.521 -14.472  0.00  0.00    +0.002 C 
ENDBRANCH   1  23
TORSDOF 2
ENDMDL
