MODEL 1
REMARK VINA RESULT:     -12.0      0.000      0.000
REMARK  Name = 9976892
REMARK  4 active torsions:
REMARK  status: ('A' for Active; 'I' for Inactive)
REMARK    1  A    between atoms: N_1  and  C_13
REMARK    2  A    between atoms: C_10  and  O_17
REMARK    3  A    between atoms: O_17  and  C_20
REMARK    4  A    between atoms: C_19  and  N_25
REMARK                            x       y       z     vdW  Elec       q    Type
REMARK                         _______ _______ _______ _____ _____    ______ ____
ROOT
ATOM      1  N   UNL     1      32.793 -12.863 -21.222  0.00  0.00    +0.389 N 
ATOM      2  C   UNL     1      33.285 -14.107 -20.614  0.00  0.00    -0.073 C 
ATOM      3  C   UNL     1      32.518 -12.988 -22.663  0.00  0.00    -0.073 C 
ATOM      4  C   UNL     1      34.712 -14.469 -21.039  0.00  0.00    +0.003 C 
ATOM      5  C   UNL     1      33.784 -13.114 -23.515  0.00  0.00    +0.003 C 
ATOM      6  C   UNL     1      34.783 -15.155 -22.380  0.00  0.00    -0.025 C 
ATOM      7  C   UNL     1      34.344 -14.513 -23.551  0.00  0.00    -0.028 C 
ATOM      8  C   UNL     1      35.310 -16.453 -22.465  0.00  0.00    +0.033 C 
ATOM      9  C   UNL     1      34.443 -15.185 -24.782  0.00  0.00    -0.002 C 
ATOM     10  C   UNL     1      35.399 -17.111 -23.691  0.00  0.00    +0.147 C 
ATOM     11  C   UNL     1      34.966 -16.476 -24.850  0.00  0.00    +0.037 C 
ATOM     12  H   UNL     1      33.525 -12.160 -21.117  0.00  0.00    -0.080 HD
ENDROOT
BRANCH   1  13
ATOM     13  C   UNL     1      31.574 -12.484 -20.554  0.00  0.00    -0.058 C 
ATOM     14  C   UNL     1      31.876 -11.804 -19.204  0.00  0.00    -0.021 C 
ATOM     15  C   UNL     1      31.079 -11.110 -21.050  0.00  0.00    -0.021 C 
ATOM     16  C   UNL     1      30.795 -10.766 -19.573  0.00  0.00    -0.004 C 
ENDBRANCH   1  13
BRANCH  10  17
ATOM     17  O   UNL     1      35.912 -18.370 -23.754  0.00  0.00    -0.436 OA
BRANCH  17  20
ATOM     18  N   UNL     1      37.207 -19.041 -21.950  0.00  0.00    -0.209 NA
ATOM     19  C   UNL     1      36.249 -20.469 -20.249  0.00  0.00    +0.073 C 
ATOM     20  C   UNL     1      36.015 -19.082 -22.571  0.00  0.00    +0.230 C 
ATOM     21  C   UNL     1      35.037 -20.478 -20.931  0.00  0.00    +0.021 C 
ATOM     22  C   UNL     1      37.294 -19.742 -20.796  0.00  0.00    +0.117 C 
ATOM     23  C   UNL     1      34.908 -19.771 -22.120  0.00  0.00    +0.059 C 
BRANCH  19  25
ATOM     24  O   UNL     1      34.679 -22.825 -19.103  0.00  0.00    -0.275 OA
ATOM     25  N   UNL     1      36.412 -21.185 -19.027  0.00  0.00    -0.257 N 
ATOM     26  C   UNL     1      37.506 -22.026 -17.141  0.00  0.00    +0.031 C 
ATOM     27  C   UNL     1      37.398 -20.807 -18.033  0.00  0.00    +0.099 C 
ATOM     28  C   UNL     1      36.113 -22.621 -17.189  0.00  0.00    +0.087 C 
ATOM     29  C   UNL     1      35.627 -22.264 -18.575  0.00  0.00    +0.229 C 
ENDBRANCH  19  25
ENDBRANCH  17  20
ENDBRANCH  10  17
TORSDOF 4
ENDMDL
MODEL 2
REMARK VINA RESULT:     -11.4      4.794     10.873
REMARK  Name = 9976892
REMARK  4 active torsions:
REMARK  status: ('A' for Active; 'I' for Inactive)
REMARK    1  A    between atoms: N_1  and  C_13
REMARK    2  A    between atoms: C_10  and  O_17
REMARK    3  A    between atoms: O_17  and  C_20
REMARK    4  A    between atoms: C_19  and  N_25
REMARK                            x       y       z     vdW  Elec       q    Type
REMARK                         _______ _______ _______ _____ _____    ______ ____
ROOT
ATOM      1  N   UNL     1      37.729 -24.682 -13.860  0.00  0.00    +0.389 N 
ATOM      2  C   UNL     1      37.742 -24.253 -15.266  0.00  0.00    -0.073 C 
ATOM      3  C   UNL     1      36.442 -25.257 -13.437  0.00  0.00    -0.073 C 
ATOM      4  C   UNL     1      36.892 -23.005 -15.528  0.00  0.00    +0.003 C 
ATOM      5  C   UNL     1      35.323 -24.219 -13.316  0.00  0.00    +0.003 C 
ATOM      6  C   UNL     1      35.422 -23.302 -15.683  0.00  0.00    -0.025 C 
ATOM      7  C   UNL     1      34.679 -23.876 -14.636  0.00  0.00    -0.028 C 
ATOM      8  C   UNL     1      34.777 -22.986 -16.890  0.00  0.00    +0.033 C 
ATOM      9  C   UNL     1      33.308 -24.121 -14.820  0.00  0.00    -0.002 C 
ATOM     10  C   UNL     1      33.416 -23.239 -17.061  0.00  0.00    +0.147 C 
ATOM     11  C   UNL     1      32.682 -23.805 -16.025  0.00  0.00    +0.037 C 
ATOM     12  H   UNL     1      37.891 -23.854 -13.286  0.00  0.00    -0.080 HD
ENDROOT
BRANCH   1  13
ATOM     13  C   UNL     1      38.756 -25.676 -13.682  0.00  0.00    -0.058 C 
ATOM     14  C   UNL     1      39.016 -26.441 -14.995  0.00  0.00    -0.021 C 
ATOM     15  C   UNL     1      40.158 -25.056 -13.855  0.00  0.00    -0.021 C 
ATOM     16  C   UNL     1      40.522 -26.302 -14.689  0.00  0.00    -0.004 C 
ENDBRANCH   1  13
BRANCH  10  17
ATOM     17  O   UNL     1      32.808 -22.928 -18.237  0.00  0.00    -0.436 OA
BRANCH  17  20
ATOM     18  N   UNL     1      32.795 -21.158 -19.737  0.00  0.00    -0.209 NA
ATOM     19  C   UNL     1      34.834 -20.538 -20.881  0.00  0.00    +0.073 C 
ATOM     20  C   UNL     1      33.502 -22.126 -19.128  0.00  0.00    +0.230 C 
ATOM     21  C   UNL     1      35.519 -21.554 -20.224  0.00  0.00    +0.021 C 
ATOM     22  C   UNL     1      33.485 -20.382 -20.605  0.00  0.00    +0.117 C 
ATOM     23  C   UNL     1      34.845 -22.373 -19.325  0.00  0.00    +0.059 C 
BRANCH  19  25
ATOM     24  O   UNL     1      37.450 -18.982 -20.627  0.00  0.00    -0.275 OA
ATOM     25  N   UNL     1      35.498 -19.683 -21.809  0.00  0.00    -0.257 N 
ATOM     26  C   UNL     1      36.096 -18.793 -23.885  0.00  0.00    +0.031 C 
ATOM     27  C   UNL     1      34.927 -19.348 -23.099  0.00  0.00    +0.099 C 
ATOM     28  C   UNL     1      36.957 -18.141 -22.821  0.00  0.00    +0.087 C 
ATOM     29  C   UNL     1      36.710 -18.996 -21.599  0.00  0.00    +0.229 C 
ENDBRANCH  19  25
ENDBRANCH  17  20
ENDBRANCH  10  17
TORSDOF 4
ENDMDL
MODEL 3
REMARK VINA RESULT:     -11.4      2.757     10.133
REMARK  Name = 9976892
REMARK  4 active torsions:
REMARK  status: ('A' for Active; 'I' for Inactive)
REMARK    1  A    between atoms: N_1  and  C_13
REMARK    2  A    between atoms: C_10  and  O_17
REMARK    3  A    between atoms: O_17  and  C_20
REMARK    4  A    between atoms: C_19  and  N_25
REMARK                            x       y       z     vdW  Elec       q    Type
REMARK                         _______ _______ _______ _____ _____    ______ ____
ROOT
ATOM      1  N   UNL     1      36.289 -24.131 -14.161  0.00  0.00    +0.389 N 
ATOM      2  C   UNL     1      37.391 -23.706 -15.036  0.00  0.00    -0.073 C 
ATOM      3  C   UNL     1      35.068 -24.496 -14.896  0.00  0.00    -0.073 C 
ATOM      4  C   UNL     1      37.158 -22.339 -15.688  0.00  0.00    +0.003 C 
ATOM      5  C   UNL     1      34.349 -23.293 -15.516  0.00  0.00    +0.003 C 
ATOM      6  C   UNL     1      36.276 -22.399 -16.910  0.00  0.00    -0.025 C 
ATOM      7  C   UNL     1      34.947 -22.851 -16.828  0.00  0.00    -0.028 C 
ATOM      8  C   UNL     1      36.785 -21.983 -18.150  0.00  0.00    +0.033 C 
ATOM      9  C   UNL     1      34.157 -22.875 -17.990  0.00  0.00    -0.002 C 
ATOM     10  C   UNL     1      35.991 -22.017 -19.297  0.00  0.00    +0.147 C 
ATOM     11  C   UNL     1      34.677 -22.462 -19.216  0.00  0.00    +0.037 C 
ATOM     12  H   UNL     1      36.053 -23.340 -13.561  0.00  0.00    -0.080 HD
ENDROOT
BRANCH   1  13
ATOM     13  C   UNL     1      36.728 -25.275 -13.404  0.00  0.00    -0.058 C 
ATOM     14  C   UNL     1      37.881 -26.002 -14.126  0.00  0.00    -0.021 C 
ATOM     15  C   UNL     1      37.759 -24.864 -12.333  0.00  0.00    -0.021 C 
ATOM     16  C   UNL     1      38.573 -26.106 -12.750  0.00  0.00    -0.004 C 
ENDBRANCH   1  13
BRANCH  10  17
ATOM     17  O   UNL     1      36.502 -21.612 -20.491  0.00  0.00    -0.436 OA
BRANCH  17  20
ATOM     18  N   UNL     1      37.112 -19.413 -20.912  0.00  0.00    -0.209 NA
ATOM     19  C   UNL     1      35.491 -17.873 -21.835  0.00  0.00    +0.073 C 
ATOM     20  C   UNL     1      36.150 -20.352 -20.947  0.00  0.00    +0.230 C 
ATOM     21  C   UNL     1      34.533 -18.881 -21.850  0.00  0.00    +0.021 C 
ATOM     22  C   UNL     1      36.755 -18.188 -21.361  0.00  0.00    +0.117 C 
ATOM     23  C   UNL     1      34.861 -20.153 -21.397  0.00  0.00    +0.059 C 
BRANCH  19  25
ATOM     24  O   UNL     1      35.434 -16.716 -24.662  0.00  0.00    -0.275 OA
ATOM     25  N   UNL     1      35.184 -16.559 -22.293  0.00  0.00    -0.257 N 
ATOM     26  C   UNL     1      34.244 -14.419 -22.255  0.00  0.00    +0.031 C 
ATOM     27  C   UNL     1      34.898 -15.468 -21.380  0.00  0.00    +0.099 C 
ATOM     28  C   UNL     1      34.901 -14.627 -23.605  0.00  0.00    +0.087 C 
ATOM     29  C   UNL     1      35.190 -16.111 -23.628  0.00  0.00    +0.229 C 
ENDBRANCH  19  25
ENDBRANCH  17  20
ENDBRANCH  10  17
TORSDOF 4
ENDMDL
MODEL 4
REMARK VINA RESULT:     -11.2      2.743      3.990
REMARK  Name = 9976892
REMARK  4 active torsions:
REMARK  status: ('A' for Active; 'I' for Inactive)
REMARK    1  A    between atoms: N_1  and  C_13
REMARK    2  A    between atoms: C_10  and  O_17
REMARK    3  A    between atoms: O_17  and  C_20
REMARK    4  A    between atoms: C_19  and  N_25
REMARK                            x       y       z     vdW  Elec       q    Type
REMARK                         _______ _______ _______ _____ _____    ______ ____
ROOT
ATOM      1  N   UNL     1      32.632  -8.797 -22.685  0.00  0.00    +0.389 N 
ATOM      2  C   UNL     1      33.790  -9.252 -23.468  0.00  0.00    -0.073 C 
ATOM      3  C   UNL     1      32.235  -9.743 -21.630  0.00  0.00    -0.073 C 
ATOM      4  C   UNL     1      33.473 -10.431 -24.394  0.00  0.00    +0.003 C 
ATOM      5  C   UNL     1      31.592 -11.023 -22.172  0.00  0.00    +0.003 C 
ATOM      6  C   UNL     1      33.487 -11.765 -23.692  0.00  0.00    -0.025 C 
ATOM      7  C   UNL     1      32.597 -12.045 -22.640  0.00  0.00    -0.028 C 
ATOM      8  C   UNL     1      34.396 -12.753 -24.104  0.00  0.00    +0.033 C 
ATOM      9  C   UNL     1      32.636 -13.308 -22.025  0.00  0.00    -0.002 C 
ATOM     10  C   UNL     1      34.427 -14.001 -23.481  0.00  0.00    +0.147 C 
ATOM     11  C   UNL     1      33.546 -14.278 -22.442  0.00  0.00    +0.037 C 
ATOM     12  H   UNL     1      31.843  -8.714 -23.326  0.00  0.00    -0.080 HD
ENDROOT
BRANCH   1  13
ATOM     13  C   UNL     1      32.968  -7.539 -22.070  0.00  0.00    -0.058 C 
ATOM     14  C   UNL     1      33.524  -6.548 -23.112  0.00  0.00    -0.021 C 
ATOM     15  C   UNL     1      31.729  -6.625 -21.973  0.00  0.00    -0.021 C 
ATOM     16  C   UNL     1      32.638  -5.472 -22.449  0.00  0.00    -0.004 C 
ENDBRANCH   1  13
BRANCH  10  17
ATOM     17  O   UNL     1      35.315 -14.945 -23.893  0.00  0.00    -0.436 OA
BRANCH  17  20
ATOM     18  N   UNL     1      35.373 -16.091 -21.876  0.00  0.00    -0.209 NA
ATOM     19  C   UNL     1      35.352 -18.509 -21.867  0.00  0.00    +0.073 C 
ATOM     20  C   UNL     1      35.327 -16.155 -23.218  0.00  0.00    +0.230 C 
ATOM     21  C   UNL     1      35.305 -18.520 -23.257  0.00  0.00    +0.021 C 
ATOM     22  C   UNL     1      35.385 -17.279 -21.229  0.00  0.00    +0.117 C 
ATOM     23  C   UNL     1      35.292 -17.319 -23.957  0.00  0.00    +0.059 C 
BRANCH  19  25
ATOM     24  O   UNL     1      33.063 -20.334 -20.996  0.00  0.00    -0.275 OA
ATOM     25  N   UNL     1      35.367 -19.725 -21.122  0.00  0.00    -0.257 N 
ATOM     26  C   UNL     1      36.227 -21.708 -20.236  0.00  0.00    +0.031 C 
ATOM     27  C   UNL     1      36.587 -20.274 -20.561  0.00  0.00    +0.099 C 
ATOM     28  C   UNL     1      34.753 -21.633 -19.891  0.00  0.00    +0.087 C 
ATOM     29  C   UNL     1      34.250 -20.501 -20.758  0.00  0.00    +0.229 C 
ENDBRANCH  19  25
ENDBRANCH  17  20
ENDBRANCH  10  17
TORSDOF 4
ENDMDL
MODEL 5
REMARK VINA RESULT:     -10.7      4.449     10.777
REMARK  Name = 9976892
REMARK  4 active torsions:
REMARK  status: ('A' for Active; 'I' for Inactive)
REMARK    1  A    between atoms: N_1  and  C_13
REMARK    2  A    between atoms: C_10  and  O_17
REMARK    3  A    between atoms: O_17  and  C_20
REMARK    4  A    between atoms: C_19  and  N_25
REMARK                            x       y       z     vdW  Elec       q    Type
REMARK                         _______ _______ _______ _____ _____    ______ ____
ROOT
ATOM      1  N   UNL     1      35.480 -16.336 -23.653  0.00  0.00    +0.389 N 
ATOM      2  C   UNL     1      34.641 -15.270 -24.220  0.00  0.00    -0.073 C 
ATOM      3  C   UNL     1      34.992 -16.834 -22.357  0.00  0.00    -0.073 C 
ATOM      4  C   UNL     1      34.750 -13.942 -23.464  0.00  0.00    +0.003 C 
ATOM      5  C   UNL     1      35.176 -15.833 -21.212  0.00  0.00    +0.003 C 
ATOM      6  C   UNL     1      33.895 -13.886 -22.223  0.00  0.00    -0.025 C 
ATOM      7  C   UNL     1      34.097 -14.781 -21.157  0.00  0.00    -0.028 C 
ATOM      8  C   UNL     1      32.887 -12.914 -22.122  0.00  0.00    +0.033 C 
ATOM      9  C   UNL     1      33.286 -14.682 -20.014  0.00  0.00    -0.002 C 
ATOM     10  C   UNL     1      32.087 -12.830 -20.983  0.00  0.00    +0.147 C 
ATOM     11  C   UNL     1      32.287 -13.713 -19.929  0.00  0.00    +0.037 C 
ATOM     12  H   UNL     1      36.408 -15.941 -23.492  0.00  0.00    -0.080 HD
ENDROOT
BRANCH   1  13
ATOM     13  C   UNL     1      35.508 -17.433 -24.584  0.00  0.00    -0.058 C 
ATOM     14  C   UNL     1      34.955 -18.719 -23.938  0.00  0.00    -0.021 C 
ATOM     15  C   UNL     1      34.250 -17.431 -25.476  0.00  0.00    -0.021 C 
ATOM     16  C   UNL     1      34.182 -18.956 -25.252  0.00  0.00    -0.004 C 
ENDBRANCH   1  13
BRANCH  10  17
ATOM     17  O   UNL     1      31.114 -11.882 -20.903  0.00  0.00    -0.436 OA
BRANCH  17  20
ATOM     18  N   UNL     1      31.039 -10.382 -22.672  0.00  0.00    -0.209 NA
ATOM     19  C   UNL     1      31.951  -8.159 -22.401  0.00  0.00    +0.073 C 
ATOM     20  C   UNL     1      31.401 -10.621 -21.399  0.00  0.00    +0.230 C 
ATOM     21  C   UNL     1      32.305  -8.457 -21.090  0.00  0.00    +0.021 C 
ATOM     22  C   UNL     1      31.326  -9.147 -23.144  0.00  0.00    +0.117 C 
ATOM     23  C   UNL     1      32.027  -9.715 -20.568  0.00  0.00    +0.059 C 
BRANCH  19  25
ATOM     24  O   UNL     1      30.838  -5.403 -21.696  0.00  0.00    -0.275 OA
ATOM     25  N   UNL     1      32.223  -6.877 -22.963  0.00  0.00    -0.257 N 
ATOM     26  C   UNL     1      33.420  -5.224 -24.101  0.00  0.00    +0.031 C 
ATOM     27  C   UNL     1      33.098  -6.704 -24.107  0.00  0.00    +0.099 C 
ATOM     28  C   UNL     1      32.169  -4.594 -23.524  0.00  0.00    +0.087 C 
ATOM     29  C   UNL     1      31.651  -5.650 -22.575  0.00  0.00    +0.229 C 
ENDBRANCH  19  25
ENDBRANCH  17  20
ENDBRANCH  10  17
TORSDOF 4
ENDMDL
MODEL 6
REMARK VINA RESULT:     -10.6      3.240      8.979
REMARK  Name = 9976892
REMARK  4 active torsions:
REMARK  status: ('A' for Active; 'I' for Inactive)
REMARK    1  A    between atoms: N_1  and  C_13
REMARK    2  A    between atoms: C_10  and  O_17
REMARK    3  A    between atoms: O_17  and  C_20
REMARK    4  A    between atoms: C_19  and  N_25
REMARK                            x       y       z     vdW  Elec       q    Type
REMARK                         _______ _______ _______ _____ _____    ______ ____
ROOT
ATOM      1  N   UNL     1      31.967 -23.445 -15.842  0.00  0.00    +0.389 N 
ATOM      2  C   UNL     1      32.006 -23.193 -17.290  0.00  0.00    -0.073 C 
ATOM      3  C   UNL     1      33.039 -22.758 -15.103  0.00  0.00    -0.073 C 
ATOM      4  C   UNL     1      33.180 -23.881 -17.996  0.00  0.00    +0.003 C 
ATOM      5  C   UNL     1      34.427 -23.356 -15.350  0.00  0.00    +0.003 C 
ATOM      6  C   UNL     1      34.477 -23.121 -17.879  0.00  0.00    -0.025 C 
ATOM      7  C   UNL     1      35.067 -22.873 -16.627  0.00  0.00    -0.028 C 
ATOM      8  C   UNL     1      35.118 -22.665 -19.042  0.00  0.00    +0.033 C 
ATOM      9  C   UNL     1      36.285 -22.174 -16.567  0.00  0.00    -0.002 C 
ATOM     10  C   UNL     1      36.324 -21.968 -18.968  0.00  0.00    +0.147 C 
ATOM     11  C   UNL     1      36.908 -21.724 -17.731  0.00  0.00    +0.037 C 
ATOM     12  H   UNL     1      32.100 -24.447 -15.702  0.00  0.00    -0.080 HD
ENDROOT
BRANCH   1  13
ATOM     13  C   UNL     1      30.697 -22.988 -15.338  0.00  0.00    -0.058 C 
ATOM     14  C   UNL     1      29.763 -22.574 -16.493  0.00  0.00    -0.021 C 
ATOM     15  C   UNL     1      29.744 -24.176 -15.094  0.00  0.00    -0.021 C 
ATOM     16  C   UNL     1      28.637 -23.323 -15.749  0.00  0.00    -0.004 C 
ENDBRANCH   1  13
BRANCH  10  17
ATOM     17  O   UNL     1      36.929 -21.532 -20.106  0.00  0.00    -0.436 OA
BRANCH  17  20
ATOM     18  N   UNL     1      37.434 -19.384 -20.824  0.00  0.00    -0.209 NA
ATOM     19  C   UNL     1      35.681 -17.969 -21.702  0.00  0.00    +0.073 C 
ATOM     20  C   UNL     1      36.496 -20.332 -20.646  0.00  0.00    +0.230 C 
ATOM     21  C   UNL     1      34.751 -18.983 -21.499  0.00  0.00    +0.021 C 
ATOM     22  C   UNL     1      36.998 -18.217 -21.351  0.00  0.00    +0.117 C 
ATOM     23  C   UNL     1      35.160 -20.196 -20.958  0.00  0.00    +0.059 C 
BRANCH  19  25
ATOM     24  O   UNL     1      35.439 -17.066 -24.611  0.00  0.00    -0.275 OA
ATOM     25  N   UNL     1      35.291 -16.713 -22.255  0.00  0.00    -0.257 N 
ATOM     26  C   UNL     1      34.255 -14.621 -22.352  0.00  0.00    +0.031 C 
ATOM     27  C   UNL     1      34.998 -15.560 -21.425  0.00  0.00    +0.099 C 
ATOM     28  C   UNL     1      34.858 -14.917 -23.710  0.00  0.00    +0.087 C 
ATOM     29  C   UNL     1      35.215 -16.384 -23.622  0.00  0.00    +0.229 C 
ENDBRANCH  19  25
ENDBRANCH  17  20
ENDBRANCH  10  17
TORSDOF 4
ENDMDL
MODEL 7
REMARK VINA RESULT:     -10.0      2.201      8.694
REMARK  Name = 9976892
REMARK  4 active torsions:
REMARK  status: ('A' for Active; 'I' for Inactive)
REMARK    1  A    between atoms: N_1  and  C_13
REMARK    2  A    between atoms: C_10  and  O_17
REMARK    3  A    between atoms: O_17  and  C_20
REMARK    4  A    between atoms: C_19  and  N_25
REMARK                            x       y       z     vdW  Elec       q    Type
REMARK                         _______ _______ _______ _____ _____    ______ ____
ROOT
ATOM      1  N   UNL     1      34.036 -22.168 -18.808  0.00  0.00    +0.389 N 
ATOM      2  C   UNL     1      33.291 -21.152 -19.565  0.00  0.00    -0.073 C 
ATOM      3  C   UNL     1      35.439 -21.798 -18.559  0.00  0.00    -0.073 C 
ATOM      4  C   UNL     1      33.715 -21.057 -21.035  0.00  0.00    +0.003 C 
ATOM      5  C   UNL     1      36.310 -21.839 -19.819  0.00  0.00    +0.003 C 
ATOM      6  C   UNL     1      34.959 -20.232 -21.248  0.00  0.00    -0.025 C 
ATOM      7  C   UNL     1      36.187 -20.602 -20.672  0.00  0.00    -0.028 C 
ATOM      8  C   UNL     1      34.895 -19.080 -22.047  0.00  0.00    +0.033 C 
ATOM      9  C   UNL     1      37.324 -19.812 -20.911  0.00  0.00    -0.002 C 
ATOM     10  C   UNL     1      36.031 -18.301 -22.272  0.00  0.00    +0.147 C 
ATOM     11  C   UNL     1      37.245 -18.668 -21.704  0.00  0.00    +0.037 C 
ATOM     12  H   UNL     1      34.046 -23.021 -19.368  0.00  0.00    -0.080 HD
ENDROOT
BRANCH   1  13
ATOM     13  C   UNL     1      33.381 -22.358 -17.539  0.00  0.00    -0.058 C 
ATOM     14  C   UNL     1      32.584 -23.678 -17.523  0.00  0.00    -0.021 C 
ATOM     15  C   UNL     1      34.336 -23.010 -16.519  0.00  0.00    -0.021 C 
ATOM     16  C   UNL     1      33.156 -23.916 -16.110  0.00  0.00    -0.004 C 
ENDBRANCH   1  13
BRANCH  10  17
ATOM     17  O   UNL     1      35.949 -17.187 -23.049  0.00  0.00    -0.436 OA
BRANCH  17  20
ATOM     18  N   UNL     1      34.586 -15.370 -23.524  0.00  0.00    -0.209 NA
ATOM     19  C   UNL     1      33.650 -14.066 -21.715  0.00  0.00    +0.073 C 
ATOM     20  C   UNL     1      35.175 -16.135 -22.587  0.00  0.00    +0.230 C 
ATOM     21  C   UNL     1      34.280 -14.889 -20.788  0.00  0.00    +0.021 C 
ATOM     22  C   UNL     1      33.833 -14.347 -23.060  0.00  0.00    +0.117 C 
ATOM     23  C   UNL     1      35.063 -15.950 -21.225  0.00  0.00    +0.059 C 
BRANCH  19  25
ATOM     24  O   UNL     1      32.877 -11.497 -23.174  0.00  0.00    -0.275 OA
ATOM     25  N   UNL     1      32.841 -12.969 -21.296  0.00  0.00    -0.257 N 
ATOM     26  C   UNL     1      31.203 -11.830 -20.081  0.00  0.00    +0.031 C 
ATOM     27  C   UNL     1      32.281 -12.886 -19.961  0.00  0.00    +0.099 C 
ATOM     28  C   UNL     1      31.742 -10.896 -21.145  0.00  0.00    +0.087 C 
ATOM     29  C   UNL     1      32.543 -11.812 -22.042  0.00  0.00    +0.229 C 
ENDBRANCH  19  25
ENDBRANCH  17  20
ENDBRANCH  10  17
TORSDOF 4
ENDMDL
MODEL 8
REMARK VINA RESULT:     -10.0      1.550      2.150
REMARK  Name = 9976892
REMARK  4 active torsions:
REMARK  status: ('A' for Active; 'I' for Inactive)
REMARK    1  A    between atoms: N_1  and  C_13
REMARK    2  A    between atoms: C_10  and  O_17
REMARK    3  A    between atoms: O_17  and  C_20
REMARK    4  A    between atoms: C_19  and  N_25
REMARK                            x       y       z     vdW  Elec       q    Type
REMARK                         _______ _______ _______ _____ _____    ______ ____
ROOT
ATOM      1  N   UNL     1      32.767 -11.524 -21.850  0.00  0.00    +0.389 N 
ATOM      2  C   UNL     1      33.101 -12.888 -21.413  0.00  0.00    -0.073 C 
ATOM      3  C   UNL     1      32.455 -11.433 -23.285  0.00  0.00    -0.073 C 
ATOM      4  C   UNL     1      34.461 -13.375 -21.924  0.00  0.00    +0.003 C 
ATOM      5  C   UNL     1      33.681 -11.614 -24.186  0.00  0.00    +0.003 C 
ATOM      6  C   UNL     1      34.419 -13.892 -23.340  0.00  0.00    -0.025 C 
ATOM      7  C   UNL     1      34.050 -13.059 -24.410  0.00  0.00    -0.028 C 
ATOM      8  C   UNL     1      34.769 -15.227 -23.598  0.00  0.00    +0.033 C 
ATOM      9  C   UNL     1      34.040 -13.580 -25.715  0.00  0.00    -0.002 C 
ATOM     10  C   UNL     1      34.751 -15.733 -24.898  0.00  0.00    +0.147 C 
ATOM     11  C   UNL     1      34.387 -14.909 -25.956  0.00  0.00    +0.037 C 
ATOM     12  H   UNL     1      33.587 -10.940 -21.683  0.00  0.00    -0.080 HD
ENDROOT
BRANCH   1  13
ATOM     13  C   UNL     1      31.620 -11.078 -21.102  0.00  0.00    -0.058 C 
ATOM     14  C   UNL     1      31.669 -11.603 -19.653  0.00  0.00    -0.021 C 
ATOM     15  C   UNL     1      31.858  -9.670 -20.519  0.00  0.00    -0.021 C 
ATOM     16  C   UNL     1      31.233 -10.192 -19.208  0.00  0.00    -0.004 C 
ENDBRANCH   1  13
BRANCH  10  17
ATOM     17  O   UNL     1      35.092 -17.030 -25.129  0.00  0.00    -0.436 OA
BRANCH  17  20
ATOM     18  N   UNL     1      34.495 -19.070 -24.198  0.00  0.00    -0.209 NA
ATOM     19  C   UNL     1      35.164 -19.600 -21.936  0.00  0.00    +0.073 C 
ATOM     20  C   UNL     1      35.123 -17.890 -24.044  0.00  0.00    +0.230 C 
ATOM     21  C   UNL     1      35.799 -18.367 -21.828  0.00  0.00    +0.021 C 
ATOM     22  C   UNL     1      34.532 -19.901 -23.131  0.00  0.00    +0.117 C 
ATOM     23  C   UNL     1      35.782 -17.485 -22.902  0.00  0.00    +0.059 C 
BRANCH  19  25
ATOM     24  O   UNL     1      32.860 -21.093 -20.598  0.00  0.00    -0.275 OA
ATOM     25  N   UNL     1      35.164 -20.524 -20.850  0.00  0.00    -0.257 N 
ATOM     26  C   UNL     1      36.008 -22.125 -19.372  0.00  0.00    +0.031 C 
ATOM     27  C   UNL     1      36.370 -20.857 -20.117  0.00  0.00    +0.099 C 
ATOM     28  C   UNL     1      34.525 -21.965 -19.105  0.00  0.00    +0.087 C 
ATOM     29  C   UNL     1      34.041 -21.163 -20.291  0.00  0.00    +0.229 C 
ENDBRANCH  19  25
ENDBRANCH  17  20
ENDBRANCH  10  17
TORSDOF 4
ENDMDL
MODEL 9
REMARK VINA RESULT:     -10.0      3.579      8.945
REMARK  Name = 9976892
REMARK  4 active torsions:
REMARK  status: ('A' for Active; 'I' for Inactive)
REMARK    1  A    between atoms: N_1  and  C_13
REMARK    2  A    between atoms: C_10  and  O_17
REMARK    3  A    between atoms: O_17  and  C_20
REMARK    4  A    between atoms: C_19  and  N_25
REMARK                            x       y       z     vdW  Elec       q    Type
REMARK                         _______ _______ _______ _____ _____    ______ ____
ROOT
ATOM      1  N   UNL     1      31.865 -23.253 -16.365  0.00  0.00    +0.389 N 
ATOM      2  C   UNL     1      32.124 -22.559 -17.635  0.00  0.00    -0.073 C 
ATOM      3  C   UNL     1      32.910 -23.026 -15.354  0.00  0.00    -0.073 C 
ATOM      4  C   UNL     1      33.282 -23.166 -18.435  0.00  0.00    +0.003 C 
ATOM      5  C   UNL     1      34.231 -23.732 -15.676  0.00  0.00    +0.003 C 
ATOM      6  C   UNL     1      34.640 -22.709 -17.965  0.00  0.00    -0.025 C 
ATOM      7  C   UNL     1      35.089 -22.977 -16.659  0.00  0.00    -0.028 C 
ATOM      8  C   UNL     1      35.479 -22.014 -18.850  0.00  0.00    +0.033 C 
ATOM      9  C   UNL     1      36.368 -22.544 -16.270  0.00  0.00    -0.002 C 
ATOM     10  C   UNL     1      36.745 -21.587 -18.449  0.00  0.00    +0.147 C 
ATOM     11  C   UNL     1      37.189 -21.853 -17.159  0.00  0.00    +0.037 C 
ATOM     12  H   UNL     1      31.849 -24.254 -16.561  0.00  0.00    -0.080 HD
ENDROOT
BRANCH   1  13
ATOM     13  C   UNL     1      30.610 -22.781 -15.841  0.00  0.00    -0.058 C 
ATOM     14  C   UNL     1      29.493 -22.897 -16.898  0.00  0.00    -0.021 C 
ATOM     15  C   UNL     1      29.884 -23.898 -15.062  0.00  0.00    -0.021 C 
ATOM     16  C   UNL     1      28.591 -23.446 -15.773  0.00  0.00    -0.004 C 
ENDBRANCH   1  13
BRANCH  10  17
ATOM     17  O   UNL     1      37.544 -20.914 -19.321  0.00  0.00    -0.436 OA
BRANCH  17  20
ATOM     18  N   UNL     1      37.670 -19.274 -20.957  0.00  0.00    -0.209 NA
ATOM     19  C   UNL     1      35.761 -18.846 -22.378  0.00  0.00    +0.073 C 
ATOM     20  C   UNL     1      36.932 -20.221 -20.353  0.00  0.00    +0.230 C 
ATOM     21  C   UNL     1      35.041 -19.836 -21.720  0.00  0.00    +0.021 C 
ATOM     22  C   UNL     1      37.061 -18.605 -21.963  0.00  0.00    +0.117 C 
ATOM     23  C   UNL     1      35.633 -20.546 -20.681  0.00  0.00    +0.059 C 
BRANCH  19  25
ATOM     24  O   UNL     1      35.416 -15.832 -22.743  0.00  0.00    -0.275 OA
ATOM     25  N   UNL     1      35.180 -18.101 -23.447  0.00  0.00    -0.257 N 
ATOM     26  C   UNL     1      34.455 -17.643 -25.620  0.00  0.00    +0.031 C 
ATOM     27  C   UNL     1      34.549 -18.743 -24.584  0.00  0.00    +0.099 C 
ATOM     28  C   UNL     1      34.287 -16.388 -24.788  0.00  0.00    +0.087 C 
ATOM     29  C   UNL     1      35.058 -16.700 -23.525  0.00  0.00    +0.229 C 
ENDBRANCH  19  25
ENDBRANCH  17  20
ENDBRANCH  10  17
TORSDOF 4
ENDMDL
