MODEL 1
REMARK VINA RESULT:     -11.8      0.000      0.000
REMARK  Name = 16363
REMARK  6 active torsions:
REMARK  status: ('A' for Active; 'I' for Inactive)
REMARK    1  A    between atoms: N_1  and  C_19
REMARK    2  A    between atoms: C_2  and  N_9
REMARK    3  A    between atoms: C_19  and  C_20
REMARK    4  A    between atoms: C_20  and  C_21
REMARK    5  A    between atoms: C_21  and  C_23
REMARK    6  A    between atoms: C_23  and  C_25
REMARK                            x       y       z     vdW  Elec       q    Type
REMARK                         _______ _______ _______ _____ _____    ______ ____
ROOT
ATOM      1  N   UNL     1      34.432 -16.615 -24.683  0.00  0.00    +0.387 N 
ATOM      2  C   UNL     1      34.442 -13.700 -24.424  0.00  0.00    +0.086 C 
ATOM      3  C   UNL     1      33.459 -14.437 -25.334  0.00  0.00    -0.000 C 
ATOM      4  C   UNL     1      34.908 -14.622 -23.297  0.00  0.00    -0.000 C 
ATOM      5  C   UNL     1      34.038 -15.768 -25.817  0.00  0.00    -0.075 C 
ATOM      6  C   UNL     1      35.439 -15.948 -23.845  0.00  0.00    -0.075 C 
ATOM      7  H   UNL     1      33.606 -16.778 -24.109  0.00  0.00    -0.080 HD
ENDROOT
BRANCH   2   9
ATOM      8  O   UNL     1      34.642 -10.867 -25.439  0.00  0.00    -0.247 OA
ATOM      9  N   UNL     1      33.857 -12.495 -23.893  0.00  0.00    -0.282 N 
ATOM     10  N   UNL     1      33.262 -10.329 -23.595  0.00  0.00    -0.305 N 
ATOM     11  C   UNL     1      33.048 -12.420 -22.752  0.00  0.00    +0.079 A 
ATOM     12  C   UNL     1      34.008 -11.194 -24.445  0.00  0.00    +0.328 A 
ATOM     13  C   UNL     1      32.686 -11.086 -22.575  0.00  0.00    +0.076 A 
ATOM     14  C   UNL     1      32.620 -13.404 -21.886  0.00  0.00    +0.019 C 
ATOM     15  C   UNL     1      31.886 -10.669 -21.534  0.00  0.00    +0.019 C 
ATOM     16  C   UNL     1      31.806 -13.006 -20.820  0.00  0.00    +0.002 C 
ATOM     17  C   UNL     1      31.443 -11.653 -20.646  0.00  0.00    +0.002 C 
ATOM     18  H   UNL     1      33.167  -9.355 -23.710  0.00  0.00    +0.170 HD
ENDBRANCH   2   9
BRANCH   1  19
ATOM     19  C   UNL     1      34.936 -17.903 -25.158  0.00  0.00    -0.077 C 
BRANCH  19  20
ATOM     20  C   UNL     1      34.536 -19.018 -24.189  0.00  0.00    -0.015 C 
BRANCH  20  21
ATOM     21  C   UNL     1      35.685 -19.422 -23.262  0.00  0.00    +0.067 C 
BRANCH  21  23
ATOM     22  O   UNL     1      35.493 -17.975 -21.340  0.00  0.00    -0.291 OA
ATOM     23  C   UNL     1      35.416 -19.114 -21.796  0.00  0.00    +0.173 C 
BRANCH  23  25
ATOM     24  F   UNL     1      33.961 -23.303 -18.403  0.00  0.00    -0.204 F 
ATOM     25  C   UNL     1      35.027 -20.233 -20.891  0.00  0.00    +0.035 C 
ATOM     26  C   UNL     1      36.022 -20.967 -20.284  0.00  0.00    +0.005 C 
ATOM     27  C   UNL     1      33.689 -20.490 -20.694  0.00  0.00    +0.005 C 
ATOM     28  C   UNL     1      35.659 -22.013 -19.437  0.00  0.00    +0.030 C 
ATOM     29  C   UNL     1      33.326 -21.536 -19.846  0.00  0.00    +0.030 C 
ATOM     30  C   UNL     1      34.310 -22.298 -19.218  0.00  0.00    +0.140 C 
ENDBRANCH  23  25
ENDBRANCH  21  23
ENDBRANCH  20  21
ENDBRANCH  19  20
ENDBRANCH   1  19
TORSDOF 6
ENDMDL
MODEL 2
REMARK VINA RESULT:     -11.3      2.656      7.865
REMARK  Name = 16363
REMARK  6 active torsions:
REMARK  status: ('A' for Active; 'I' for Inactive)
REMARK    1  A    between atoms: N_1  and  C_19
REMARK    2  A    between atoms: C_2  and  N_9
REMARK    3  A    between atoms: C_19  and  C_20
REMARK    4  A    between atoms: C_20  and  C_21
REMARK    5  A    between atoms: C_21  and  C_23
REMARK    6  A    between atoms: C_23  and  C_25
REMARK                            x       y       z     vdW  Elec       q    Type
REMARK                         _______ _______ _______ _____ _____    ______ ____
ROOT
ATOM      1  N   UNL     1      35.355 -16.975 -24.720  0.00  0.00    +0.387 N 
ATOM      2  C   UNL     1      35.061 -18.682 -22.363  0.00  0.00    +0.086 C 
ATOM      3  C   UNL     1      35.173 -19.253 -23.777  0.00  0.00    -0.000 C 
ATOM      4  C   UNL     1      35.723 -17.306 -22.297  0.00  0.00    -0.000 C 
ATOM      5  C   UNL     1      34.653 -18.262 -24.819  0.00  0.00    -0.075 C 
ATOM      6  C   UNL     1      35.186 -16.378 -23.388  0.00  0.00    -0.075 C 
ATOM      7  H   UNL     1      36.350 -17.147 -24.864  0.00  0.00    -0.080 HD
ENDROOT
BRANCH   2   9
ATOM      8  O   UNL     1      37.948 -19.025 -21.559  0.00  0.00    -0.247 OA
ATOM      9  N   UNL     1      35.641 -19.577 -21.394  0.00  0.00    -0.282 N 
ATOM     10  N   UNL     1      37.125 -20.676 -20.079  0.00  0.00    -0.305 N 
ATOM     11  C   UNL     1      34.930 -20.497 -20.610  0.00  0.00    +0.079 A 
ATOM     12  C   UNL     1      37.025 -19.668 -21.080  0.00  0.00    +0.328 A 
ATOM     13  C   UNL     1      35.849 -21.168 -19.805  0.00  0.00    +0.076 A 
ATOM     14  C   UNL     1      33.582 -20.778 -20.554  0.00  0.00    +0.019 C 
ATOM     15  C   UNL     1      35.471 -22.145 -18.911  0.00  0.00    +0.019 C 
ATOM     16  C   UNL     1      33.173 -21.766 -19.653  0.00  0.00    +0.002 C 
ATOM     17  C   UNL     1      34.107 -22.443 -18.841  0.00  0.00    +0.002 C 
ATOM     18  H   UNL     1      37.959 -20.976 -19.650  0.00  0.00    +0.170 HD
ENDBRANCH   2   9
BRANCH   1  19
ATOM     19  C   UNL     1      34.884 -16.055 -25.756  0.00  0.00    -0.077 C 
BRANCH  19  20
ATOM     20  C   UNL     1      33.705 -15.231 -25.234  0.00  0.00    -0.015 C 
BRANCH  20  21
ATOM     21  C   UNL     1      33.746 -13.781 -25.726  0.00  0.00    +0.067 C 
BRANCH  21  23
ATOM     22  O   UNL     1      34.669 -11.731 -24.850  0.00  0.00    -0.291 OA
ATOM     23  C   UNL     1      34.065 -12.778 -24.627  0.00  0.00    +0.173 C 
BRANCH  23  25
ATOM     24  F   UNL     1      32.364 -13.877 -19.424  0.00  0.00    -0.204 F 
ATOM     25  C   UNL     1      33.610 -13.072 -23.238  0.00  0.00    +0.035 C 
ATOM     26  C   UNL     1      34.464 -13.746 -22.393  0.00  0.00    +0.005 C 
ATOM     27  C   UNL     1      32.355 -12.658 -22.852  0.00  0.00    +0.005 C 
ATOM     28  C   UNL     1      34.039 -14.020 -21.093  0.00  0.00    +0.030 C 
ATOM     29  C   UNL     1      31.931 -12.933 -21.552  0.00  0.00    +0.030 C 
ATOM     30  C   UNL     1      32.772 -13.613 -20.672  0.00  0.00    +0.140 C 
ENDBRANCH  23  25
ENDBRANCH  21  23
ENDBRANCH  20  21
ENDBRANCH  19  20
ENDBRANCH   1  19
TORSDOF 6
ENDMDL
MODEL 3
REMARK VINA RESULT:     -11.1      3.629      8.866
REMARK  Name = 16363
REMARK  6 active torsions:
REMARK  status: ('A' for Active; 'I' for Inactive)
REMARK    1  A    between atoms: N_1  and  C_19
REMARK    2  A    between atoms: C_2  and  N_9
REMARK    3  A    between atoms: C_19  and  C_20
REMARK    4  A    between atoms: C_20  and  C_21
REMARK    5  A    between atoms: C_21  and  C_23
REMARK    6  A    between atoms: C_23  and  C_25
REMARK                            x       y       z     vdW  Elec       q    Type
REMARK                         _______ _______ _______ _____ _____    ______ ____
ROOT
ATOM      1  N   UNL     1      35.383 -15.713 -23.644  0.00  0.00    +0.387 N 
ATOM      2  C   UNL     1      35.083 -18.193 -22.120  0.00  0.00    +0.086 C 
ATOM      3  C   UNL     1      35.563 -18.179 -23.571  0.00  0.00    -0.000 C 
ATOM      4  C   UNL     1      35.394 -16.855 -21.449  0.00  0.00    -0.000 C 
ATOM      5  C   UNL     1      35.019 -16.963 -24.325  0.00  0.00    -0.075 C 
ATOM      6  C   UNL     1      34.857 -15.682 -22.272  0.00  0.00    -0.075 C 
ATOM      7  H   UNL     1      36.400 -15.668 -23.591  0.00  0.00    -0.080 HD
ENDROOT
BRANCH   2   9
ATOM      8  O   UNL     1      37.993 -18.833 -21.658  0.00  0.00    -0.247 OA
ATOM      9  N   UNL     1      35.674 -19.284 -21.388  0.00  0.00    -0.282 N 
ATOM     10  N   UNL     1      37.178 -20.687 -20.437  0.00  0.00    -0.305 N 
ATOM     11  C   UNL     1      34.967 -20.295 -20.724  0.00  0.00    +0.079 A 
ATOM     12  C   UNL     1      37.069 -19.505 -21.223  0.00  0.00    +0.328 A 
ATOM     13  C   UNL     1      35.897 -21.153 -20.142  0.00  0.00    +0.076 A 
ATOM     14  C   UNL     1      33.611 -20.510 -20.598  0.00  0.00    +0.019 C 
ATOM     15  C   UNL     1      35.526 -22.260 -19.411  0.00  0.00    +0.019 C 
ATOM     16  C   UNL     1      33.207 -21.627 -19.860  0.00  0.00    +0.002 C 
ATOM     17  C   UNL     1      34.155 -22.493 -19.274  0.00  0.00    +0.002 C 
ATOM     18  H   UNL     1      38.021 -21.106 -20.147  0.00  0.00    +0.170 HD
ENDBRANCH   2   9
BRANCH   1  19
ATOM     19  C   UNL     1      34.901 -14.559 -24.402  0.00  0.00    -0.077 C 
BRANCH  19  20
ATOM     20  C   UNL     1      34.513 -13.425 -23.451  0.00  0.00    -0.015 C 
BRANCH  20  21
ATOM     21  C   UNL     1      33.002 -13.183 -23.421  0.00  0.00    +0.067 C 
BRANCH  21  23
ATOM     22  O   UNL     1      32.107 -14.054 -21.355  0.00  0.00    -0.291 OA
ATOM     23  C   UNL     1      32.435 -13.068 -22.013  0.00  0.00    +0.173 C 
BRANCH  23  25
ATOM     24  F   UNL     1      31.905  -7.992 -19.749  0.00  0.00    -0.204 F 
ATOM     25  C   UNL     1      32.295 -11.713 -21.408  0.00  0.00    +0.035 C 
ATOM     26  C   UNL     1      32.273 -10.617 -22.241  0.00  0.00    +0.005 C 
ATOM     27  C   UNL     1      32.190 -11.607 -20.039  0.00  0.00    +0.005 C 
ATOM     28  C   UNL     1      32.141  -9.349 -21.676  0.00  0.00    +0.030 C 
ATOM     29  C   UNL     1      32.057 -10.339 -19.474  0.00  0.00    +0.030 C 
ATOM     30  C   UNL     1      32.033  -9.210 -20.292  0.00  0.00    +0.140 C 
ENDBRANCH  23  25
ENDBRANCH  21  23
ENDBRANCH  20  21
ENDBRANCH  19  20
ENDBRANCH   1  19
TORSDOF 6
ENDMDL
MODEL 4
REMARK VINA RESULT:     -11.0      1.798      2.820
REMARK  Name = 16363
REMARK  6 active torsions:
REMARK  status: ('A' for Active; 'I' for Inactive)
REMARK    1  A    between atoms: N_1  and  C_19
REMARK    2  A    between atoms: C_2  and  N_9
REMARK    3  A    between atoms: C_19  and  C_20
REMARK    4  A    between atoms: C_20  and  C_21
REMARK    5  A    between atoms: C_21  and  C_23
REMARK    6  A    between atoms: C_23  and  C_25
REMARK                            x       y       z     vdW  Elec       q    Type
REMARK                         _______ _______ _______ _____ _____    ______ ____
ROOT
ATOM      1  N   UNL     1      34.907 -15.064 -23.894  0.00  0.00    +0.387 N 
ATOM      2  C   UNL     1      33.051 -12.933 -23.135  0.00  0.00    +0.086 C 
ATOM      3  C   UNL     1      34.125 -13.459 -22.183  0.00  0.00    -0.000 C 
ATOM      4  C   UNL     1      33.470 -13.173 -24.585  0.00  0.00    -0.000 C 
ATOM      5  C   UNL     1      34.482 -14.913 -22.495  0.00  0.00    -0.075 C 
ATOM      6  C   UNL     1      33.849 -14.636 -24.820  0.00  0.00    -0.075 C 
ATOM      7  H   UNL     1      35.717 -14.463 -24.043  0.00  0.00    -0.080 HD
ENDROOT
BRANCH   2   9
ATOM      8  O   UNL     1      30.828 -11.642 -21.558  0.00  0.00    -0.247 OA
ATOM      9  N   UNL     1      32.788 -11.536 -22.901  0.00  0.00    -0.282 N 
ATOM     10  N   UNL     1      31.849  -9.602 -22.183  0.00  0.00    -0.305 N 
ATOM     11  C   UNL     1      33.557 -10.471 -23.389  0.00  0.00    +0.079 A 
ATOM     12  C   UNL     1      31.706 -11.018 -22.137  0.00  0.00    +0.328 A 
ATOM     13  C   UNL     1      32.974  -9.287 -22.944  0.00  0.00    +0.076 A 
ATOM     14  C   UNL     1      34.694 -10.467 -24.169  0.00  0.00    +0.019 C 
ATOM     15  C   UNL     1      33.491  -8.048 -23.252  0.00  0.00    +0.019 C 
ATOM     16  C   UNL     1      35.239  -9.221 -24.496  0.00  0.00    +0.002 C 
ATOM     17  C   UNL     1      34.644  -8.024 -24.042  0.00  0.00    +0.002 C 
ATOM     18  H   UNL     1      31.251  -8.952 -21.747  0.00  0.00    +0.170 HD
ENDBRANCH   2   9
BRANCH   1  19
ATOM     19  C   UNL     1      35.294 -16.449 -24.164  0.00  0.00    -0.077 C 
BRANCH  19  20
ATOM     20  C   UNL     1      35.866 -17.094 -22.901  0.00  0.00    -0.015 C 
BRANCH  20  21
ATOM     21  C   UNL     1      35.705 -18.617 -22.901  0.00  0.00    +0.067 C 
BRANCH  21  23
ATOM     22  O   UNL     1      37.525 -19.068 -21.382  0.00  0.00    -0.291 OA
ATOM     23  C   UNL     1      36.362 -19.295 -21.708  0.00  0.00    +0.173 C 
BRANCH  23  25
ATOM     24  F   UNL     1      33.345 -22.879 -18.670  0.00  0.00    -0.204 F 
ATOM     25  C   UNL     1      35.556 -20.252 -20.897  0.00  0.00    +0.035 C 
ATOM     26  C   UNL     1      36.215 -21.154 -20.092  0.00  0.00    +0.005 C 
ATOM     27  C   UNL     1      34.183 -20.199 -20.983  0.00  0.00    +0.005 C 
ATOM     28  C   UNL     1      35.462 -22.049 -19.333  0.00  0.00    +0.030 C 
ATOM     29  C   UNL     1      33.430 -21.094 -20.224  0.00  0.00    +0.030 C 
ATOM     30  C   UNL     1      34.068 -22.019 -19.399  0.00  0.00    +0.140 C 
ENDBRANCH  23  25
ENDBRANCH  21  23
ENDBRANCH  20  21
ENDBRANCH  19  20
ENDBRANCH   1  19
TORSDOF 6
ENDMDL
MODEL 5
REMARK VINA RESULT:     -11.0      6.194     11.934
REMARK  Name = 16363
REMARK  6 active torsions:
REMARK  status: ('A' for Active; 'I' for Inactive)
REMARK    1  A    between atoms: N_1  and  C_19
REMARK    2  A    between atoms: C_2  and  N_9
REMARK    3  A    between atoms: C_19  and  C_20
REMARK    4  A    between atoms: C_20  and  C_21
REMARK    5  A    between atoms: C_21  and  C_23
REMARK    6  A    between atoms: C_23  and  C_25
REMARK                            x       y       z     vdW  Elec       q    Type
REMARK                         _______ _______ _______ _____ _____    ______ ____
ROOT
ATOM      1  N   UNL     1      34.565 -22.941 -18.324  0.00  0.00    +0.387 N 
ATOM      2  C   UNL     1      35.076 -23.252 -15.460  0.00  0.00    +0.086 C 
ATOM      3  C   UNL     1      33.942 -23.988 -16.173  0.00  0.00    -0.000 C 
ATOM      4  C   UNL     1      36.184 -22.904 -16.454  0.00  0.00    -0.000 C 
ATOM      5  C   UNL     1      33.457 -23.211 -17.397  0.00  0.00    -0.075 C 
ATOM      6  C   UNL     1      35.627 -22.162 -17.671  0.00  0.00    -0.075 C 
ATOM      7  H   UNL     1      34.962 -23.835 -18.610  0.00  0.00    -0.080 HD
ENDROOT
BRANCH   2   9
ATOM      8  O   UNL     1      33.725 -24.092 -12.898  0.00  0.00    -0.247 OA
ATOM      9  N   UNL     1      35.596 -24.031 -14.366  0.00  0.00    -0.282 N 
ATOM     10  N   UNL     1      35.784 -25.145 -12.401  0.00  0.00    -0.305 N 
ATOM     11  C   UNL     1      36.888 -24.567 -14.291  0.00  0.00    +0.079 A 
ATOM     12  C   UNL     1      34.878 -24.380 -13.189  0.00  0.00    +0.328 A 
ATOM     13  C   UNL     1      36.996 -25.250 -13.081  0.00  0.00    +0.076 A 
ATOM     14  C   UNL     1      37.942 -24.501 -15.178  0.00  0.00    +0.019 C 
ATOM     15  C   UNL     1      38.151 -25.897 -12.699  0.00  0.00    +0.019 C 
ATOM     16  C   UNL     1      39.126 -25.150 -14.813  0.00  0.00    +0.002 C 
ATOM     17  C   UNL     1      39.229 -25.840 -13.586  0.00  0.00    +0.002 C 
ATOM     18  H   UNL     1      35.586 -25.537 -11.519  0.00  0.00    +0.170 HD
ENDBRANCH   2   9
BRANCH   1  19
ATOM     19  C   UNL     1      34.078 -22.242 -19.514  0.00  0.00    -0.077 C 
BRANCH  19  20
ATOM     20  C   UNL     1      35.180 -21.355 -20.095  0.00  0.00    -0.015 C 
BRANCH  20  21
ATOM     21  C   UNL     1      34.622 -20.240 -20.983  0.00  0.00    +0.067 C 
BRANCH  21  23
ATOM     22  O   UNL     1      36.798 -19.198 -21.001  0.00  0.00    -0.291 OA
ATOM     23  C   UNL     1      35.693 -19.307 -21.529  0.00  0.00    +0.173 C 
BRANCH  23  25
ATOM     24  F   UNL     1      34.572 -16.348 -26.129  0.00  0.00    -0.204 F 
ATOM     25  C   UNL     1      35.395 -18.517 -22.757  0.00  0.00    +0.035 C 
ATOM     26  C   UNL     1      34.851 -19.166 -23.843  0.00  0.00    +0.005 C 
ATOM     27  C   UNL     1      35.672 -17.169 -22.760  0.00  0.00    +0.005 C 
ATOM     28  C   UNL     1      34.570 -18.427 -24.992  0.00  0.00    +0.030 C 
ATOM     29  C   UNL     1      35.392 -16.430 -23.909  0.00  0.00    +0.030 C 
ATOM     30  C   UNL     1      34.841 -17.058 -25.025  0.00  0.00    +0.140 C 
ENDBRANCH  23  25
ENDBRANCH  21  23
ENDBRANCH  20  21
ENDBRANCH  19  20
ENDBRANCH   1  19
TORSDOF 6
ENDMDL
MODEL 6
REMARK VINA RESULT:     -10.9      5.432     10.856
REMARK  Name = 16363
REMARK  6 active torsions:
REMARK  status: ('A' for Active; 'I' for Inactive)
REMARK    1  A    between atoms: N_1  and  C_19
REMARK    2  A    between atoms: C_2  and  N_9
REMARK    3  A    between atoms: C_19  and  C_20
REMARK    4  A    between atoms: C_20  and  C_21
REMARK    5  A    between atoms: C_21  and  C_23
REMARK    6  A    between atoms: C_23  and  C_25
REMARK                            x       y       z     vdW  Elec       q    Type
REMARK                         _______ _______ _______ _____ _____    ______ ____
ROOT
ATOM      1  N   UNL     1      35.997 -22.050 -19.427  0.00  0.00    +0.387 N 
ATOM      2  C   UNL     1      34.643 -22.690 -16.914  0.00  0.00    +0.086 C 
ATOM      3  C   UNL     1      34.049 -23.048 -18.277  0.00  0.00    -0.000 C 
ATOM      4  C   UNL     1      36.163 -22.575 -17.016  0.00  0.00    -0.000 C 
ATOM      5  C   UNL     1      34.530 -22.085 -19.363  0.00  0.00    -0.075 C 
ATOM      6  C   UNL     1      36.576 -21.628 -18.144  0.00  0.00    -0.075 C 
ATOM      7  H   UNL     1      36.326 -22.995 -19.624  0.00  0.00    -0.080 HD
ENDROOT
BRANCH   2   9
ATOM      8  O   UNL     1      36.258 -24.940 -15.722  0.00  0.00    -0.247 OA
ATOM      9  N   UNL     1      34.266 -23.655 -15.913  0.00  0.00    -0.282 N 
ATOM     10  N   UNL     1      34.314 -25.386 -14.451  0.00  0.00    -0.305 N 
ATOM     11  C   UNL     1      33.017 -23.726 -15.281  0.00  0.00    +0.079 A 
ATOM     12  C   UNL     1      35.103 -24.688 -15.409  0.00  0.00    +0.328 A 
ATOM     13  C   UNL     1      33.054 -24.791 -14.384  0.00  0.00    +0.076 A 
ATOM     14  C   UNL     1      31.888 -22.949 -15.431  0.00  0.00    +0.019 C 
ATOM     15  C   UNL     1      31.976 -25.133 -13.598  0.00  0.00    +0.019 C 
ATOM     16  C   UNL     1      30.779 -23.275 -14.643  0.00  0.00    +0.002 C 
ATOM     17  C   UNL     1      30.823 -24.355 -13.737  0.00  0.00    +0.002 C 
ATOM     18  H   UNL     1      34.610 -26.161 -13.921  0.00  0.00    +0.170 HD
ENDBRANCH   2   9
BRANCH   1  19
ATOM     19  C   UNL     1      36.442 -21.164 -20.504  0.00  0.00    -0.077 C 
BRANCH  19  20
ATOM     20  C   UNL     1      35.266 -20.336 -21.026  0.00  0.00    -0.015 C 
BRANCH  20  21
ATOM     21  C   UNL     1      35.598 -19.618 -22.337  0.00  0.00    +0.067 C 
BRANCH  21  23
ATOM     22  O   UNL     1      35.965 -17.535 -21.176  0.00  0.00    -0.291 OA
ATOM     23  C   UNL     1      35.614 -18.102 -22.209  0.00  0.00    +0.173 C 
BRANCH  23  25
ATOM     24  F   UNL     1      34.093 -15.029 -26.615  0.00  0.00    -0.204 F 
ATOM     25  C   UNL     1      35.209 -17.281 -23.385  0.00  0.00    +0.035 C 
ATOM     26  C   UNL     1      34.900 -17.923 -24.563  0.00  0.00    +0.005 C 
ATOM     27  C   UNL     1      35.157 -15.912 -23.250  0.00  0.00    +0.005 C 
ATOM     28  C   UNL     1      34.520 -17.156 -25.664  0.00  0.00    +0.030 C 
ATOM     29  C   UNL     1      34.777 -15.145 -24.350  0.00  0.00    +0.030 C 
ATOM     30  C   UNL     1      34.458 -15.766 -25.557  0.00  0.00    +0.140 C 
ENDBRANCH  23  25
ENDBRANCH  21  23
ENDBRANCH  20  21
ENDBRANCH  19  20
ENDBRANCH   1  19
TORSDOF 6
ENDMDL
MODEL 7
REMARK VINA RESULT:     -10.9      2.992      5.165
REMARK  Name = 16363
REMARK  6 active torsions:
REMARK  status: ('A' for Active; 'I' for Inactive)
REMARK    1  A    between atoms: N_1  and  C_19
REMARK    2  A    between atoms: C_2  and  N_9
REMARK    3  A    between atoms: C_19  and  C_20
REMARK    4  A    between atoms: C_20  and  C_21
REMARK    5  A    between atoms: C_21  and  C_23
REMARK    6  A    between atoms: C_23  and  C_25
REMARK                            x       y       z     vdW  Elec       q    Type
REMARK                         _______ _______ _______ _____ _____    ______ ____
ROOT
ATOM      1  N   UNL     1      36.200 -19.881 -20.650  0.00  0.00    +0.387 N 
ATOM      2  C   UNL     1      35.638 -18.342 -23.074  0.00  0.00    +0.086 C 
ATOM      3  C   UNL     1      34.535 -19.024 -22.265  0.00  0.00    -0.000 C 
ATOM      4  C   UNL     1      36.841 -18.045 -22.179  0.00  0.00    -0.000 C 
ATOM      5  C   UNL     1      35.070 -20.245 -21.515  0.00  0.00    -0.075 C 
ATOM      6  C   UNL     1      37.301 -19.297 -21.431  0.00  0.00    -0.075 C 
ATOM      7  H   UNL     1      35.877 -19.176 -19.988  0.00  0.00    -0.080 HD
ENDROOT
BRANCH   2   9
ATOM      8  O   UNL     1      35.003 -17.815 -25.975  0.00  0.00    -0.247 OA
ATOM      9  N   UNL     1      35.154 -17.138 -23.701  0.00  0.00    -0.282 N 
ATOM     10  N   UNL     1      34.430 -15.641 -25.241  0.00  0.00    -0.305 N 
ATOM     11  C   UNL     1      34.877 -15.934 -23.040  0.00  0.00    +0.079 A 
ATOM     12  C   UNL     1      34.881 -16.983 -25.087  0.00  0.00    +0.328 A 
ATOM     13  C   UNL     1      34.433 -15.019 -23.993  0.00  0.00    +0.076 A 
ATOM     14  C   UNL     1      34.983 -15.593 -21.708  0.00  0.00    +0.019 C 
ATOM     15  C   UNL     1      34.074 -13.729 -23.668  0.00  0.00    +0.019 C 
ATOM     16  C   UNL     1      34.624 -14.289 -21.352  0.00  0.00    +0.002 C 
ATOM     17  C   UNL     1      34.176 -13.367 -22.322  0.00  0.00    +0.002 C 
ATOM     18  H   UNL     1      34.160 -15.222 -26.090  0.00  0.00    +0.170 HD
ENDBRANCH   2   9
BRANCH   1  19
ATOM     19  C   UNL     1      36.668 -21.048 -19.901  0.00  0.00    -0.077 C 
BRANCH  19  20
ATOM     20  C   UNL     1      35.589 -22.132 -19.883  0.00  0.00    -0.015 C 
BRANCH  20  21
ATOM     21  C   UNL     1      35.067 -22.408 -18.470  0.00  0.00    +0.067 C 
BRANCH  21  23
ATOM     22  O   UNL     1      32.856 -22.598 -19.420  0.00  0.00    -0.291 OA
ATOM     23  C   UNL     1      33.566 -22.655 -18.418  0.00  0.00    +0.173 C 
BRANCH  23  25
ATOM     24  F   UNL     1      31.236 -23.927 -13.506  0.00  0.00    -0.204 F 
ATOM     25  C   UNL     1      32.943 -22.995 -17.107  0.00  0.00    +0.035 C 
ATOM     26  C   UNL     1      33.760 -23.390 -16.071  0.00  0.00    +0.005 C 
ATOM     27  C   UNL     1      31.576 -22.901 -16.980  0.00  0.00    +0.005 C 
ATOM     28  C   UNL     1      33.179 -23.707 -14.844  0.00  0.00    +0.030 C 
ATOM     29  C   UNL     1      30.994 -23.219 -15.753  0.00  0.00    +0.030 C 
ATOM     30  C   UNL     1      31.795 -23.622 -14.685  0.00  0.00    +0.140 C 
ENDBRANCH  23  25
ENDBRANCH  21  23
ENDBRANCH  20  21
ENDBRANCH  19  20
ENDBRANCH   1  19
TORSDOF 6
ENDMDL
MODEL 8
REMARK VINA RESULT:     -10.6      3.427      6.094
REMARK  Name = 16363
REMARK  6 active torsions:
REMARK  status: ('A' for Active; 'I' for Inactive)
REMARK    1  A    between atoms: N_1  and  C_19
REMARK    2  A    between atoms: C_2  and  N_9
REMARK    3  A    between atoms: C_19  and  C_20
REMARK    4  A    between atoms: C_20  and  C_21
REMARK    5  A    between atoms: C_21  and  C_23
REMARK    6  A    between atoms: C_23  and  C_25
REMARK                            x       y       z     vdW  Elec       q    Type
REMARK                         _______ _______ _______ _____ _____    ______ ____
ROOT
ATOM      1  N   UNL     1      35.953 -21.058 -20.515  0.00  0.00    +0.387 N 
ATOM      2  C   UNL     1      35.437 -18.373 -21.556  0.00  0.00    +0.086 C 
ATOM      3  C   UNL     1      36.851 -18.942 -21.427  0.00  0.00    -0.000 C 
ATOM      4  C   UNL     1      34.422 -19.508 -21.687  0.00  0.00    -0.000 C 
ATOM      5  C   UNL     1      36.931 -19.982 -20.308  0.00  0.00    -0.075 C 
ATOM      6  C   UNL     1      34.582 -20.530 -20.560  0.00  0.00    -0.075 C 
ATOM      7  H   UNL     1      36.151 -21.495 -21.416  0.00  0.00    -0.080 HD
ENDROOT
BRANCH   2   9
ATOM      8  O   UNL     1      35.803 -18.917 -24.499  0.00  0.00    -0.247 OA
ATOM      9  N   UNL     1      35.342 -17.467 -22.672  0.00  0.00    -0.282 N 
ATOM     10  N   UNL     1      35.341 -16.614 -24.772  0.00  0.00    -0.305 N 
ATOM     11  C   UNL     1      35.046 -16.100 -22.586  0.00  0.00    +0.079 A 
ATOM     12  C   UNL     1      35.532 -17.818 -24.037  0.00  0.00    +0.328 A 
ATOM     13  C   UNL     1      35.047 -15.583 -23.880  0.00  0.00    +0.076 A 
ATOM     14  C   UNL     1      34.784 -15.304 -21.492  0.00  0.00    +0.019 C 
ATOM     15  C   UNL     1      34.790 -14.256 -24.146  0.00  0.00    +0.019 C 
ATOM     16  C   UNL     1      34.519 -13.952 -21.735  0.00  0.00    +0.002 C 
ATOM     17  C   UNL     1      34.523 -13.434 -23.048  0.00  0.00    +0.002 C 
ATOM     18  H   UNL     1      35.406 -16.524 -25.751  0.00  0.00    +0.170 HD
ENDBRANCH   2   9
BRANCH   1  19
ATOM     19  C   UNL     1      36.077 -22.071 -19.466  0.00  0.00    -0.077 C 
BRANCH  19  20
ATOM     20  C   UNL     1      34.755 -22.822 -19.298  0.00  0.00    -0.015 C 
BRANCH  20  21
ATOM     21  C   UNL     1      34.349 -22.963 -17.829  0.00  0.00    +0.067 C 
BRANCH  21  23
ATOM     22  O   UNL     1      32.124 -22.245 -18.427  0.00  0.00    -0.291 OA
ATOM     23  C   UNL     1      32.858 -22.769 -17.593  0.00  0.00    +0.173 C 
BRANCH  23  25
ATOM     24  F   UNL     1      30.651 -24.582 -12.795  0.00  0.00    -0.204 F 
ATOM     25  C   UNL     1      32.269 -23.253 -16.311  0.00  0.00    +0.035 C 
ATOM     26  C   UNL     1      30.910 -23.464 -16.247  0.00  0.00    +0.005 C 
ATOM     27  C   UNL     1      33.105 -23.471 -15.240  0.00  0.00    +0.005 C 
ATOM     28  C   UNL     1      30.358 -23.917 -15.049  0.00  0.00    +0.030 C 
ATOM     29  C   UNL     1      32.554 -23.923 -14.042  0.00  0.00    +0.030 C 
ATOM     30  C   UNL     1      31.181 -24.147 -13.946  0.00  0.00    +0.140 C 
ENDBRANCH  23  25
ENDBRANCH  21  23
ENDBRANCH  20  21
ENDBRANCH  19  20
ENDBRANCH   1  19
TORSDOF 6
ENDMDL
MODEL 9
REMARK VINA RESULT:     -10.6      2.828      4.459
REMARK  Name = 16363
REMARK  6 active torsions:
REMARK  status: ('A' for Active; 'I' for Inactive)
REMARK    1  A    between atoms: N_1  and  C_19
REMARK    2  A    between atoms: C_2  and  N_9
REMARK    3  A    between atoms: C_19  and  C_20
REMARK    4  A    between atoms: C_20  and  C_21
REMARK    5  A    between atoms: C_21  and  C_23
REMARK    6  A    between atoms: C_23  and  C_25
REMARK                            x       y       z     vdW  Elec       q    Type
REMARK                         _______ _______ _______ _____ _____    ______ ____
ROOT
ATOM      1  N   UNL     1      33.649 -13.116 -23.191  0.00  0.00    +0.387 N 
ATOM      2  C   UNL     1      32.311 -10.579 -22.612  0.00  0.00    +0.086 C 
ATOM      3  C   UNL     1      32.232 -11.778 -21.668  0.00  0.00    -0.000 C 
ATOM      4  C   UNL     1      33.582 -10.658 -23.458  0.00  0.00    -0.000 C 
ATOM      5  C   UNL     1      32.393 -13.096 -22.428  0.00  0.00    -0.075 C 
ATOM      6  C   UNL     1      33.700 -12.012 -24.160  0.00  0.00    -0.075 C 
ATOM      7  H   UNL     1      34.418 -12.993 -22.534  0.00  0.00    -0.080 HD
ENDROOT
BRANCH   2   9
ATOM      8  O   UNL     1      32.797 -10.059 -19.681  0.00  0.00    -0.247 OA
ATOM      9  N   UNL     1      32.257  -9.338 -21.882  0.00  0.00    -0.282 N 
ATOM     10  N   UNL     1      32.337  -7.802 -20.217  0.00  0.00    -0.305 N 
ATOM     11  C   UNL     1      31.954  -8.084 -22.431  0.00  0.00    +0.079 A 
ATOM     12  C   UNL     1      32.504  -9.190 -20.490  0.00  0.00    +0.328 A 
ATOM     13  C   UNL     1      32.005  -7.146 -21.402  0.00  0.00    +0.076 A 
ATOM     14  C   UNL     1      31.646  -7.720 -23.724  0.00  0.00    +0.019 C 
ATOM     15  C   UNL     1      31.754  -5.808 -21.609  0.00  0.00    +0.019 C 
ATOM     16  C   UNL     1      31.387  -6.366 -23.961  0.00  0.00    +0.002 C 
ATOM     17  C   UNL     1      31.440  -5.420 -22.915  0.00  0.00    +0.002 C 
ATOM     18  H   UNL     1      32.441  -7.376 -19.335  0.00  0.00    +0.170 HD
ENDBRANCH   2   9
BRANCH   1  19
ATOM     19  C   UNL     1      33.813 -14.401 -23.871  0.00  0.00    -0.077 C 
BRANCH  19  20
ATOM     20  C   UNL     1      34.823 -15.271 -23.119  0.00  0.00    -0.015 C 
BRANCH  20  21
ATOM     21  C   UNL     1      35.636 -16.163 -24.061  0.00  0.00    +0.067 C 
BRANCH  21  23
ATOM     22  O   UNL     1      34.517 -18.101 -24.965  0.00  0.00    -0.291 OA
ATOM     23  C   UNL     1      35.187 -17.617 -24.055  0.00  0.00    +0.173 C 
BRANCH  23  25
ATOM     24  F   UNL     1      36.707 -20.869 -19.779  0.00  0.00    -0.204 F 
ATOM     25  C   UNL     1      35.593 -18.485 -22.913  0.00  0.00    +0.035 C 
ATOM     26  C   UNL     1      34.689 -19.402 -22.426  0.00  0.00    +0.005 C 
ATOM     27  C   UNL     1      36.857 -18.338 -22.387  0.00  0.00    +0.005 C 
ATOM     28  C   UNL     1      35.068 -20.215 -21.358  0.00  0.00    +0.030 C 
ATOM     29  C   UNL     1      37.236 -19.150 -21.319  0.00  0.00    +0.030 C 
ATOM     30  C   UNL     1      36.343 -20.089 -20.804  0.00  0.00    +0.140 C 
ENDBRANCH  23  25
ENDBRANCH  21  23
ENDBRANCH  20  21
ENDBRANCH  19  20
ENDBRANCH   1  19
TORSDOF 6
ENDMDL
