MODEL 1
REMARK VINA RESULT:     -11.9      0.000      0.000
REMARK  Name = 24978486
REMARK  5 active torsions:
REMARK  status: ('A' for Active; 'I' for Inactive)
REMARK    1  A    between atoms: O_1  and  C_6
REMARK    2  A    between atoms: O_1  and  C_18
REMARK    3  A    between atoms: C_18  and  C_20
REMARK    4  A    between atoms: N_19  and  C_26
REMARK    5  A    between atoms: C_26  and  C_29
REMARK                            x       y       z     vdW  Elec       q    Type
REMARK                         _______ _______ _______ _____ _____    ______ ____
ROOT
ATOM      1  O   UNL     1      35.163 -22.521 -18.048  0.00  0.00    -0.479 OA
ENDROOT
BRANCH   1   6
ATOM      2  N   UNL     1      36.022 -24.093 -13.546  0.00  0.00    -0.332 NA
ATOM      3  N   UNL     1      37.890 -23.350 -14.874  0.00  0.00    -0.317 NA
ATOM      4  N   UNL     1      37.600 -22.573 -17.052  0.00  0.00    -0.335 N 
ATOM      5  N   UNL     1      38.204 -24.128 -12.686  0.00  0.00    -0.283 N 
ATOM      6  C   UNL     1      34.765 -23.026 -16.835  0.00  0.00    +0.130 C 
ATOM      7  C   UNL     1      35.650 -23.306 -15.780  0.00  0.00    +0.177 C 
ATOM      8  C   UNL     1      33.403 -23.263 -16.681  0.00  0.00    +0.033 C 
ATOM      9  C   UNL     1      35.183 -23.823 -14.562  0.00  0.00    +0.137 C 
ATOM     10  C   UNL     1      37.023 -23.091 -15.870  0.00  0.00    +0.181 C 
ATOM     11  C   UNL     1      32.927 -23.776 -15.479  0.00  0.00    +0.005 C 
ATOM     12  C   UNL     1      33.815 -24.051 -14.434  0.00  0.00    +0.030 C 
ATOM     13  C   UNL     1      37.330 -23.843 -13.757  0.00  0.00    +0.197 C 
ATOM     14  H   UNL     1      38.572 -22.425 -17.103  0.00  0.00    +0.144 HD
ATOM     15  H   UNL     1      37.028 -22.358 -17.825  0.00  0.00    +0.144 HD
ATOM     16  H   UNL     1      37.848 -24.490 -11.843  0.00  0.00    +0.156 HD
ATOM     17  H   UNL     1      39.171 -23.964 -12.781  0.00  0.00    +0.156 HD
ENDBRANCH   1   6
BRANCH   1  18
ATOM     18  C   UNL     1      34.181 -22.438 -19.064  0.00  0.00    +0.205 C 
BRANCH  18  20
ATOM     19  N   UNL     1      35.540 -19.027 -21.339  0.00  0.00    +0.390 N 
ATOM     20  C   UNL     1      34.747 -21.618 -20.221  0.00  0.00    +0.040 C 
ATOM     21  C   UNL     1      36.041 -20.908 -19.812  0.00  0.00    -0.019 C 
ATOM     22  C   UNL     1      33.726 -20.589 -20.716  0.00  0.00    -0.019 C 
ATOM     23  C   UNL     1      36.559 -20.005 -20.934  0.00  0.00    -0.077 C 
ATOM     24  C   UNL     1      34.320 -19.697 -21.808  0.00  0.00    -0.077 C 
ATOM     25  H   UNL     1      35.298 -18.467 -20.521  0.00  0.00    -0.079 HD
BRANCH  19  26
ATOM     26  C   UNL     1      36.067 -18.139 -22.375  0.00  0.00    -0.049 C 
BRANCH  26  29
ATOM     27 CL   UNL     1      35.339 -16.870 -25.047  0.00  0.00    -0.082 Cl
ATOM     28 CL   UNL     1      33.933 -13.988 -24.842  0.00  0.00    -0.081 Cl
ATOM     29  C   UNL     1      35.406 -16.787 -22.345  0.00  0.00    -0.032 C 
ATOM     30  C   UNL     1      35.033 -16.121 -23.513  0.00  0.00    +0.062 C 
ATOM     31  C   UNL     1      35.168 -16.201 -21.102  0.00  0.00    -0.005 C 
ATOM     32  C   UNL     1      34.421 -14.869 -23.436  0.00  0.00    +0.068 C 
ATOM     33  C   UNL     1      34.557 -14.950 -21.025  0.00  0.00    +0.001 C 
ATOM     34  C   UNL     1      34.184 -14.284 -22.193  0.00  0.00    +0.012 C 
ENDBRANCH  26  29
ENDBRANCH  19  26
ENDBRANCH  18  20
ENDBRANCH   1  18
TORSDOF 5
ENDMDL
MODEL 2
REMARK VINA RESULT:     -11.8      2.052      2.969
REMARK  Name = 24978486
REMARK  5 active torsions:
REMARK  status: ('A' for Active; 'I' for Inactive)
REMARK    1  A    between atoms: O_1  and  C_6
REMARK    2  A    between atoms: O_1  and  C_18
REMARK    3  A    between atoms: C_18  and  C_20
REMARK    4  A    between atoms: N_19  and  C_26
REMARK    5  A    between atoms: C_26  and  C_29
REMARK                            x       y       z     vdW  Elec       q    Type
REMARK                         _______ _______ _______ _____ _____    ______ ____
ROOT
ATOM      1  O   UNL     1      35.344 -22.275 -18.524  0.00  0.00    -0.479 OA
ENDROOT
BRANCH   1   6
ATOM      2  N   UNL     1      32.721 -23.967 -14.818  0.00  0.00    -0.332 NA
ATOM      3  N   UNL     1      31.572 -23.344 -16.843  0.00  0.00    -0.317 NA
ATOM      4  N   UNL     1      32.728 -22.518 -18.691  0.00  0.00    -0.335 N 
ATOM      5  N   UNL     1      30.391 -24.172 -14.996  0.00  0.00    -0.283 N 
ATOM      6  C   UNL     1      35.209 -22.769 -17.251  0.00  0.00    +0.130 C 
ATOM      7  C   UNL     1      33.973 -23.124 -16.682  0.00  0.00    +0.177 C 
ATOM      8  C   UNL     1      36.380 -22.909 -16.513  0.00  0.00    +0.033 C 
ATOM      9  C   UNL     1      33.898 -23.623 -15.371  0.00  0.00    +0.137 C 
ATOM     10  C   UNL     1      32.766 -23.010 -17.366  0.00  0.00    +0.181 C 
ATOM     11  C   UNL     1      36.318 -23.401 -15.214  0.00  0.00    +0.005 C 
ATOM     12  C   UNL     1      35.085 -23.753 -14.655  0.00  0.00    +0.030 C 
ATOM     13  C   UNL     1      31.622 -23.808 -15.583  0.00  0.00    +0.197 C 
ATOM     14  H   UNL     1      31.869 -22.442 -19.164  0.00  0.00    +0.144 HD
ATOM     15  H   UNL     1      33.563 -22.253 -19.141  0.00  0.00    +0.144 HD
ATOM     16  H   UNL     1      30.368 -24.519 -14.075  0.00  0.00    +0.156 HD
ATOM     17  H   UNL     1      29.554 -24.079 -15.508  0.00  0.00    +0.156 HD
ENDBRANCH   1   6
BRANCH   1  18
ATOM     18  C   UNL     1      36.598 -21.713 -18.866  0.00  0.00    +0.205 C 
BRANCH  18  20
ATOM     19  N   UNL     1      35.781 -18.669 -21.820  0.00  0.00    +0.390 N 
ATOM     20  C   UNL     1      36.470 -21.031 -20.225  0.00  0.00    +0.040 C 
ATOM     21  C   UNL     1      37.383 -19.804 -20.314  0.00  0.00    -0.019 C 
ATOM     22  C   UNL     1      35.020 -20.618 -20.500  0.00  0.00    -0.019 C 
ATOM     23  C   UNL     1      37.186 -19.058 -21.636  0.00  0.00    -0.077 C 
ATOM     24  C   UNL     1      34.901 -19.845 -21.815  0.00  0.00    -0.077 C 
ATOM     25  H   UNL     1      35.514 -18.073 -21.037  0.00  0.00    -0.079 HD
BRANCH  19  26
ATOM     26  C   UNL     1      35.618 -17.913 -23.061  0.00  0.00    -0.049 C 
BRANCH  26  29
ATOM     27 CL   UNL     1      35.030 -16.157 -25.480  0.00  0.00    -0.082 Cl
ATOM     28 CL   UNL     1      34.098 -13.161 -24.789  0.00  0.00    -0.081 Cl
ATOM     29  C   UNL     1      35.177 -16.497 -22.802  0.00  0.00    -0.032 C 
ATOM     30  C   UNL     1      34.884 -15.613 -23.840  0.00  0.00    +0.062 C 
ATOM     31  C   UNL     1      35.065 -16.078 -21.477  0.00  0.00    -0.005 C 
ATOM     32  C   UNL     1      34.478 -14.309 -23.552  0.00  0.00    +0.068 C 
ATOM     33  C   UNL     1      34.659 -14.775 -21.188  0.00  0.00    +0.001 C 
ATOM     34  C   UNL     1      34.366 -13.891 -22.226  0.00  0.00    +0.012 C 
ENDBRANCH  26  29
ENDBRANCH  19  26
ENDBRANCH  18  20
ENDBRANCH   1  18
TORSDOF 5
ENDMDL
MODEL 3
REMARK VINA RESULT:     -11.4      1.646      2.511
REMARK  Name = 24978486
REMARK  5 active torsions:
REMARK  status: ('A' for Active; 'I' for Inactive)
REMARK    1  A    between atoms: O_1  and  C_6
REMARK    2  A    between atoms: O_1  and  C_18
REMARK    3  A    between atoms: C_18  and  C_20
REMARK    4  A    between atoms: N_19  and  C_26
REMARK    5  A    between atoms: C_26  and  C_29
REMARK                            x       y       z     vdW  Elec       q    Type
REMARK                         _______ _______ _______ _____ _____    ______ ____
ROOT
ATOM      1  O   UNL     1      34.476 -23.553 -17.513  0.00  0.00    -0.479 OA
ENDROOT
BRANCH   1   6
ATOM      2  N   UNL     1      33.915 -24.317 -12.761  0.00  0.00    -0.332 NA
ATOM      3  N   UNL     1      36.146 -24.349 -13.669  0.00  0.00    -0.317 NA
ATOM      4  N   UNL     1      36.540 -23.995 -15.940  0.00  0.00    -0.335 N 
ATOM      5  N   UNL     1      35.773 -24.708 -11.384  0.00  0.00    -0.283 N 
ATOM      6  C   UNL     1      33.711 -23.680 -16.380  0.00  0.00    +0.130 C 
ATOM      7  C   UNL     1      34.246 -23.944 -15.107  0.00  0.00    +0.177 C 
ATOM      8  C   UNL     1      32.337 -23.537 -16.540  0.00  0.00    +0.033 C 
ATOM      9  C   UNL     1      33.413 -24.065 -13.983  0.00  0.00    +0.137 C 
ATOM     10  C   UNL     1      35.611 -24.097 -14.878  0.00  0.00    +0.181 C 
ATOM     11  C   UNL     1      31.501 -23.656 -15.436  0.00  0.00    +0.005 C 
ATOM     12  C   UNL     1      32.042 -23.917 -14.172  0.00  0.00    +0.030 C 
ATOM     13  C   UNL     1      35.254 -24.445 -12.670  0.00  0.00    +0.197 C 
ATOM     14  H   UNL     1      37.502 -24.105 -15.765  0.00  0.00    +0.144 HD
ATOM     15  H   UNL     1      36.223 -23.811 -16.854  0.00  0.00    +0.144 HD
ATOM     16  H   UNL     1      35.164 -24.788 -10.615  0.00  0.00    +0.156 HD
ATOM     17  H   UNL     1      36.744 -24.810 -11.256  0.00  0.00    +0.156 HD
ENDBRANCH   1   6
BRANCH   1  18
ATOM     18  C   UNL     1      33.810 -23.151 -18.696  0.00  0.00    +0.205 C 
BRANCH  18  20
ATOM     19  N   UNL     1      35.577 -20.163 -21.264  0.00  0.00    +0.390 N 
ATOM     20  C   UNL     1      34.394 -21.818 -19.154  0.00  0.00    +0.040 C 
ATOM     21  C   UNL     1      33.561 -21.211 -20.287  0.00  0.00    -0.019 C 
ATOM     22  C   UNL     1      35.847 -21.982 -19.611  0.00  0.00    -0.019 C 
ATOM     23  C   UNL     1      34.198 -19.925 -20.820  0.00  0.00    -0.077 C 
ATOM     24  C   UNL     1      36.408 -20.671 -20.165  0.00  0.00    -0.077 C 
ATOM     25  H   UNL     1      35.555 -20.872 -21.997  0.00  0.00    -0.079 HD
BRANCH  19  26
ATOM     26  C   UNL     1      36.154 -18.937 -21.817  0.00  0.00    -0.049 C 
BRANCH  26  29
ATOM     27 CL   UNL     1      35.540 -15.985 -22.252  0.00  0.00    -0.082 Cl
ATOM     28 CL   UNL     1      34.150 -15.287 -25.063  0.00  0.00    -0.081 Cl
ATOM     29  C   UNL     1      35.502 -18.546 -23.116  0.00  0.00    -0.032 C 
ATOM     30  C   UNL     1      35.179 -17.222 -23.413  0.00  0.00    +0.062 C 
ATOM     31  C   UNL     1      35.220 -19.555 -24.037  0.00  0.00    -0.005 C 
ATOM     32  C   UNL     1      34.575 -16.907 -24.631  0.00  0.00    +0.068 C 
ATOM     33  C   UNL     1      34.617 -19.240 -25.255  0.00  0.00    +0.001 C 
ATOM     34  C   UNL     1      34.294 -17.916 -25.551  0.00  0.00    +0.012 C 
ENDBRANCH  26  29
ENDBRANCH  19  26
ENDBRANCH  18  20
ENDBRANCH   1  18
TORSDOF 5
ENDMDL
MODEL 4
REMARK VINA RESULT:     -11.4      4.297     10.329
REMARK  Name = 24978486
REMARK  5 active torsions:
REMARK  status: ('A' for Active; 'I' for Inactive)
REMARK    1  A    between atoms: O_1  and  C_6
REMARK    2  A    between atoms: O_1  and  C_18
REMARK    3  A    between atoms: C_18  and  C_20
REMARK    4  A    between atoms: N_19  and  C_26
REMARK    5  A    between atoms: C_26  and  C_29
REMARK                            x       y       z     vdW  Elec       q    Type
REMARK                         _______ _______ _______ _____ _____    ______ ____
ROOT
ATOM      1  O   UNL     1      35.570 -18.220 -22.977  0.00  0.00    -0.479 OA
ENDROOT
BRANCH   1   6
ATOM      2  N   UNL     1      33.918 -14.121 -24.964  0.00  0.00    -0.332 NA
ATOM      3  N   UNL     1      34.171 -16.057 -26.377  0.00  0.00    -0.317 NA
ATOM      4  N   UNL     1      34.956 -18.083 -25.533  0.00  0.00    -0.335 N 
ATOM      5  N   UNL     1      33.380 -14.029 -27.245  0.00  0.00    -0.283 N 
ATOM      6  C   UNL     1      35.193 -16.902 -22.918  0.00  0.00    +0.130 C 
ATOM      7  C   UNL     1      34.731 -16.175 -24.029  0.00  0.00    +0.177 C 
ATOM      8  C   UNL     1      35.289 -16.285 -21.675  0.00  0.00    +0.033 C 
ATOM      9  C   UNL     1      34.361 -14.826 -23.907  0.00  0.00    +0.137 C 
ATOM     10  C   UNL     1      34.611 -16.732 -25.299  0.00  0.00    +0.181 C 
ATOM     11  C   UNL     1      34.927 -14.949 -21.541  0.00  0.00    +0.005 C 
ATOM     12  C   UNL     1      34.468 -14.233 -22.652  0.00  0.00    +0.030 C 
ATOM     13  C   UNL     1      33.847 -14.775 -26.141  0.00  0.00    +0.197 C 
ATOM     14  H   UNL     1      34.866 -18.465 -26.435  0.00  0.00    +0.144 HD
ATOM     15  H   UNL     1      35.286 -18.642 -24.792  0.00  0.00    +0.144 HD
ATOM     16  H   UNL     1      33.128 -13.085 -27.130  0.00  0.00    +0.156 HD
ATOM     17  H   UNL     1      33.305 -14.454 -28.131  0.00  0.00    +0.156 HD
ENDBRANCH   1   6
BRANCH   1  18
ATOM     18  C   UNL     1      36.245 -18.747 -21.849  0.00  0.00    +0.205 C 
BRANCH  18  20
ATOM     19  N   UNL     1      34.271 -21.698 -19.390  0.00  0.00    +0.390 N 
ATOM     20  C   UNL     1      35.565 -20.051 -21.440  0.00  0.00    +0.040 C 
ATOM     21  C   UNL     1      34.129 -19.799 -20.970  0.00  0.00    -0.019 C 
ATOM     22  C   UNL     1      36.355 -20.761 -20.336  0.00  0.00    -0.019 C 
ATOM     23  C   UNL     1      33.476 -21.087 -20.464  0.00  0.00    -0.077 C 
ATOM     24  C   UNL     1      35.628 -22.017 -19.852  0.00  0.00    -0.077 C 
ATOM     25  H   UNL     1      34.347 -21.021 -18.630  0.00  0.00    -0.079 HD
BRANCH  19  26
ATOM     26  C   UNL     1      33.608 -22.899 -18.882  0.00  0.00    -0.049 C 
BRANCH  26  29
ATOM     27 CL   UNL     1      31.186 -23.084 -17.043  0.00  0.00    -0.082 Cl
ATOM     28 CL   UNL     1      31.871 -23.520 -13.935  0.00  0.00    -0.081 Cl
ATOM     29  C   UNL     1      33.864 -23.103 -17.413  0.00  0.00    -0.032 C 
ATOM     30  C   UNL     1      32.824 -23.200 -16.488  0.00  0.00    +0.062 C 
ATOM     31  C   UNL     1      35.188 -23.194 -16.985  0.00  0.00    -0.005 C 
ATOM     32  C   UNL     1      33.110 -23.390 -15.135  0.00  0.00    +0.068 C 
ATOM     33  C   UNL     1      35.474 -23.384 -15.634  0.00  0.00    +0.001 C 
ATOM     34  C   UNL     1      34.434 -23.482 -14.708  0.00  0.00    +0.012 C 
ENDBRANCH  26  29
ENDBRANCH  19  26
ENDBRANCH  18  20
ENDBRANCH   1  18
TORSDOF 5
ENDMDL
MODEL 5
REMARK VINA RESULT:     -10.9      3.134      5.128
REMARK  Name = 24978486
REMARK  5 active torsions:
REMARK  status: ('A' for Active; 'I' for Inactive)
REMARK    1  A    between atoms: O_1  and  C_6
REMARK    2  A    between atoms: O_1  and  C_18
REMARK    3  A    between atoms: C_18  and  C_20
REMARK    4  A    between atoms: N_19  and  C_26
REMARK    5  A    between atoms: C_26  and  C_29
REMARK                            x       y       z     vdW  Elec       q    Type
REMARK                         _______ _______ _______ _____ _____    ______ ____
ROOT
ATOM      1  O   UNL     1      34.748 -19.725 -21.779  0.00  0.00    -0.479 OA
ENDROOT
BRANCH   1   6
ATOM      2  N   UNL     1      34.843 -22.745 -17.991  0.00  0.00    -0.332 NA
ATOM      3  N   UNL     1      32.719 -22.281 -19.032  0.00  0.00    -0.317 NA
ATOM      4  N   UNL     1      32.550 -20.845 -20.861  0.00  0.00    -0.335 N 
ATOM      5  N   UNL     1      32.867 -23.728 -17.195  0.00  0.00    -0.283 N 
ATOM      6  C   UNL     1      35.396 -20.412 -20.783  0.00  0.00    +0.130 C 
ATOM      7  C   UNL     1      34.742 -21.257 -19.870  0.00  0.00    +0.177 C 
ATOM      8  C   UNL     1      36.773 -20.236 -20.703  0.00  0.00    +0.033 C 
ATOM      9  C   UNL     1      35.459 -21.933 -18.869  0.00  0.00    +0.137 C 
ATOM     10  C   UNL     1      33.367 -21.477 -19.895  0.00  0.00    +0.181 C 
ATOM     11  C   UNL     1      37.494 -20.899 -19.717  0.00  0.00    +0.005 C 
ATOM     12  C   UNL     1      36.836 -21.739 -18.812  0.00  0.00    +0.030 C 
ATOM     13  C   UNL     1      33.507 -22.874 -18.120  0.00  0.00    +0.197 C 
ATOM     14  H   UNL     1      31.580 -21.009 -20.869  0.00  0.00    +0.144 HD
ATOM     15  H   UNL     1      32.953 -20.242 -21.527  0.00  0.00    +0.144 HD
ATOM     16  H   UNL     1      33.396 -24.189 -16.504  0.00  0.00    +0.156 HD
ATOM     17  H   UNL     1      31.893 -23.863 -17.241  0.00  0.00    +0.156 HD
ENDBRANCH   1   6
BRANCH   1  18
ATOM     18  C   UNL     1      35.443 -19.558 -23.002  0.00  0.00    +0.205 C 
BRANCH  18  20
ATOM     19  N   UNL     1      34.552 -15.359 -23.484  0.00  0.00    +0.390 N 
ATOM     20  C   UNL     1      35.653 -18.065 -23.241  0.00  0.00    +0.040 C 
ATOM     21  C   UNL     1      35.213 -17.245 -22.024  0.00  0.00    -0.019 C 
ATOM     22  C   UNL     1      34.892 -17.595 -24.485  0.00  0.00    -0.019 C 
ATOM     23  C   UNL     1      35.327 -15.742 -22.296  0.00  0.00    -0.077 C 
ATOM     24  C   UNL     1      35.016 -16.082 -24.675  0.00  0.00    -0.077 C 
ATOM     25  H   UNL     1      33.577 -15.613 -23.320  0.00  0.00    -0.079 HD
BRANCH  19  26
ATOM     26  C   UNL     1      34.628 -13.914 -23.700  0.00  0.00    -0.049 C 
BRANCH  26  29
ATOM     27 CL   UNL     1      33.941 -11.070 -24.547  0.00  0.00    -0.082 Cl
ATOM     28 CL   UNL     1      31.760  -9.594 -22.706  0.00  0.00    -0.081 Cl
ATOM     29  C   UNL     1      33.613 -13.169 -22.875  0.00  0.00    -0.032 C 
ATOM     30  C   UNL     1      33.229 -11.863 -23.179  0.00  0.00    +0.062 C 
ATOM     31  C   UNL     1      33.051 -13.824 -21.779  0.00  0.00    -0.005 C 
ATOM     32  C   UNL     1      32.283 -11.212 -22.386  0.00  0.00    +0.068 C 
ATOM     33  C   UNL     1      32.106 -13.173 -20.987  0.00  0.00    +0.001 C 
ATOM     34  C   UNL     1      31.722 -11.867 -21.291  0.00  0.00    +0.012 C 
ENDBRANCH  26  29
ENDBRANCH  19  26
ENDBRANCH  18  20
ENDBRANCH   1  18
TORSDOF 5
ENDMDL
MODEL 6
REMARK VINA RESULT:     -10.9      4.218     10.057
REMARK  Name = 24978486
REMARK  5 active torsions:
REMARK  status: ('A' for Active; 'I' for Inactive)
REMARK    1  A    between atoms: O_1  and  C_6
REMARK    2  A    between atoms: O_1  and  C_18
REMARK    3  A    between atoms: C_18  and  C_20
REMARK    4  A    between atoms: N_19  and  C_26
REMARK    5  A    between atoms: C_26  and  C_29
REMARK                            x       y       z     vdW  Elec       q    Type
REMARK                         _______ _______ _______ _____ _____    ______ ____
ROOT
ATOM      1  O   UNL     1      35.353 -18.100 -21.554  0.00  0.00    -0.479 OA
ENDROOT
BRANCH   1   6
ATOM      2  N   UNL     1      34.583 -14.428 -24.620  0.00  0.00    -0.332 NA
ATOM      3  N   UNL     1      34.683 -13.947 -22.261  0.00  0.00    -0.317 NA
ATOM      4  N   UNL     1      35.049 -15.632 -20.691  0.00  0.00    -0.335 N 
ATOM      5  N   UNL     1      34.315 -12.239 -23.822  0.00  0.00    -0.283 N 
ATOM      6  C   UNL     1      35.185 -17.576 -22.811  0.00  0.00    +0.130 C 
ATOM      7  C   UNL     1      34.962 -16.210 -23.061  0.00  0.00    +0.177 C 
ATOM      8  C   UNL     1      35.242 -18.476 -23.870  0.00  0.00    +0.033 C 
ATOM      9  C   UNL     1      34.795 -15.733 -24.371  0.00  0.00    +0.137 C 
ATOM     10  C   UNL     1      34.895 -15.259 -22.047  0.00  0.00    +0.181 C 
ATOM     11  C   UNL     1      35.077 -18.015 -25.172  0.00  0.00    +0.005 C 
ATOM     12  C   UNL     1      34.857 -16.655 -25.412  0.00  0.00    +0.030 C 
ATOM     13  C   UNL     1      34.538 -13.606 -23.552  0.00  0.00    +0.197 C 
ATOM     14  H   UNL     1      34.999 -14.949 -19.984  0.00  0.00    +0.144 HD
ATOM     15  H   UNL     1      35.207 -16.575 -20.456  0.00  0.00    +0.144 HD
ATOM     16  H   UNL     1      34.201 -11.933 -24.751  0.00  0.00    +0.156 HD
ATOM     17  H   UNL     1      34.274 -11.590 -23.082  0.00  0.00    +0.156 HD
ENDBRANCH   1   6
BRANCH   1  18
ATOM     18  C   UNL     1      36.321 -19.123 -21.408  0.00  0.00    +0.205 C 
BRANCH  18  20
ATOM     19  N   UNL     1      34.188 -22.017 -19.014  0.00  0.00    +0.390 N 
ATOM     20  C   UNL     1      35.608 -20.415 -21.016  0.00  0.00    +0.040 C 
ATOM     21  C   UNL     1      34.150 -20.144 -20.630  0.00  0.00    -0.019 C 
ATOM     22  C   UNL     1      36.330 -21.112 -19.858  0.00  0.00    -0.019 C 
ATOM     23  C   UNL     1      33.459 -21.419 -20.140  0.00  0.00    -0.077 C 
ATOM     24  C   UNL     1      35.566 -22.353 -19.394  0.00  0.00    -0.077 C 
ATOM     25  H   UNL     1      34.228 -21.328 -18.262  0.00  0.00    -0.079 HD
BRANCH  19  26
ATOM     26  C   UNL     1      33.488 -23.204 -18.524  0.00  0.00    -0.049 C 
BRANCH  26  29
ATOM     27 CL   UNL     1      30.969 -23.106 -16.812  0.00  0.00    -0.082 Cl
ATOM     28 CL   UNL     1      31.455 -23.492 -13.659  0.00  0.00    -0.081 Cl
ATOM     29  C   UNL     1      33.650 -23.378 -17.037  0.00  0.00    -0.032 C 
ATOM     30  C   UNL     1      32.561 -23.349 -16.166  0.00  0.00    +0.062 C 
ATOM     31  C   UNL     1      34.937 -23.573 -16.537  0.00  0.00    -0.005 C 
ATOM     32  C   UNL     1      32.759 -23.516 -14.795  0.00  0.00    +0.068 C 
ATOM     33  C   UNL     1      35.136 -23.740 -15.167  0.00  0.00    +0.001 C 
ATOM     34  C   UNL     1      34.047 -23.711 -14.296  0.00  0.00    +0.012 C 
ENDBRANCH  26  29
ENDBRANCH  19  26
ENDBRANCH  18  20
ENDBRANCH   1  18
TORSDOF 5
ENDMDL
MODEL 7
REMARK VINA RESULT:     -10.8      7.313     10.916
REMARK  Name = 24978486
REMARK  5 active torsions:
REMARK  status: ('A' for Active; 'I' for Inactive)
REMARK    1  A    between atoms: O_1  and  C_6
REMARK    2  A    between atoms: O_1  and  C_18
REMARK    3  A    between atoms: C_18  and  C_20
REMARK    4  A    between atoms: N_19  and  C_26
REMARK    5  A    between atoms: C_26  and  C_29
REMARK                            x       y       z     vdW  Elec       q    Type
REMARK                         _______ _______ _______ _____ _____    ______ ____
ROOT
ATOM      1  O   UNL     1      33.557 -13.231 -22.243  0.00  0.00    -0.479 OA
ENDROOT
BRANCH   1   6
ATOM      2  N   UNL     1      35.479 -17.386 -23.832  0.00  0.00    -0.332 NA
ATOM      3  N   UNL     1      35.557 -16.919 -21.469  0.00  0.00    -0.317 NA
ATOM      4  N   UNL     1      34.665 -14.953 -20.588  0.00  0.00    -0.335 N 
ATOM      5  N   UNL     1      36.460 -18.901 -22.333  0.00  0.00    -0.283 N 
ATOM      6  C   UNL     1      33.881 -14.125 -23.233  0.00  0.00    +0.130 C 
ATOM      7  C   UNL     1      34.541 -15.344 -22.994  0.00  0.00    +0.177 C 
ATOM      8  C   UNL     1      33.524 -13.771 -24.529  0.00  0.00    +0.033 C 
ATOM      9  C   UNL     1      34.849 -16.218 -24.049  0.00  0.00    +0.137 C 
ATOM     10  C   UNL     1      34.925 -15.758 -21.722  0.00  0.00    +0.181 C 
ATOM     11  C   UNL     1      33.823 -14.628 -25.583  0.00  0.00    +0.005 C 
ATOM     12  C   UNL     1      34.479 -15.839 -25.337  0.00  0.00    +0.030 C 
ATOM     13  C   UNL     1      35.799 -17.673 -22.554  0.00  0.00    +0.197 C 
ATOM     14  H   UNL     1      34.942 -15.257 -19.694  0.00  0.00    +0.144 HD
ATOM     15  H   UNL     1      34.205 -14.089 -20.694  0.00  0.00    +0.144 HD
ATOM     16  H   UNL     1      36.662 -19.494 -23.092  0.00  0.00    +0.156 HD
ATOM     17  H   UNL     1      36.717 -19.165 -21.420  0.00  0.00    +0.156 HD
ENDBRANCH   1   6
BRANCH   1  18
ATOM     18  C   UNL     1      32.198 -13.173 -21.849  0.00  0.00    +0.205 C 
BRANCH  18  20
ATOM     19  N   UNL     1      32.611  -8.920 -21.224  0.00  0.00    +0.390 N 
ATOM     20  C   UNL     1      31.816 -11.711 -21.635  0.00  0.00    +0.040 C 
ATOM     21  C   UNL     1      32.345 -10.831 -22.772  0.00  0.00    -0.019 C 
ATOM     22  C   UNL     1      32.344 -11.195 -20.292  0.00  0.00    -0.019 C 
ATOM     23  C   UNL     1      32.053  -9.351 -22.512  0.00  0.00    -0.077 C 
ATOM     24  C   UNL     1      32.052  -9.704 -20.115  0.00  0.00    -0.077 C 
ATOM     25  H   UNL     1      33.618  -9.079 -21.247  0.00  0.00    -0.079 HD
BRANCH  19  26
ATOM     26  C   UNL     1      32.368  -7.493 -21.014  0.00  0.00    -0.049 C 
BRANCH  26  29
ATOM     27 CL   UNL     1      30.482  -5.236 -21.811  0.00  0.00    -0.082 Cl
ATOM     28 CL   UNL     1      31.375  -3.575 -24.412  0.00  0.00    -0.081 Cl
ATOM     29  C   UNL     1      32.732  -6.677 -22.227  0.00  0.00    -0.032 C 
ATOM     30  C   UNL     1      31.936  -5.623 -22.674  0.00  0.00    +0.062 C 
ATOM     31  C   UNL     1      33.904  -7.004 -22.908  0.00  0.00    -0.005 C 
ATOM     32  C   UNL     1      32.314  -4.895 -23.803  0.00  0.00    +0.068 C 
ATOM     33  C   UNL     1      34.282  -6.276 -24.035  0.00  0.00    +0.001 C 
ATOM     34  C   UNL     1      33.486  -5.221 -24.483  0.00  0.00    +0.012 C 
ENDBRANCH  26  29
ENDBRANCH  19  26
ENDBRANCH  18  20
ENDBRANCH   1  18
TORSDOF 5
ENDMDL
MODEL 8
REMARK VINA RESULT:     -10.8      3.088      5.094
REMARK  Name = 24978486
REMARK  5 active torsions:
REMARK  status: ('A' for Active; 'I' for Inactive)
REMARK    1  A    between atoms: O_1  and  C_6
REMARK    2  A    between atoms: O_1  and  C_18
REMARK    3  A    between atoms: C_18  and  C_20
REMARK    4  A    between atoms: N_19  and  C_26
REMARK    5  A    between atoms: C_26  and  C_29
REMARK                            x       y       z     vdW  Elec       q    Type
REMARK                         _______ _______ _______ _____ _____    ______ ____
ROOT
ATOM      1  O   UNL     1      34.820 -25.137 -13.548  0.00  0.00    -0.479 OA
ENDROOT
BRANCH   1   6
ATOM      2  N   UNL     1      39.664 -25.186 -13.420  0.00  0.00    -0.332 NA
ATOM      3  N   UNL     1      38.543 -26.713 -14.909  0.00  0.00    -0.317 NA
ATOM      4  N   UNL     1      36.217 -26.781 -15.057  0.00  0.00    -0.335 N 
ATOM      5  N   UNL     1      40.882 -26.662 -14.777  0.00  0.00    -0.283 N 
ATOM      6  C   UNL     1      36.032 -24.691 -13.084  0.00  0.00    +0.130 C 
ATOM      7  C   UNL     1      37.267 -25.201 -13.521  0.00  0.00    +0.177 C 
ATOM      8  C   UNL     1      35.997 -23.681 -12.128  0.00  0.00    +0.033 C 
ATOM      9  C   UNL     1      38.477 -24.705 -13.008  0.00  0.00    +0.137 C 
ATOM     10  C   UNL     1      37.373 -26.210 -14.475  0.00  0.00    +0.181 C 
ATOM     11  C   UNL     1      37.187 -23.183 -11.612  0.00  0.00    +0.005 C 
ATOM     12  C   UNL     1      38.412 -23.695 -12.053  0.00  0.00    +0.030 C 
ATOM     13  C   UNL     1      39.632 -26.163 -14.348  0.00  0.00    +0.197 C 
ATOM     14  H   UNL     1      36.305 -27.493 -15.730  0.00  0.00    +0.144 HD
ATOM     15  H   UNL     1      35.324 -26.464 -14.789  0.00  0.00    +0.144 HD
ATOM     16  H   UNL     1      41.713 -26.295 -14.399  0.00  0.00    +0.156 HD
ATOM     17  H   UNL     1      40.922 -27.376 -15.454  0.00  0.00    +0.156 HD
ENDBRANCH   1   6
BRANCH   1  18
ATOM     18  C   UNL     1      33.844 -24.155 -13.843  0.00  0.00    +0.205 C 
BRANCH  18  20
ATOM     19  N   UNL     1      33.614 -22.526 -17.836  0.00  0.00    +0.390 N 
ATOM     20  C   UNL     1      33.662 -24.089 -15.357  0.00  0.00    +0.040 C 
ATOM     21  C   UNL     1      34.941 -23.598 -16.044  0.00  0.00    -0.019 C 
ATOM     22  C   UNL     1      32.490 -23.177 -15.731  0.00  0.00    -0.019 C 
ATOM     23  C   UNL     1      34.734 -23.433 -17.551  0.00  0.00    -0.077 C 
ATOM     24  C   UNL     1      32.364 -23.026 -17.248  0.00  0.00    -0.077 C 
ATOM     25  H   UNL     1      33.824 -21.623 -17.410  0.00  0.00    -0.079 HD
BRANCH  19  26
ATOM     26  C   UNL     1      33.462 -22.339 -19.279  0.00  0.00    -0.049 C 
BRANCH  26  29
ATOM     27 CL   UNL     1      32.700 -20.278 -21.389  0.00  0.00    -0.082 Cl
ATOM     28 CL   UNL     1      35.146 -18.536 -22.532  0.00  0.00    -0.081 Cl
ATOM     29  C   UNL     1      34.566 -21.491 -19.854  0.00  0.00    -0.032 C 
ATOM     30  C   UNL     1      34.322 -20.520 -20.825  0.00  0.00    +0.062 C 
ATOM     31  C   UNL     1      35.863 -21.701 -19.388  0.00  0.00    -0.005 C 
ATOM     32  C   UNL     1      35.377 -19.757 -21.329  0.00  0.00    +0.068 C 
ATOM     33  C   UNL     1      36.917 -20.939 -19.891  0.00  0.00    +0.001 C 
ATOM     34  C   UNL     1      36.674 -19.967 -20.862  0.00  0.00    +0.012 C 
ENDBRANCH  26  29
ENDBRANCH  19  26
ENDBRANCH  18  20
ENDBRANCH   1  18
TORSDOF 5
ENDMDL
MODEL 9
REMARK VINA RESULT:     -10.7      1.208      1.626
REMARK  Name = 24978486
REMARK  5 active torsions:
REMARK  status: ('A' for Active; 'I' for Inactive)
REMARK    1  A    between atoms: O_1  and  C_6
REMARK    2  A    between atoms: O_1  and  C_18
REMARK    3  A    between atoms: C_18  and  C_20
REMARK    4  A    between atoms: N_19  and  C_26
REMARK    5  A    between atoms: C_26  and  C_29
REMARK                            x       y       z     vdW  Elec       q    Type
REMARK                         _______ _______ _______ _____ _____    ______ ____
ROOT
ATOM      1  O   UNL     1      35.093 -22.422 -18.594  0.00  0.00    -0.479 OA
ENDROOT
BRANCH   1   6
ATOM      2  N   UNL     1      35.719 -23.780 -13.985  0.00  0.00    -0.332 NA
ATOM      3  N   UNL     1      37.635 -22.996 -15.217  0.00  0.00    -0.317 NA
ATOM      4  N   UNL     1      37.456 -22.315 -17.440  0.00  0.00    -0.335 N 
ATOM      5  N   UNL     1      37.837 -23.675 -12.984  0.00  0.00    -0.283 N 
ATOM      6  C   UNL     1      34.637 -22.900 -17.391  0.00  0.00    +0.130 C 
ATOM      7  C   UNL     1      35.462 -23.096 -16.269  0.00  0.00    +0.177 C 
ATOM      8  C   UNL     1      33.281 -23.198 -17.316  0.00  0.00    +0.033 C 
ATOM      9  C   UNL     1      34.938 -23.590 -15.064  0.00  0.00    +0.137 C 
ATOM     10  C   UNL     1      36.826 -22.817 -16.277  0.00  0.00    +0.181 C 
ATOM     11  C   UNL     1      32.750 -23.689 -16.128  0.00  0.00    +0.005 C 
ATOM     12  C   UNL     1      33.577 -23.880 -15.017  0.00  0.00    +0.030 C 
ATOM     13  C   UNL     1      37.025 -23.473 -14.120  0.00  0.00    +0.197 C 
ATOM     14  H   UNL     1      38.421 -22.122 -17.432  0.00  0.00    +0.144 HD
ATOM     15  H   UNL     1      36.929 -22.158 -18.256  0.00  0.00    +0.144 HD
ATOM     16  H   UNL     1      37.442 -24.023 -12.152  0.00  0.00    +0.156 HD
ATOM     17  H   UNL     1      38.799 -23.466 -13.022  0.00  0.00    +0.156 HD
ENDBRANCH   1   6
BRANCH   1  18
ATOM     18  C   UNL     1      34.125 -21.905 -19.489  0.00  0.00    +0.205 C 
BRANCH  18  20
ATOM     19  N   UNL     1      35.753 -18.753 -21.951  0.00  0.00    +0.390 N 
ATOM     20  C   UNL     1      34.848 -21.214 -20.641  0.00  0.00    +0.040 C 
ATOM     21  C   UNL     1      36.047 -20.406 -20.134  0.00  0.00    -0.019 C 
ATOM     22  C   UNL     1      33.896 -20.297 -21.417  0.00  0.00    -0.019 C 
ATOM     23  C   UNL     1      36.715 -19.630 -21.271  0.00  0.00    -0.077 C 
ATOM     24  C   UNL     1      34.636 -19.525 -22.511  0.00  0.00    -0.077 C 
ATOM     25  H   UNL     1      35.374 -18.105 -21.260  0.00  0.00    -0.079 HD
BRANCH  19  26
ATOM     26  C   UNL     1      36.418 -17.980 -23.000  0.00  0.00    -0.049 C 
BRANCH  26  29
ATOM     27 CL   UNL     1      35.275 -15.964 -21.023  0.00  0.00    -0.082 Cl
ATOM     28 CL   UNL     1      33.397 -13.704 -22.321  0.00  0.00    -0.081 Cl
ATOM     29  C   UNL     1      35.529 -16.896 -23.548  0.00  0.00    -0.032 C 
ATOM     30  C   UNL     1      34.956 -15.924 -22.727  0.00  0.00    +0.062 C 
ATOM     31  C   UNL     1      35.285 -16.880 -24.921  0.00  0.00    -0.005 C 
ATOM     32  C   UNL     1      34.139 -14.938 -23.280  0.00  0.00    +0.068 C 
ATOM     33  C   UNL     1      34.468 -15.894 -25.474  0.00  0.00    +0.001 C 
ATOM     34  C   UNL     1      33.895 -14.923 -24.652  0.00  0.00    +0.012 C 
ENDBRANCH  26  29
ENDBRANCH  19  26
ENDBRANCH  18  20
ENDBRANCH   1  18
TORSDOF 5
ENDMDL
