MODEL 1
REMARK VINA RESULT:     -12.0      0.000      0.000
REMARK  Name = 17758361
REMARK  5 active torsions:
REMARK  status: ('A' for Active; 'I' for Inactive)
REMARK    1  A    between atoms: N_1  and  C_18
REMARK    2  A    between atoms: C_4  and  C_10
REMARK    3  A    between atoms: C_10  and  C_11
REMARK    4  A    between atoms: C_18  and  C_19
REMARK    5  A    between atoms: C_22  and  C_27
REMARK                            x       y       z     vdW  Elec       q    Type
REMARK                         _______ _______ _______ _____ _____    ______ ____
ROOT
ATOM      1  N   UNL     1      32.738 -22.492 -18.581  0.00  0.00    -0.314 N 
ATOM      2  N   UNL     1      30.810 -22.533 -17.231  0.00  0.00    -0.229 NA
ATOM      3  C   UNL     1      32.118 -22.836 -17.392  0.00  0.00    +0.129 C 
ATOM      4  C   UNL     1      32.281 -23.825 -15.236  0.00  0.00    +0.043 C 
ATOM      5  C   UNL     1      32.890 -23.475 -16.435  0.00  0.00    +0.037 C 
ATOM      6  C   UNL     1      30.937 -23.530 -15.033  0.00  0.00    +0.024 C 
ATOM      7  C   UNL     1      30.252 -22.888 -16.052  0.00  0.00    +0.100 C 
ATOM      8  H   UNL     1      32.201 -22.039 -19.271  0.00  0.00    +0.149 HD
ENDROOT
BRANCH   4  10
ATOM      9  O   UNL     1      32.464 -25.126 -13.301  0.00  0.00    -0.287 OA
ATOM     10  C   UNL     1      33.045 -24.496 -14.196  0.00  0.00    +0.196 C 
BRANCH  10  11
ATOM     11  C   UNL     1      34.539 -24.462 -14.152  0.00  0.00    +0.039 C 
ATOM     12  C   UNL     1      35.192 -23.848 -13.083  0.00  0.00    -0.001 C 
ATOM     13  C   UNL     1      36.585 -23.818 -13.042  0.00  0.00    -0.022 C 
ATOM     14  C   UNL     1      35.279 -25.046 -15.179  0.00  0.00    +0.003 C 
ATOM     15  C   UNL     1      37.326 -24.402 -14.069  0.00  0.00    -0.004 C 
ATOM     16  C   UNL     1      36.673 -25.017 -15.137  0.00  0.00    -0.000 C 
ATOM     17  C   UNL     1      37.284 -23.164 -11.898  0.00  0.00    +0.031 C 
ENDBRANCH  10  11
ENDBRANCH   4  10
BRANCH   1  18
ATOM     18  C   UNL     1      34.130 -22.764 -18.866  0.00  0.00    +0.115 C 
BRANCH  18  19
ATOM     19  C   UNL     1      34.723 -21.684 -19.708  0.00  0.00    -0.003 C 
ATOM     20  C   UNL     1      36.106 -21.509 -19.743  0.00  0.00    -0.003 C 
ATOM     21  C   UNL     1      33.894 -20.850 -20.459  0.00  0.00    -0.003 C 
ATOM     22  C   UNL     1      35.833 -19.665 -21.280  0.00  0.00    +0.031 C 
ATOM     23  C   UNL     1      36.661 -20.499 -20.529  0.00  0.00    +0.002 C 
ATOM     24  C   UNL     1      34.450 -19.841 -21.245  0.00  0.00    +0.002 C 
BRANCH  22  27
ATOM     25  N   UNL     1      37.761 -18.628 -22.453  0.00  0.00    -0.343 N 
ATOM     26  N   UNL     1      35.656 -17.614 -22.519  0.00  0.00    -0.285 NA
ATOM     27  C   UNL     1      36.413 -18.613 -22.099  0.00  0.00    +0.117 C 
ATOM     28  H   UNL     1      38.133 -17.906 -23.008  0.00  0.00    +0.144 HD
ATOM     29  H   UNL     1      38.342 -19.363 -22.147  0.00  0.00    +0.144 HD
ATOM     30  H   UNL     1      36.047 -16.901 -23.074  0.00  0.00    +0.188 HD
ENDBRANCH  22  27
ENDBRANCH  18  19
ENDBRANCH   1  18
TORSDOF 5
ENDMDL
MODEL 2
REMARK VINA RESULT:     -11.8      0.853      1.475
REMARK  Name = 17758361
REMARK  5 active torsions:
REMARK  status: ('A' for Active; 'I' for Inactive)
REMARK    1  A    between atoms: N_1  and  C_18
REMARK    2  A    between atoms: C_4  and  C_10
REMARK    3  A    between atoms: C_10  and  C_11
REMARK    4  A    between atoms: C_18  and  C_19
REMARK    5  A    between atoms: C_22  and  C_27
REMARK                            x       y       z     vdW  Elec       q    Type
REMARK                         _______ _______ _______ _____ _____    ______ ____
ROOT
ATOM      1  N   UNL     1      32.758 -22.673 -18.615  0.00  0.00    -0.314 N 
ATOM      2  N   UNL     1      31.000 -22.712 -17.051  0.00  0.00    -0.229 NA
ATOM      3  C   UNL     1      32.303 -22.934 -17.333  0.00  0.00    +0.129 C 
ATOM      4  C   UNL     1      32.784 -23.672 -15.125  0.00  0.00    +0.043 C 
ATOM      5  C   UNL     1      33.227 -23.408 -16.416  0.00  0.00    +0.037 C 
ATOM      6  C   UNL     1      31.450 -23.457 -14.795  0.00  0.00    +0.024 C 
ATOM      7  C   UNL     1      30.606 -22.980 -15.785  0.00  0.00    +0.100 C 
ATOM      8  H   UNL     1      32.113 -22.336 -19.278  0.00  0.00    +0.149 HD
ENDROOT
BRANCH   4  10
ATOM      9  O   UNL     1      33.303 -24.493 -12.997  0.00  0.00    -0.287 OA
ATOM     10  C   UNL     1      33.712 -24.171 -14.122  0.00  0.00    +0.196 C 
BRANCH  10  11
ATOM     11  C   UNL     1      35.175 -24.319 -14.388  0.00  0.00    +0.039 C 
ATOM     12  C   UNL     1      35.691 -25.555 -14.781  0.00  0.00    -0.001 C 
ATOM     13  C   UNL     1      37.056 -25.693 -15.030  0.00  0.00    -0.022 C 
ATOM     14  C   UNL     1      36.024 -23.223 -14.244  0.00  0.00    +0.003 C 
ATOM     15  C   UNL     1      37.906 -24.595 -14.887  0.00  0.00    -0.004 C 
ATOM     16  C   UNL     1      37.389 -23.360 -14.494  0.00  0.00    -0.000 C 
ATOM     17  C   UNL     1      37.608 -27.012 -15.454  0.00  0.00    +0.031 C 
ENDBRANCH  10  11
ENDBRANCH   4  10
BRANCH   1  18
ATOM     18  C   UNL     1      34.129 -22.870 -19.033  0.00  0.00    +0.115 C 
BRANCH  18  19
ATOM     19  C   UNL     1      34.618 -21.705 -19.827  0.00  0.00    -0.003 C 
ATOM     20  C   UNL     1      35.985 -21.440 -19.905  0.00  0.00    -0.003 C 
ATOM     21  C   UNL     1      33.708 -20.880 -20.489  0.00  0.00    -0.003 C 
ATOM     22  C   UNL     1      35.533 -19.526 -21.308  0.00  0.00    +0.031 C 
ATOM     23  C   UNL     1      36.442 -20.350 -20.645  0.00  0.00    +0.002 C 
ATOM     24  C   UNL     1      34.166 -19.791 -21.230  0.00  0.00    +0.002 C 
BRANCH  22  27
ATOM     25  N   UNL     1      36.930 -18.552 -23.115  0.00  0.00    -0.343 N 
ATOM     26  N   UNL     1      35.576 -17.175 -21.800  0.00  0.00    -0.285 NA
ATOM     27  C   UNL     1      36.011 -18.390 -22.080  0.00  0.00    +0.117 C 
ATOM     28  H   UNL     1      37.240 -17.769 -23.625  0.00  0.00    +0.144 HD
ATOM     29  H   UNL     1      37.268 -19.450 -23.337  0.00  0.00    +0.144 HD
ATOM     30  H   UNL     1      35.898 -16.404 -22.321  0.00  0.00    +0.188 HD
ENDBRANCH  22  27
ENDBRANCH  18  19
ENDBRANCH   1  18
TORSDOF 5
ENDMDL
MODEL 3
REMARK VINA RESULT:     -11.6      5.329      9.045
REMARK  Name = 17758361
REMARK  5 active torsions:
REMARK  status: ('A' for Active; 'I' for Inactive)
REMARK    1  A    between atoms: N_1  and  C_18
REMARK    2  A    between atoms: C_4  and  C_10
REMARK    3  A    between atoms: C_10  and  C_11
REMARK    4  A    between atoms: C_18  and  C_19
REMARK    5  A    between atoms: C_22  and  C_27
REMARK                            x       y       z     vdW  Elec       q    Type
REMARK                         _______ _______ _______ _____ _____    ______ ____
ROOT
ATOM      1  N   UNL     1      34.522 -15.314 -24.973  0.00  0.00    -0.314 N 
ATOM      2  N   UNL     1      33.960 -17.500 -25.641  0.00  0.00    -0.229 NA
ATOM      3  C   UNL     1      34.612 -16.683 -24.784  0.00  0.00    +0.129 C 
ATOM      4  C   UNL     1      35.469 -18.499 -23.511  0.00  0.00    +0.043 C 
ATOM      5  C   UNL     1      35.372 -17.127 -23.714  0.00  0.00    +0.037 C 
ATOM      6  C   UNL     1      34.813 -19.372 -24.372  0.00  0.00    +0.024 C 
ATOM      7  C   UNL     1      34.077 -18.827 -25.413  0.00  0.00    +0.100 C 
ATOM      8  H   UNL     1      33.986 -14.984 -25.730  0.00  0.00    +0.149 HD
ENDROOT
BRANCH   4  10
ATOM      9  O   UNL     1      37.454 -18.732 -22.295  0.00  0.00    -0.287 OA
ATOM     10  C   UNL     1      36.253 -19.020 -22.402  0.00  0.00    +0.196 C 
BRANCH  10  11
ATOM     11  C   UNL     1      35.666 -19.912 -21.356  0.00  0.00    +0.039 C 
ATOM     12  C   UNL     1      36.495 -20.519 -20.412  0.00  0.00    -0.001 C 
ATOM     13  C   UNL     1      35.947 -21.350 -19.435  0.00  0.00    -0.022 C 
ATOM     14  C   UNL     1      34.290 -20.136 -21.324  0.00  0.00    +0.003 C 
ATOM     15  C   UNL     1      34.570 -21.574 -19.402  0.00  0.00    -0.004 C 
ATOM     16  C   UNL     1      33.742 -20.967 -20.346  0.00  0.00    -0.000 C 
ATOM     17  C   UNL     1      36.832 -21.997 -18.424  0.00  0.00    +0.031 C 
ENDBRANCH  10  11
ENDBRANCH   4  10
BRANCH   1  18
ATOM     18  C   UNL     1      35.173 -14.344 -24.121  0.00  0.00    +0.115 C 
BRANCH  18  19
ATOM     19  C   UNL     1      34.200 -13.725 -23.174  0.00  0.00    -0.003 C 
ATOM     20  C   UNL     1      33.966 -14.314 -21.932  0.00  0.00    -0.003 C 
ATOM     21  C   UNL     1      33.522 -12.560 -23.533  0.00  0.00    -0.003 C 
ATOM     22  C   UNL     1      32.378 -12.572 -21.405  0.00  0.00    +0.031 C 
ATOM     23  C   UNL     1      33.055 -13.737 -21.048  0.00  0.00    +0.002 C 
ATOM     24  C   UNL     1      32.611 -11.983 -22.648  0.00  0.00    +0.002 C 
BRANCH  22  27
ATOM     25  N   UNL     1      31.673 -11.934 -19.111  0.00  0.00    -0.343 N 
ATOM     26  N   UNL     1      30.304 -11.450 -20.942  0.00  0.00    -0.285 NA
ATOM     27  C   UNL     1      31.428 -11.971 -20.483  0.00  0.00    +0.117 C 
ATOM     28  H   UNL     1      31.017 -11.522 -18.504  0.00  0.00    +0.144 HD
ATOM     29  H   UNL     1      32.504 -12.320 -18.749  0.00  0.00    +0.144 HD
ATOM     30  H   UNL     1      29.660 -11.042 -20.319  0.00  0.00    +0.188 HD
ENDBRANCH  22  27
ENDBRANCH  18  19
ENDBRANCH   1  18
TORSDOF 5
ENDMDL
MODEL 4
REMARK VINA RESULT:     -11.4      1.651      4.256
REMARK  Name = 17758361
REMARK  5 active torsions:
REMARK  status: ('A' for Active; 'I' for Inactive)
REMARK    1  A    between atoms: N_1  and  C_18
REMARK    2  A    between atoms: C_4  and  C_10
REMARK    3  A    between atoms: C_10  and  C_11
REMARK    4  A    between atoms: C_18  and  C_19
REMARK    5  A    between atoms: C_22  and  C_27
REMARK                            x       y       z     vdW  Elec       q    Type
REMARK                         _______ _______ _______ _____ _____    ______ ____
ROOT
ATOM      1  N   UNL     1      35.132 -22.916 -17.867  0.00  0.00    -0.314 N 
ATOM      2  N   UNL     1      36.167 -23.819 -15.955  0.00  0.00    -0.229 NA
ATOM      3  C   UNL     1      35.049 -23.354 -16.556  0.00  0.00    +0.129 C 
ATOM      4  C   UNL     1      33.710 -23.726 -14.627  0.00  0.00    +0.043 C 
ATOM      5  C   UNL     1      33.808 -23.288 -15.943  0.00  0.00    +0.037 C 
ATOM      6  C   UNL     1      34.838 -24.211 -13.975  0.00  0.00    +0.024 C 
ATOM      7  C   UNL     1      36.033 -24.236 -14.677  0.00  0.00    +0.100 C 
ATOM      8  H   UNL     1      36.008 -22.957 -18.316  0.00  0.00    +0.149 HD
ENDROOT
BRANCH   4  10
ATOM      9  O   UNL     1      32.371 -23.298 -12.757  0.00  0.00    -0.287 OA
ATOM     10  C   UNL     1      32.431 -23.679 -13.935  0.00  0.00    +0.196 C 
BRANCH  10  11
ATOM     11  C   UNL     1      31.150 -24.079 -14.592  0.00  0.00    +0.039 C 
ATOM     12  C   UNL     1      30.318 -23.107 -15.148  0.00  0.00    -0.001 C 
ATOM     13  C   UNL     1      29.123 -23.480 -15.762  0.00  0.00    -0.022 C 
ATOM     14  C   UNL     1      30.787 -25.424 -14.650  0.00  0.00    +0.003 C 
ATOM     15  C   UNL     1      28.760 -24.826 -15.821  0.00  0.00    -0.004 C 
ATOM     16  C   UNL     1      29.592 -25.798 -15.266  0.00  0.00    -0.000 C 
ATOM     17  C   UNL     1      28.234 -22.442 -16.360  0.00  0.00    +0.031 C 
ENDBRANCH  10  11
ENDBRANCH   4  10
BRANCH   1  18
ATOM     18  C   UNL     1      34.004 -22.401 -18.612  0.00  0.00    +0.115 C 
BRANCH  18  19
ATOM     19  C   UNL     1      34.457 -21.492 -19.705  0.00  0.00    -0.003 C 
ATOM     20  C   UNL     1      35.819 -21.311 -19.941  0.00  0.00    -0.003 C 
ATOM     21  C   UNL     1      33.517 -20.823 -20.490  0.00  0.00    -0.003 C 
ATOM     22  C   UNL     1      35.304 -19.791 -21.747  0.00  0.00    +0.031 C 
ATOM     23  C   UNL     1      36.242 -20.460 -20.962  0.00  0.00    +0.002 C 
ATOM     24  C   UNL     1      33.941 -19.973 -21.511  0.00  0.00    +0.002 C 
BRANCH  22  27
ATOM     25  N   UNL     1      37.021 -18.343 -22.804  0.00  0.00    -0.343 N 
ATOM     26  N   UNL     1      34.929 -18.615 -23.808  0.00  0.00    -0.285 NA
ATOM     27  C   UNL     1      35.746 -18.904 -22.811  0.00  0.00    +0.117 C 
ATOM     28  H   UNL     1      37.301 -17.745 -23.535  0.00  0.00    +0.144 HD
ATOM     29  H   UNL     1      37.644 -18.544 -22.068  0.00  0.00    +0.144 HD
ATOM     30  H   UNL     1      35.226 -18.015 -24.530  0.00  0.00    +0.188 HD
ENDBRANCH  22  27
ENDBRANCH  18  19
ENDBRANCH   1  18
TORSDOF 5
ENDMDL
MODEL 5
REMARK VINA RESULT:     -11.0      3.759      9.171
REMARK  Name = 17758361
REMARK  5 active torsions:
REMARK  status: ('A' for Active; 'I' for Inactive)
REMARK    1  A    between atoms: N_1  and  C_18
REMARK    2  A    between atoms: C_4  and  C_10
REMARK    3  A    between atoms: C_10  and  C_11
REMARK    4  A    between atoms: C_18  and  C_19
REMARK    5  A    between atoms: C_22  and  C_27
REMARK                            x       y       z     vdW  Elec       q    Type
REMARK                         _______ _______ _______ _____ _____    ______ ____
ROOT
ATOM      1  N   UNL     1      35.253 -22.452 -18.156  0.00  0.00    -0.314 N 
ATOM      2  N   UNL     1      33.536 -21.824 -19.637  0.00  0.00    -0.229 NA
ATOM      3  C   UNL     1      34.817 -21.692 -19.228  0.00  0.00    +0.129 C 
ATOM      4  C   UNL     1      35.311 -20.070 -20.895  0.00  0.00    +0.043 C 
ATOM      5  C   UNL     1      35.736 -20.838 -19.816  0.00  0.00    +0.037 C 
ATOM      6  C   UNL     1      34.000 -20.178 -21.345  0.00  0.00    +0.024 C 
ATOM      7  C   UNL     1      33.159 -21.062 -20.688  0.00  0.00    +0.100 C 
ATOM      8  H   UNL     1      34.611 -23.063 -17.727  0.00  0.00    +0.149 HD
ENDROOT
BRANCH   4  10
ATOM      9  O   UNL     1      37.451 -19.392 -21.552  0.00  0.00    -0.287 OA
ATOM     10  C   UNL     1      36.235 -19.157 -21.550  0.00  0.00    +0.196 C 
BRANCH  10  11
ATOM     11  C   UNL     1      35.776 -17.914 -22.242  0.00  0.00    +0.039 C 
ATOM     12  C   UNL     1      35.388 -16.802 -21.493  0.00  0.00    -0.001 C 
ATOM     13  C   UNL     1      34.960 -15.642 -22.138  0.00  0.00    -0.022 C 
ATOM     14  C   UNL     1      35.737 -17.865 -23.634  0.00  0.00    +0.003 C 
ATOM     15  C   UNL     1      34.922 -15.593 -23.532  0.00  0.00    -0.004 C 
ATOM     16  C   UNL     1      35.311 -16.704 -24.280  0.00  0.00    -0.000 C 
ATOM     17  C   UNL     1      34.548 -14.452 -21.339  0.00  0.00    +0.031 C 
ENDBRANCH  10  11
ENDBRANCH   4  10
BRANCH   1  18
ATOM     18  C   UNL     1      36.600 -22.396 -17.631  0.00  0.00    +0.115 C 
BRANCH  18  19
ATOM     19  C   UNL     1      36.660 -22.966 -16.253  0.00  0.00    -0.003 C 
ATOM     20  C   UNL     1      35.489 -23.122 -15.512  0.00  0.00    -0.003 C 
ATOM     21  C   UNL     1      37.888 -23.340 -15.706  0.00  0.00    -0.003 C 
ATOM     22  C   UNL     1      36.772 -24.028 -13.677  0.00  0.00    +0.031 C 
ATOM     23  C   UNL     1      35.545 -23.653 -14.224  0.00  0.00    +0.002 C 
ATOM     24  C   UNL     1      37.943 -23.871 -14.418  0.00  0.00    +0.002 C 
BRANCH  22  27
ATOM     25  N   UNL     1      37.254 -23.815 -11.250  0.00  0.00    -0.343 N 
ATOM     26  N   UNL     1      36.477 -25.838 -12.124  0.00  0.00    -0.285 NA
ATOM     27  C   UNL     1      36.829 -24.582 -12.333  0.00  0.00    +0.117 C 
ATOM     28  H   UNL     1      37.285 -24.209 -10.349  0.00  0.00    +0.144 HD
ATOM     29  H   UNL     1      37.524 -22.877 -11.386  0.00  0.00    +0.144 HD
ATOM     30  H   UNL     1      36.515 -26.215 -11.215  0.00  0.00    +0.188 HD
ENDBRANCH  22  27
ENDBRANCH  18  19
ENDBRANCH   1  18
TORSDOF 5
ENDMDL
MODEL 6
REMARK VINA RESULT:     -10.8      1.492      2.500
REMARK  Name = 17758361
REMARK  5 active torsions:
REMARK  status: ('A' for Active; 'I' for Inactive)
REMARK    1  A    between atoms: N_1  and  C_18
REMARK    2  A    between atoms: C_4  and  C_10
REMARK    3  A    between atoms: C_10  and  C_11
REMARK    4  A    between atoms: C_18  and  C_19
REMARK    5  A    between atoms: C_22  and  C_27
REMARK                            x       y       z     vdW  Elec       q    Type
REMARK                         _______ _______ _______ _____ _____    ______ ____
ROOT
ATOM      1  N   UNL     1      33.035 -22.734 -18.273  0.00  0.00    -0.314 N 
ATOM      2  N   UNL     1      32.391 -22.861 -16.012  0.00  0.00    -0.229 NA
ATOM      3  C   UNL     1      33.243 -23.227 -16.996  0.00  0.00    +0.129 C 
ATOM      4  C   UNL     1      34.548 -24.572 -15.532  0.00  0.00    +0.043 C 
ATOM      5  C   UNL     1      34.327 -24.071 -16.810  0.00  0.00    +0.037 C 
ATOM      6  C   UNL     1      33.693 -24.218 -14.494  0.00  0.00    +0.024 C 
ATOM      7  C   UNL     1      32.638 -23.367 -14.784  0.00  0.00    +0.100 C 
ATOM      8  H   UNL     1      32.269 -22.134 -18.420  0.00  0.00    +0.149 HD
ENDROOT
BRANCH   4  10
ATOM      9  O   UNL     1      35.759 -26.543 -15.880  0.00  0.00    -0.287 OA
ATOM     10  C   UNL     1      35.671 -25.462 -15.280  0.00  0.00    +0.196 C 
BRANCH  10  11
ATOM     11  C   UNL     1      36.755 -25.127 -14.307  0.00  0.00    +0.039 C 
ATOM     12  C   UNL     1      38.071 -25.512 -14.568  0.00  0.00    -0.001 C 
ATOM     13  C   UNL     1      39.082 -25.199 -13.660  0.00  0.00    -0.022 C 
ATOM     14  C   UNL     1      36.451 -24.430 -13.138  0.00  0.00    +0.003 C 
ATOM     15  C   UNL     1      38.778 -24.501 -12.491  0.00  0.00    -0.004 C 
ATOM     16  C   UNL     1      37.463 -24.116 -12.230  0.00  0.00    -0.000 C 
ATOM     17  C   UNL     1      40.488 -25.607 -13.940  0.00  0.00    +0.031 C 
ENDBRANCH  10  11
ENDBRANCH   4  10
BRANCH   1  18
ATOM     18  C   UNL     1      33.881 -23.054 -19.402  0.00  0.00    +0.115 C 
BRANCH  18  19
ATOM     19  C   UNL     1      34.414 -21.815 -20.038  0.00  0.00    -0.003 C 
ATOM     20  C   UNL     1      33.536 -20.892 -20.609  0.00  0.00    -0.003 C 
ATOM     21  C   UNL     1      35.788 -21.579 -20.065  0.00  0.00    -0.003 C 
ATOM     22  C   UNL     1      35.408 -19.498 -21.232  0.00  0.00    +0.031 C 
ATOM     23  C   UNL     1      34.034 -19.734 -21.206  0.00  0.00    +0.002 C 
ATOM     24  C   UNL     1      36.285 -20.420 -20.661  0.00  0.00    +0.002 C 
BRANCH  22  27
ATOM     25  N   UNL     1      35.533 -17.025 -21.421  0.00  0.00    -0.343 N 
ATOM     26  N   UNL     1      36.784 -18.382 -22.855  0.00  0.00    -0.285 NA
ATOM     27  C   UNL     1      35.925 -18.290 -21.854  0.00  0.00    +0.117 C 
ATOM     28  H   UNL     1      35.896 -16.220 -21.856  0.00  0.00    +0.144 HD
ATOM     29  H   UNL     1      34.891 -16.936 -20.679  0.00  0.00    +0.144 HD
ATOM     30  H   UNL     1      37.136 -17.565 -23.277  0.00  0.00    +0.188 HD
ENDBRANCH  22  27
ENDBRANCH  18  19
ENDBRANCH   1  18
TORSDOF 5
ENDMDL
MODEL 7
REMARK VINA RESULT:     -10.8     11.106     16.106
REMARK  Name = 17758361
REMARK  5 active torsions:
REMARK  status: ('A' for Active; 'I' for Inactive)
REMARK    1  A    between atoms: N_1  and  C_18
REMARK    2  A    between atoms: C_4  and  C_10
REMARK    3  A    between atoms: C_10  and  C_11
REMARK    4  A    between atoms: C_18  and  C_19
REMARK    5  A    between atoms: C_22  and  C_27
REMARK                            x       y       z     vdW  Elec       q    Type
REMARK                         _______ _______ _______ _____ _____    ______ ____
ROOT
ATOM      1  N   UNL     1      31.971 -10.455 -20.479  0.00  0.00    -0.314 N 
ATOM      2  N   UNL     1      32.835  -8.336 -19.928  0.00  0.00    -0.229 NA
ATOM      3  C   UNL     1      32.279  -9.156 -20.847  0.00  0.00    +0.129 C 
ATOM      4  C   UNL     1      32.294  -7.479 -22.533  0.00  0.00    +0.043 C 
ATOM      5  C   UNL     1      31.991  -8.781 -22.150  0.00  0.00    +0.037 C 
ATOM      6  C   UNL     1      32.867  -6.605 -21.615  0.00  0.00    +0.024 C 
ATOM      7  C   UNL     1      33.116  -7.078 -20.337  0.00  0.00    +0.100 C 
ATOM      8  H   UNL     1      32.171 -10.736 -19.556  0.00  0.00    +0.149 HD
ENDROOT
BRANCH   4  10
ATOM      9  O   UNL     1      30.954  -7.356 -24.446  0.00  0.00    -0.287 OA
ATOM     10  C   UNL     1      32.011  -7.032 -23.888  0.00  0.00    +0.196 C 
BRANCH  10  11
ATOM     11  C   UNL     1      32.961  -6.176 -24.662  0.00  0.00    +0.039 C 
ATOM     12  C   UNL     1      32.513  -4.993 -25.251  0.00  0.00    -0.001 C 
ATOM     13  C   UNL     1      33.399  -4.194 -25.972  0.00  0.00    -0.022 C 
ATOM     14  C   UNL     1      34.295  -6.560 -24.795  0.00  0.00    +0.003 C 
ATOM     15  C   UNL     1      34.734  -4.578 -26.106  0.00  0.00    -0.004 C 
ATOM     16  C   UNL     1      35.182  -5.760 -25.517  0.00  0.00    -0.000 C 
ATOM     17  C   UNL     1      32.922  -2.928 -26.599  0.00  0.00    +0.031 C 
ENDBRANCH  10  11
ENDBRANCH   4  10
BRANCH   1  18
ATOM     18  C   UNL     1      31.373 -11.421 -21.374  0.00  0.00    +0.115 C 
BRANCH  18  19
ATOM     19  C   UNL     1      32.335 -12.514 -21.700  0.00  0.00    -0.003 C 
ATOM     20  C   UNL     1      32.718 -13.422 -20.714  0.00  0.00    -0.003 C 
ATOM     21  C   UNL     1      32.851 -12.626 -22.992  0.00  0.00    -0.003 C 
ATOM     22  C   UNL     1      34.135 -14.556 -22.308  0.00  0.00    +0.031 C 
ATOM     23  C   UNL     1      33.618 -14.442 -21.018  0.00  0.00    +0.002 C 
ATOM     24  C   UNL     1      33.751 -13.648 -23.295  0.00  0.00    +0.002 C 
BRANCH  22  27
ATOM     25  N   UNL     1      35.356 -16.634 -21.710  0.00  0.00    -0.343 N 
ATOM     26  N   UNL     1      35.679 -15.637 -23.798  0.00  0.00    -0.285 NA
ATOM     27  C   UNL     1      35.073 -15.621 -22.624  0.00  0.00    +0.117 C 
ATOM     28  H   UNL     1      35.994 -17.345 -21.944  0.00  0.00    +0.144 HD
ATOM     29  H   UNL     1      34.916 -16.638 -20.828  0.00  0.00    +0.144 HD
ATOM     30  H   UNL     1      36.314 -16.357 -24.015  0.00  0.00    +0.188 HD
ENDBRANCH  22  27
ENDBRANCH  18  19
ENDBRANCH   1  18
TORSDOF 5
ENDMDL
MODEL 8
REMARK VINA RESULT:     -10.8      8.806     12.798
REMARK  Name = 17758361
REMARK  5 active torsions:
REMARK  status: ('A' for Active; 'I' for Inactive)
REMARK    1  A    between atoms: N_1  and  C_18
REMARK    2  A    between atoms: C_4  and  C_10
REMARK    3  A    between atoms: C_10  and  C_11
REMARK    4  A    between atoms: C_18  and  C_19
REMARK    5  A    between atoms: C_22  and  C_27
REMARK                            x       y       z     vdW  Elec       q    Type
REMARK                         _______ _______ _______ _____ _____    ______ ____
ROOT
ATOM      1  N   UNL     1      34.584 -12.507 -25.783  0.00  0.00    -0.314 N 
ATOM      2  N   UNL     1      35.435 -10.359 -25.336  0.00  0.00    -0.229 NA
ATOM      3  C   UNL     1      34.496 -11.302 -25.106  0.00  0.00    +0.129 C 
ATOM      4  C   UNL     1      33.337  -9.941 -23.538  0.00  0.00    +0.043 C 
ATOM      5  C   UNL     1      33.437 -11.146 -24.226  0.00  0.00    +0.037 C 
ATOM      6  C   UNL     1      34.285  -8.946 -23.748  0.00  0.00    +0.024 C 
ATOM      7  C   UNL     1      35.306  -9.202 -24.650  0.00  0.00    +0.100 C 
ATOM      8  H   UNL     1      35.330 -12.633 -26.413  0.00  0.00    +0.149 HD
ENDROOT
BRANCH   4  10
ATOM      9  O   UNL     1      31.401  -8.844 -22.819  0.00  0.00    -0.287 OA
ATOM     10  C   UNL     1      32.246  -9.723 -22.601  0.00  0.00    +0.196 C 
BRANCH  10  11
ATOM     11  C   UNL     1      32.090 -10.530 -21.352  0.00  0.00    +0.039 C 
ATOM     12  C   UNL     1      32.320 -11.906 -21.377  0.00  0.00    -0.001 C 
ATOM     13  C   UNL     1      32.175 -12.659 -20.213  0.00  0.00    -0.022 C 
ATOM     14  C   UNL     1      31.716  -9.907 -20.163  0.00  0.00    +0.003 C 
ATOM     15  C   UNL     1      31.801 -12.035 -19.022  0.00  0.00    -0.004 C 
ATOM     16  C   UNL     1      31.571 -10.660 -18.997  0.00  0.00    -0.000 C 
ATOM     17  C   UNL     1      32.424 -14.129 -20.238  0.00  0.00    +0.031 C 
ENDBRANCH  10  11
ENDBRANCH   4  10
BRANCH   1  18
ATOM     18  C   UNL     1      33.639 -13.590 -25.617  0.00  0.00    +0.115 C 
BRANCH  18  19
ATOM     19  C   UNL     1      34.245 -14.713 -24.844  0.00  0.00    -0.003 C 
ATOM     20  C   UNL     1      34.568 -15.907 -25.489  0.00  0.00    -0.003 C 
ATOM     21  C   UNL     1      34.486 -14.570 -23.478  0.00  0.00    -0.003 C 
ATOM     22  C   UNL     1      35.375 -16.816 -23.401  0.00  0.00    +0.031 C 
ATOM     23  C   UNL     1      35.133 -16.958 -24.767  0.00  0.00    +0.002 C 
ATOM     24  C   UNL     1      35.051 -15.622 -22.756  0.00  0.00    +0.002 C 
BRANCH  22  27
ATOM     25  N   UNL     1      35.495 -18.258 -21.383  0.00  0.00    -0.343 N 
ATOM     26  N   UNL     1      36.967 -18.599 -23.166  0.00  0.00    -0.285 NA
ATOM     27  C   UNL     1      35.964 -17.912 -22.649  0.00  0.00    +0.117 C 
ATOM     28  H   UNL     1      35.908 -19.005 -20.892  0.00  0.00    +0.144 HD
ATOM     29  H   UNL     1      34.750 -17.756 -20.980  0.00  0.00    +0.144 HD
ATOM     30  H   UNL     1      37.367 -19.343 -22.659  0.00  0.00    +0.188 HD
ENDBRANCH  22  27
ENDBRANCH  18  19
ENDBRANCH   1  18
TORSDOF 5
ENDMDL
MODEL 9
REMARK VINA RESULT:     -10.8      3.764      6.941
REMARK  Name = 17758361
REMARK  5 active torsions:
REMARK  status: ('A' for Active; 'I' for Inactive)
REMARK    1  A    between atoms: N_1  and  C_18
REMARK    2  A    between atoms: C_4  and  C_10
REMARK    3  A    between atoms: C_10  and  C_11
REMARK    4  A    between atoms: C_18  and  C_19
REMARK    5  A    between atoms: C_22  and  C_27
REMARK                            x       y       z     vdW  Elec       q    Type
REMARK                         _______ _______ _______ _____ _____    ______ ____
ROOT
ATOM      1  N   UNL     1      34.284 -24.376 -13.162  0.00  0.00    -0.314 N 
ATOM      2  N   UNL     1      32.238 -25.433 -13.647  0.00  0.00    -0.229 NA
ATOM      3  C   UNL     1      33.164 -24.502 -13.967  0.00  0.00    +0.129 C 
ATOM      4  C   UNL     1      31.952 -23.774 -15.878  0.00  0.00    +0.043 C 
ATOM      5  C   UNL     1      33.070 -23.656 -15.060  0.00  0.00    +0.037 C 
ATOM      6  C   UNL     1      30.976 -24.720 -15.582  0.00  0.00    +0.024 C 
ATOM      7  C   UNL     1      31.165 -25.518 -14.465  0.00  0.00    +0.100 C 
ATOM      8  H   UNL     1      34.364 -24.970 -12.381  0.00  0.00    +0.149 HD
ENDROOT
BRANCH   4  10
ATOM      9  O   UNL     1      30.688 -22.467 -17.349  0.00  0.00    -0.287 OA
ATOM     10  C   UNL     1      31.802 -22.912 -17.040  0.00  0.00    +0.196 C 
BRANCH  10  11
ATOM     11  C   UNL     1      32.959 -22.525 -17.904  0.00  0.00    +0.039 C 
ATOM     12  C   UNL     1      32.753 -21.720 -19.026  0.00  0.00    -0.001 C 
ATOM     13  C   UNL     1      33.832 -21.358 -19.831  0.00  0.00    -0.022 C 
ATOM     14  C   UNL     1      34.243 -22.967 -17.589  0.00  0.00    +0.003 C 
ATOM     15  C   UNL     1      35.118 -21.801 -19.515  0.00  0.00    -0.004 C 
ATOM     16  C   UNL     1      35.323 -22.604 -18.394  0.00  0.00    -0.000 C 
ATOM     17  C   UNL     1      33.614 -20.496 -21.028  0.00  0.00    +0.031 C 
ENDBRANCH  10  11
ENDBRANCH   4  10
BRANCH   1  18
ATOM     18  C   UNL     1      35.340 -23.418 -13.405  0.00  0.00    +0.115 C 
BRANCH  18  19
ATOM     19  C   UNL     1      36.599 -24.105 -13.817  0.00  0.00    -0.003 C 
ATOM     20  C   UNL     1      37.121 -25.132 -13.031  0.00  0.00    -0.003 C 
ATOM     21  C   UNL     1      37.254 -23.719 -14.987  0.00  0.00    -0.003 C 
ATOM     22  C   UNL     1      38.954 -25.388 -14.584  0.00  0.00    +0.031 C 
ATOM     23  C   UNL     1      38.299 -25.774 -13.415  0.00  0.00    +0.002 C 
ATOM     24  C   UNL     1      38.432 -24.361 -15.370  0.00  0.00    +0.002 C 
BRANCH  22  27
ATOM     25  N   UNL     1      40.954 -26.765 -14.064  0.00  0.00    -0.343 N 
ATOM     26  N   UNL     1      40.584 -25.999 -16.240  0.00  0.00    -0.285 NA
ATOM     27  C   UNL     1      40.181 -26.058 -14.983  0.00  0.00    +0.117 C 
ATOM     28  H   UNL     1      41.782 -27.211 -14.356  0.00  0.00    +0.144 HD
ATOM     29  H   UNL     1      40.672 -26.818 -13.122  0.00  0.00    +0.144 HD
ATOM     30  H   UNL     1      41.415 -26.452 -16.513  0.00  0.00    +0.188 HD
ENDBRANCH  22  27
ENDBRANCH  18  19
ENDBRANCH   1  18
TORSDOF 5
ENDMDL
