MODEL 1
REMARK VINA RESULT:     -11.9      0.000      0.000
REMARK  Name = 118161062
REMARK  4 active torsions:
REMARK  status: ('A' for Active; 'I' for Inactive)
REMARK    1  A    between atoms: N_1  and  C_26
REMARK    2  A    between atoms: C_7  and  C_15
REMARK    3  A    between atoms: C_21  and  N_28
REMARK    4  A    between atoms: N_27  and  C_35
REMARK                            x       y       z     vdW  Elec       q    Type
REMARK                         _______ _______ _______ _____ _____    ______ ____
ROOT
ATOM      1  N   UNL     1      36.472 -23.178 -16.493  0.00  0.00    -0.286 N 
ATOM      2  N   UNL     1      34.920 -24.020 -13.241  0.00  0.00    -0.260 N 
ATOM      3  N   UNL     1      34.251 -23.585 -15.892  0.00  0.00    -0.384 NA
ATOM      4  N   UNL     1      37.086 -23.666 -13.636  0.00  0.00    -0.224 NA
ATOM      5  C   UNL     1      35.521 -23.488 -15.550  0.00  0.00    +0.216 C 
ATOM      6  C   UNL     1      35.886 -23.717 -14.164  0.00  0.00    +0.180 C 
ATOM      7  C   UNL     1      33.296 -23.903 -14.926  0.00  0.00    +0.162 C 
ATOM      8  C   UNL     1      33.599 -24.113 -13.626  0.00  0.00    +0.159 C 
ATOM      9  C   UNL     1      35.547 -24.173 -12.036  0.00  0.00    +0.088 C 
ATOM     10  C   UNL     1      36.881 -23.951 -12.306  0.00  0.00    +0.117 C 
ATOM     11  H   UNL     1      37.372 -23.545 -16.341  0.00  0.00    +0.155 HD
ENDROOT
BRANCH   7  15
ATOM     12  N   UNL     1      31.106 -24.896 -14.764  0.00  0.00    -0.386 NA
ATOM     13  N   UNL     1      30.127 -23.216 -16.785  0.00  0.00    -0.257 NA
ATOM     14  N   UNL     1      28.939 -25.886 -14.599  0.00  0.00    -0.335 N 
ATOM     15  C   UNL     1      31.886 -23.982 -15.373  0.00  0.00    +0.178 C 
ATOM     16  C   UNL     1      31.406 -23.156 -16.365  0.00  0.00    +0.128 C 
ATOM     17  C   UNL     1      29.826 -24.955 -15.184  0.00  0.00    +0.179 C 
ATOM     18  C   UNL     1      29.345 -24.129 -16.176  0.00  0.00    +0.199 C 
ATOM     19  H   UNL     1      29.256 -26.488 -13.887  0.00  0.00    +0.144 HD
ATOM     20  H   UNL     1      28.004 -25.932 -14.902  0.00  0.00    +0.144 HD
ENDBRANCH   7  15
BRANCH   1  26
ATOM     21  C   UNL     1      35.987 -20.848 -19.955  0.00  0.00    +0.048 C 
ATOM     22  C   UNL     1      35.020 -21.792 -19.608  0.00  0.00    +0.016 C 
ATOM     23  C   UNL     1      37.115 -20.679 -19.152  0.00  0.00    +0.016 C 
ATOM     24  C   UNL     1      35.180 -22.565 -18.458  0.00  0.00    +0.016 C 
ATOM     25  C   UNL     1      37.275 -21.452 -18.002  0.00  0.00    +0.016 C 
ATOM     26  C   UNL     1      36.308 -22.395 -17.655  0.00  0.00    +0.050 C 
BRANCH  21  28
ATOM     27  N   UNL     1      35.444 -18.289 -23.303  0.00  0.00    +0.394 N 
ATOM     28  N   UNL     1      35.826 -20.074 -21.109  0.00  0.00    -0.312 N 
ATOM     29  C   UNL     1      36.800 -18.606 -22.834  0.00  0.00    -0.055 C 
ATOM     30  C   UNL     1      34.573 -19.458 -23.139  0.00  0.00    -0.055 C 
ATOM     31  C   UNL     1      36.787 -18.990 -21.353  0.00  0.00    +0.068 C 
ATOM     32  C   UNL     1      34.486 -19.872 -21.668  0.00  0.00    +0.068 C 
ATOM     33  H   UNL     1      35.073 -17.514 -22.754  0.00  0.00    -0.079 HD
BRANCH  27  35
ATOM     34  O   UNL     1      33.841 -17.047 -25.756  0.00  0.00    -0.358 OA
ATOM     35  C   UNL     1      35.496 -17.916 -24.726  0.00  0.00    +0.002 C 
ATOM     36  C   UNL     1      34.225 -18.405 -25.420  0.00  0.00    +0.124 C 
ATOM     37  C   UNL     1      34.887 -16.523 -24.897  0.00  0.00    +0.124 C 
ENDBRANCH  27  35
ENDBRANCH  21  28
ENDBRANCH   1  26
TORSDOF 4
ENDMDL
MODEL 2
REMARK VINA RESULT:     -10.7      1.105      1.687
REMARK  Name = 118161062
REMARK  4 active torsions:
REMARK  status: ('A' for Active; 'I' for Inactive)
REMARK    1  A    between atoms: N_1  and  C_26
REMARK    2  A    between atoms: C_7  and  C_15
REMARK    3  A    between atoms: C_21  and  N_28
REMARK    4  A    between atoms: N_27  and  C_35
REMARK                            x       y       z     vdW  Elec       q    Type
REMARK                         _______ _______ _______ _____ _____    ______ ____
ROOT
ATOM      1  N   UNL     1      36.539 -22.730 -17.526  0.00  0.00    -0.286 N 
ATOM      2  N   UNL     1      35.340 -23.768 -14.182  0.00  0.00    -0.260 N 
ATOM      3  N   UNL     1      34.392 -23.159 -16.711  0.00  0.00    -0.384 NA
ATOM      4  N   UNL     1      37.455 -23.405 -14.789  0.00  0.00    -0.224 NA
ATOM      5  C   UNL     1      35.694 -23.093 -16.505  0.00  0.00    +0.216 C 
ATOM      6  C   UNL     1      36.204 -23.413 -15.185  0.00  0.00    +0.180 C 
ATOM      7  C   UNL     1      33.544 -23.531 -15.668  0.00  0.00    +0.162 C 
ATOM      8  C   UNL     1      33.984 -23.826 -14.425  0.00  0.00    +0.159 C 
ATOM      9  C   UNL     1      36.092 -24.002 -13.066  0.00  0.00    +0.088 C 
ATOM     10  C   UNL     1      37.393 -23.773 -13.466  0.00  0.00    +0.117 C 
ATOM     11  H   UNL     1      37.446 -23.112 -17.496  0.00  0.00    +0.155 HD
ENDROOT
BRANCH   7  15
ATOM     12  N   UNL     1      31.359 -24.471 -15.277  0.00  0.00    -0.386 NA
ATOM     13  N   UNL     1      30.213 -22.752 -17.174  0.00  0.00    -0.257 NA
ATOM     14  N   UNL     1      29.197 -25.407 -14.884  0.00  0.00    -0.335 N 
ATOM     15  C   UNL     1      32.093 -23.572 -15.961  0.00  0.00    +0.178 C 
ATOM     16  C   UNL     1      31.531 -22.727 -16.893  0.00  0.00    +0.128 C 
ATOM     17  C   UNL     1      30.041 -24.494 -15.557  0.00  0.00    +0.179 C 
ATOM     18  C   UNL     1      29.478 -23.650 -16.489  0.00  0.00    +0.199 C 
ATOM     19  H   UNL     1      29.573 -26.022 -14.214  0.00  0.00    +0.144 HD
ATOM     20  H   UNL     1      28.234 -25.427 -15.086  0.00  0.00    +0.144 HD
ENDBRANCH   7  15
BRANCH   1  26
ATOM     21  C   UNL     1      35.710 -20.175 -20.755  0.00  0.00    +0.048 C 
ATOM     22  C   UNL     1      36.941 -20.099 -20.104  0.00  0.00    +0.016 C 
ATOM     23  C   UNL     1      34.753 -21.099 -20.332  0.00  0.00    +0.016 C 
ATOM     24  C   UNL     1      37.218 -20.948 -19.033  0.00  0.00    +0.016 C 
ATOM     25  C   UNL     1      35.030 -21.948 -19.261  0.00  0.00    +0.016 C 
ATOM     26  C   UNL     1      36.261 -21.873 -18.611  0.00  0.00    +0.050 C 
BRANCH  21  28
ATOM     27  N   UNL     1      35.104 -17.653 -24.120  0.00  0.00    +0.394 N 
ATOM     28  N   UNL     1      35.433 -19.322 -21.829  0.00  0.00    -0.312 N 
ATOM     29  C   UNL     1      34.471 -18.977 -24.072  0.00  0.00    -0.055 C 
ATOM     30  C   UNL     1      35.137 -17.067 -22.775  0.00  0.00    -0.055 C 
ATOM     31  C   UNL     1      35.254 -19.922 -23.158  0.00  0.00    +0.068 C 
ATOM     32  C   UNL     1      35.941 -17.947 -21.816  0.00  0.00    +0.068 C 
ATOM     33  H   UNL     1      36.057 -17.749 -24.468  0.00  0.00    -0.079 HD
BRANCH  27  35
ATOM     34  O   UNL     1      34.861 -14.740 -25.381  0.00  0.00    -0.358 OA
ATOM     35  C   UNL     1      34.331 -16.775 -25.015  0.00  0.00    +0.002 C 
ATOM     36  C   UNL     1      34.123 -15.422 -24.335  0.00  0.00    +0.124 C 
ATOM     37  C   UNL     1      35.299 -16.013 -25.922  0.00  0.00    +0.124 C 
ENDBRANCH  27  35
ENDBRANCH  21  28
ENDBRANCH   1  26
TORSDOF 4
ENDMDL
MODEL 3
REMARK VINA RESULT:     -10.1      4.419     11.276
REMARK  Name = 118161062
REMARK  4 active torsions:
REMARK  status: ('A' for Active; 'I' for Inactive)
REMARK    1  A    between atoms: N_1  and  C_26
REMARK    2  A    between atoms: C_7  and  C_15
REMARK    3  A    between atoms: C_21  and  N_28
REMARK    4  A    between atoms: N_27  and  C_35
REMARK                            x       y       z     vdW  Elec       q    Type
REMARK                         _______ _______ _______ _____ _____    ______ ____
ROOT
ATOM      1  N   UNL     1      35.305 -16.557 -24.298  0.00  0.00    -0.286 N 
ATOM      2  N   UNL     1      33.464 -13.639 -25.637  0.00  0.00    -0.260 N 
ATOM      3  N   UNL     1      34.095 -14.864 -23.236  0.00  0.00    -0.384 NA
ATOM      4  N   UNL     1      34.580 -15.169 -26.814  0.00  0.00    -0.224 NA
ATOM      5  C   UNL     1      34.546 -15.412 -24.347  0.00  0.00    +0.216 C 
ATOM      6  C   UNL     1      34.225 -14.778 -25.612  0.00  0.00    +0.180 C 
ATOM      7  C   UNL     1      33.329 -13.700 -23.298  0.00  0.00    +0.162 C 
ATOM      8  C   UNL     1      33.003 -13.089 -24.459  0.00  0.00    +0.159 C 
ATOM      9  C   UNL     1      33.321 -13.277 -26.947  0.00  0.00    +0.088 C 
ATOM     10  C   UNL     1      34.018 -14.236 -27.653  0.00  0.00    +0.117 C 
ATOM     11  H   UNL     1      35.968 -16.671 -25.016  0.00  0.00    +0.155 HD
ENDROOT
BRANCH   7  15
ATOM     12  N   UNL     1      32.489 -11.844 -22.011  0.00  0.00    -0.386 NA
ATOM     13  N   UNL     1      32.318 -13.438 -19.709  0.00  0.00    -0.257 NA
ATOM     14  N   UNL     1      31.658  -9.999 -20.741  0.00  0.00    -0.335 N 
ATOM     15  C   UNL     1      32.841 -13.144 -22.015  0.00  0.00    +0.178 C 
ATOM     16  C   UNL     1      32.757 -13.927 -20.886  0.00  0.00    +0.128 C 
ATOM     17  C   UNL     1      32.049 -11.354 -20.835  0.00  0.00    +0.179 C 
ATOM     18  C   UNL     1      31.964 -12.137 -19.704  0.00  0.00    +0.199 C 
ATOM     19  H   UNL     1      31.708  -9.417 -21.534  0.00  0.00    +0.144 HD
ATOM     20  H   UNL     1      31.336  -9.638 -19.884  0.00  0.00    +0.144 HD
ENDBRANCH   7  15
BRANCH   1  26
ATOM     21  C   UNL     1      35.120 -19.629 -21.439  0.00  0.00    +0.048 C 
ATOM     22  C   UNL     1      34.650 -19.852 -22.733  0.00  0.00    +0.016 C 
ATOM     23  C   UNL     1      35.650 -18.386 -21.094  0.00  0.00    +0.016 C 
ATOM     24  C   UNL     1      34.712 -18.833 -23.683  0.00  0.00    +0.016 C 
ATOM     25  C   UNL     1      35.713 -17.367 -22.044  0.00  0.00    +0.016 C 
ATOM     26  C   UNL     1      35.244 -17.589 -23.338  0.00  0.00    +0.050 C 
BRANCH  21  28
ATOM     27  N   UNL     1      35.001 -22.905 -18.736  0.00  0.00    +0.394 N 
ATOM     28  N   UNL     1      35.056 -20.652 -20.486  0.00  0.00    -0.312 N 
ATOM     29  C   UNL     1      36.160 -22.003 -18.745  0.00  0.00    -0.055 C 
ATOM     30  C   UNL     1      33.775 -22.145 -19.003  0.00  0.00    -0.055 C 
ATOM     31  C   UNL     1      36.308 -21.320 -20.106  0.00  0.00    +0.068 C 
ATOM     32  C   UNL     1      33.841 -21.466 -20.373  0.00  0.00    +0.068 C 
ATOM     33  H   UNL     1      35.122 -23.613 -19.459  0.00  0.00    -0.079 HD
BRANCH  27  35
ATOM     34  O   UNL     1      34.522 -22.459 -15.621  0.00  0.00    -0.358 OA
ATOM     35  C   UNL     1      34.896 -23.550 -17.416  0.00  0.00    +0.002 C 
ATOM     36  C   UNL     1      35.710 -22.750 -16.400  0.00  0.00    +0.124 C 
ATOM     37  C   UNL     1      33.681 -22.983 -16.680  0.00  0.00    +0.124 C 
ENDBRANCH  27  35
ENDBRANCH  21  28
ENDBRANCH   1  26
TORSDOF 4
ENDMDL
MODEL 4
REMARK VINA RESULT:      -8.9      4.237     10.984
REMARK  Name = 118161062
REMARK  4 active torsions:
REMARK  status: ('A' for Active; 'I' for Inactive)
REMARK    1  A    between atoms: N_1  and  C_26
REMARK    2  A    between atoms: C_7  and  C_15
REMARK    3  A    between atoms: C_21  and  N_28
REMARK    4  A    between atoms: N_27  and  C_35
REMARK                            x       y       z     vdW  Elec       q    Type
REMARK                         _______ _______ _______ _____ _____    ______ ____
ROOT
ATOM      1  N   UNL     1      35.783 -17.240 -23.627  0.00  0.00    -0.286 N 
ATOM      2  N   UNL     1      33.717 -14.632 -25.247  0.00  0.00    -0.260 N 
ATOM      3  N   UNL     1      34.459 -15.532 -22.737  0.00  0.00    -0.384 NA
ATOM      4  N   UNL     1      34.934 -16.197 -26.268  0.00  0.00    -0.224 NA
ATOM      5  C   UNL     1      34.940 -16.166 -23.789  0.00  0.00    +0.216 C 
ATOM      6  C   UNL     1      34.561 -15.702 -25.111  0.00  0.00    +0.180 C 
ATOM      7  C   UNL     1      33.607 -14.443 -22.914  0.00  0.00    +0.162 C 
ATOM      8  C   UNL     1      33.226 -13.990 -24.129  0.00  0.00    +0.159 C 
ATOM      9  C   UNL     1      33.535 -14.429 -26.586  0.00  0.00    +0.088 C 
ATOM     10  C   UNL     1      34.296 -15.406 -27.194  0.00  0.00    +0.117 C 
ATOM     11  H   UNL     1      36.446 -17.383 -24.339  0.00  0.00    +0.155 HD
ENDROOT
BRANCH   7  15
ATOM     12  N   UNL     1      32.775 -12.479 -21.791  0.00  0.00    -0.386 NA
ATOM     13  N   UNL     1      32.478 -13.902 -19.392  0.00  0.00    -0.257 NA
ATOM     14  N   UNL     1      31.952 -10.529 -20.685  0.00  0.00    -0.335 N 
ATOM     15  C   UNL     1      33.091 -13.785 -21.692  0.00  0.00    +0.178 C 
ATOM     16  C   UNL     1      32.945 -14.484 -20.514  0.00  0.00    +0.128 C 
ATOM     17  C   UNL     1      32.307 -11.896 -20.669  0.00  0.00    +0.179 C 
ATOM     18  C   UNL     1      32.161 -12.595 -19.491  0.00  0.00    +0.199 C 
ATOM     19  H   UNL     1      32.046 -10.006 -21.513  0.00  0.00    +0.144 HD
ATOM     20  H   UNL     1      31.610 -10.100 -19.867  0.00  0.00    +0.144 HD
ENDBRANCH   7  15
BRANCH   1  26
ATOM     21  C   UNL     1      35.860 -19.985 -20.448  0.00  0.00    +0.048 C 
ATOM     22  C   UNL     1      36.974 -19.186 -20.707  0.00  0.00    +0.016 C 
ATOM     23  C   UNL     1      34.721 -19.872 -21.245  0.00  0.00    +0.016 C 
ATOM     24  C   UNL     1      36.948 -18.273 -21.761  0.00  0.00    +0.016 C 
ATOM     25  C   UNL     1      34.695 -18.959 -22.300  0.00  0.00    +0.016 C 
ATOM     26  C   UNL     1      35.808 -18.160 -22.559  0.00  0.00    +0.050 C 
BRANCH  21  28
ATOM     27  N   UNL     1      36.095 -22.918 -17.384  0.00  0.00    +0.394 N 
ATOM     28  N   UNL     1      35.886 -20.900 -19.390  0.00  0.00    -0.312 N 
ATOM     29  C   UNL     1      36.934 -21.715 -17.313  0.00  0.00    -0.055 C 
ATOM     30  C   UNL     1      34.790 -22.584 -17.965  0.00  0.00    -0.055 C 
ATOM     31  C   UNL     1      37.166 -21.131 -18.708  0.00  0.00    +0.068 C 
ATOM     32  C   UNL     1      34.949 -22.028 -19.381  0.00  0.00    +0.068 C 
ATOM     33  H   UNL     1      36.556 -23.614 -17.971  0.00  0.00    -0.079 HD
BRANCH  27  35
ATOM     34  O   UNL     1      36.329 -25.486 -15.517  0.00  0.00    -0.358 OA
ATOM     35  C   UNL     1      35.902 -23.458 -16.028  0.00  0.00    +0.002 C 
ATOM     36  C   UNL     1      35.196 -24.811 -16.122  0.00  0.00    +0.124 C 
ATOM     37  C   UNL     1      37.130 -24.283 -15.641  0.00  0.00    +0.124 C 
ENDBRANCH  27  35
ENDBRANCH  21  28
ENDBRANCH   1  26
TORSDOF 4
ENDMDL
