MODEL 1
REMARK VINA RESULT:     -11.0      0.000      0.000
REMARK  Name = 5327066
REMARK  6 active torsions:
REMARK  status: ('A' for Active; 'I' for Inactive)
REMARK    1  A    between atoms: C_2  and  C_6
REMARK    2  A    between atoms: C_2  and  C_20
REMARK    3  A    between atoms: C_3  and  O_9
REMARK    4  A    between atoms: O_9  and  C_11
REMARK    5  A    between atoms: N_18  and  C_24
REMARK    6  A    between atoms: C_21  and  N_30
REMARK                            x       y       z     vdW  Elec       q    Type
REMARK                         _______ _______ _______ _____ _____    ______ ____
ROOT
ATOM      1  O   UNL     1      33.882 -23.887 -19.961  0.00  0.00    -0.286 OA
ATOM      2  C   UNL     1      34.255 -22.948 -19.242  0.00  0.00    +0.200 C 
ENDROOT
BRANCH   2   6
ATOM      3  C   UNL     1      34.682 -23.122 -15.530  0.00  0.00    +0.138 C 
ATOM      4  C   UNL     1      34.983 -23.081 -16.887  0.00  0.00    +0.040 C 
ATOM      5  C   UNL     1      33.362 -23.076 -15.095  0.00  0.00    +0.037 C 
ATOM      6  C   UNL     1      33.950 -22.992 -17.820  0.00  0.00    +0.042 C 
ATOM      7  C   UNL     1      32.330 -22.986 -16.028  0.00  0.00    +0.003 C 
ATOM      8  C   UNL     1      32.623 -22.944 -17.391  0.00  0.00    +0.003 C 
BRANCH   3   9
ATOM      9  O   UNL     1      35.696 -23.209 -14.613  0.00  0.00    -0.479 OA
BRANCH   9  11
ATOM     10  N   UNL     1      38.269 -24.318 -12.386  0.00  0.00    +0.384 N 
ATOM     11  C   UNL     1      35.664 -24.324 -13.723  0.00  0.00    +0.162 C 
ATOM     12  C   UNL     1      35.843 -23.842 -12.283  0.00  0.00    +0.020 C 
ATOM     13  C   UNL     1      36.783 -25.290 -14.108  0.00  0.00    +0.020 C 
ATOM     14  C   UNL     1      37.259 -23.318 -12.036  0.00  0.00    -0.078 C 
ATOM     15  C   UNL     1      38.164 -24.714 -13.790  0.00  0.00    -0.078 C 
ATOM     16  H   UNL     1      38.138 -25.141 -11.798  0.00  0.00    -0.085 HD
ATOM     17  H   UNL     1      39.191 -23.907 -12.237  0.00  0.00    -0.085 HD
ENDBRANCH   9  11
ENDBRANCH   3   9
ENDBRANCH   2   6
BRANCH   2  20
ATOM     18  N   UNL     1      35.476 -20.037 -20.932  0.00  0.00    -0.177 N 
ATOM     19  N   UNL     1      36.629 -20.364 -20.325  0.00  0.00    -0.171 NA
ATOM     20  C   UNL     1      34.984 -21.803 -19.826  0.00  0.00    +0.088 C 
ATOM     21  C   UNL     1      34.446 -20.887 -20.655  0.00  0.00    +0.122 C 
ATOM     22  C   UNL     1      36.308 -21.465 -19.639  0.00  0.00    +0.124 C 
BRANCH  18  24
ATOM     23  F   UNL     1      35.291 -15.590 -24.183  0.00  0.00    -0.204 F 
ATOM     24  C   UNL     1      35.429 -18.910 -21.756  0.00  0.00    +0.075 C 
ATOM     25  C   UNL     1      35.500 -17.645 -21.189  0.00  0.00    +0.019 C 
ATOM     26  C   UNL     1      35.312 -19.072 -23.129  0.00  0.00    +0.019 C 
ATOM     27  C   UNL     1      35.452 -16.520 -22.012  0.00  0.00    +0.031 C 
ATOM     28  C   UNL     1      35.266 -17.946 -23.952  0.00  0.00    +0.031 C 
ATOM     29  C   UNL     1      35.336 -16.671 -23.393  0.00  0.00    +0.140 C 
ENDBRANCH  18  24
BRANCH  21  30
ATOM     30  N   UNL     1      33.211 -20.716 -21.177  0.00  0.00    -0.344 N 
ATOM     31  H   UNL     1      32.636 -19.985 -20.854  0.00  0.00    +0.144 HD
ATOM     32  H   UNL     1      32.886 -21.322 -21.881  0.00  0.00    +0.144 HD
ENDBRANCH  21  30
ENDBRANCH   2  20
TORSDOF 6
ENDMDL
MODEL 2
REMARK VINA RESULT:     -10.9      2.335      3.572
REMARK  Name = 5327066
REMARK  6 active torsions:
REMARK  status: ('A' for Active; 'I' for Inactive)
REMARK    1  A    between atoms: C_2  and  C_6
REMARK    2  A    between atoms: C_2  and  C_20
REMARK    3  A    between atoms: C_3  and  O_9
REMARK    4  A    between atoms: O_9  and  C_11
REMARK    5  A    between atoms: N_18  and  C_24
REMARK    6  A    between atoms: C_21  and  N_30
REMARK                            x       y       z     vdW  Elec       q    Type
REMARK                         _______ _______ _______ _____ _____    ______ ____
ROOT
ATOM      1  O   UNL     1      33.883 -23.433 -19.888  0.00  0.00    -0.286 OA
ATOM      2  C   UNL     1      34.591 -22.649 -19.237  0.00  0.00    +0.200 C 
ENDROOT
BRANCH   2   6
ATOM      3  C   UNL     1      33.925 -23.801 -15.740  0.00  0.00    +0.138 C 
ATOM      4  C   UNL     1      33.776 -23.597 -17.107  0.00  0.00    +0.040 C 
ATOM      5  C   UNL     1      35.024 -23.285 -15.063  0.00  0.00    +0.037 C 
ATOM      6  C   UNL     1      34.739 -22.867 -17.805  0.00  0.00    +0.042 C 
ATOM      7  C   UNL     1      35.986 -22.556 -15.761  0.00  0.00    +0.003 C 
ATOM      8  C   UNL     1      35.844 -22.347 -17.132  0.00  0.00    +0.003 C 
BRANCH   3   9
ATOM      9  O   UNL     1      32.980 -24.517 -15.055  0.00  0.00    -0.479 OA
BRANCH   9  11
ATOM     10  N   UNL     1      29.415 -24.377 -15.330  0.00  0.00    +0.384 N 
ATOM     11  C   UNL     1      32.068 -23.772 -14.249  0.00  0.00    +0.162 C 
ATOM     12  C   UNL     1      31.098 -24.724 -13.550  0.00  0.00    +0.020 C 
ATOM     13  C   UNL     1      31.308 -22.796 -15.146  0.00  0.00    +0.020 C 
ATOM     14  C   UNL     1      30.135 -25.379 -14.543  0.00  0.00    -0.078 C 
ATOM     15  C   UNL     1      30.336 -23.522 -16.078  0.00  0.00    -0.078 C 
ATOM     16  H   UNL     1      28.860 -23.798 -14.700  0.00  0.00    -0.085 HD
ATOM     17  H   UNL     1      28.816 -24.864 -15.997  0.00  0.00    -0.085 HD
ENDBRANCH   9  11
ENDBRANCH   3   9
ENDBRANCH   2   6
BRANCH   2  20
ATOM     18  N   UNL     1      35.636 -19.768 -21.087  0.00  0.00    -0.177 N 
ATOM     19  N   UNL     1      36.837 -20.067 -20.564  0.00  0.00    -0.171 NA
ATOM     20  C   UNL     1      35.256 -21.511 -19.904  0.00  0.00    +0.088 C 
ATOM     21  C   UNL     1      34.643 -20.623 -20.709  0.00  0.00    +0.122 C 
ATOM     22  C   UNL     1      36.586 -21.154 -19.830  0.00  0.00    +0.124 C 
BRANCH  18  24
ATOM     23  F   UNL     1      35.142 -15.405 -24.419  0.00  0.00    -0.204 F 
ATOM     24  C   UNL     1      35.511 -18.663 -21.931  0.00  0.00    +0.075 C 
ATOM     25  C   UNL     1      35.454 -18.854 -23.305  0.00  0.00    +0.019 C 
ATOM     26  C   UNL     1      35.445 -17.389 -21.384  0.00  0.00    +0.019 C 
ATOM     27  C   UNL     1      35.330 -17.750 -24.147  0.00  0.00    +0.031 C 
ATOM     28  C   UNL     1      35.320 -16.284 -22.227  0.00  0.00    +0.031 C 
ATOM     29  C   UNL     1      35.262 -16.465 -23.609  0.00  0.00    +0.140 C 
ENDBRANCH  18  24
BRANCH  21  30
ATOM     30  N   UNL     1      33.368 -20.479 -21.136  0.00  0.00    -0.344 N 
ATOM     31  H   UNL     1      33.155 -19.821 -21.837  0.00  0.00    +0.144 HD
ATOM     32  H   UNL     1      32.653 -21.032 -20.748  0.00  0.00    +0.144 HD
ENDBRANCH  21  30
ENDBRANCH   2  20
TORSDOF 6
ENDMDL
MODEL 3
REMARK VINA RESULT:     -10.9      2.668      4.251
REMARK  Name = 5327066
REMARK  6 active torsions:
REMARK  status: ('A' for Active; 'I' for Inactive)
REMARK    1  A    between atoms: C_2  and  C_6
REMARK    2  A    between atoms: C_2  and  C_20
REMARK    3  A    between atoms: C_3  and  O_9
REMARK    4  A    between atoms: O_9  and  C_11
REMARK    5  A    between atoms: N_18  and  C_24
REMARK    6  A    between atoms: C_21  and  N_30
REMARK                            x       y       z     vdW  Elec       q    Type
REMARK                         _______ _______ _______ _____ _____    ______ ____
ROOT
ATOM      1  O   UNL     1      37.508 -19.237 -21.063  0.00  0.00    -0.286 OA
ATOM      2  C   UNL     1      36.339 -19.463 -21.410  0.00  0.00    +0.200 C 
ENDROOT
BRANCH   2   6
ATOM      3  C   UNL     1      35.390 -22.062 -18.892  0.00  0.00    +0.138 C 
ATOM      4  C   UNL     1      36.155 -21.173 -19.638  0.00  0.00    +0.040 C 
ATOM      5  C   UNL     1      34.025 -22.185 -19.119  0.00  0.00    +0.037 C 
ATOM      6  C   UNL     1      35.546 -20.397 -20.624  0.00  0.00    +0.042 C 
ATOM      7  C   UNL     1      33.415 -21.409 -20.104  0.00  0.00    +0.003 C 
ATOM      8  C   UNL     1      34.176 -20.515 -20.857  0.00  0.00    +0.003 C 
BRANCH   3   9
ATOM      9  O   UNL     1      35.989 -22.824 -17.923  0.00  0.00    -0.479 OA
BRANCH   9  11
ATOM     10  N   UNL     1      36.822 -24.457 -14.850  0.00  0.00    +0.384 N 
ATOM     11  C   UNL     1      36.095 -22.244 -16.624  0.00  0.00    +0.162 C 
ATOM     12  C   UNL     1      37.515 -22.431 -16.089  0.00  0.00    +0.020 C 
ATOM     13  C   UNL     1      35.081 -22.919 -15.702  0.00  0.00    +0.020 C 
ATOM     14  C   UNL     1      37.811 -23.899 -15.774  0.00  0.00    -0.078 C 
ATOM     15  C   UNL     1      35.469 -24.368 -15.398  0.00  0.00    -0.078 C 
ATOM     16  H   UNL     1      36.860 -23.940 -13.972  0.00  0.00    -0.085 HD
ATOM     17  H   UNL     1      37.043 -25.442 -14.702  0.00  0.00    -0.085 HD
ENDBRANCH   9  11
ENDBRANCH   3   9
ENDBRANCH   2   6
BRANCH   2  20
ATOM     18  N   UNL     1      35.009 -17.344 -23.971  0.00  0.00    -0.177 N 
ATOM     19  N   UNL     1      34.933 -18.494 -24.660  0.00  0.00    -0.171 NA
ATOM     20  C   UNL     1      35.772 -18.806 -22.606  0.00  0.00    +0.088 C 
ATOM     21  C   UNL     1      35.516 -17.487 -22.712  0.00  0.00    +0.122 C 
ATOM     22  C   UNL     1      35.412 -19.396 -23.799  0.00  0.00    +0.124 C 
BRANCH  18  24
ATOM     23  F   UNL     1      33.332 -12.654 -26.331  0.00  0.00    -0.204 F 
ATOM     24  C   UNL     1      34.583 -16.156 -24.569  0.00  0.00    +0.075 C 
ATOM     25  C   UNL     1      34.162 -16.168 -25.891  0.00  0.00    +0.019 C 
ATOM     26  C   UNL     1      34.589 -14.979 -23.831  0.00  0.00    +0.019 C 
ATOM     27  C   UNL     1      33.739 -14.981 -26.488  0.00  0.00    +0.031 C 
ATOM     28  C   UNL     1      34.164 -13.792 -24.429  0.00  0.00    +0.031 C 
ATOM     29  C   UNL     1      33.739 -13.793 -25.757  0.00  0.00    +0.140 C 
ENDBRANCH  18  24
BRANCH  21  30
ATOM     30  N   UNL     1      35.667 -16.439 -21.873  0.00  0.00    -0.344 N 
ATOM     31  H   UNL     1      35.040 -16.313 -21.124  0.00  0.00    +0.144 HD
ATOM     32  H   UNL     1      36.403 -15.800 -22.010  0.00  0.00    +0.144 HD
ENDBRANCH  21  30
ENDBRANCH   2  20
TORSDOF 6
ENDMDL
MODEL 4
REMARK VINA RESULT:     -10.7      7.266     11.035
REMARK  Name = 5327066
REMARK  6 active torsions:
REMARK  status: ('A' for Active; 'I' for Inactive)
REMARK    1  A    between atoms: C_2  and  C_6
REMARK    2  A    between atoms: C_2  and  C_20
REMARK    3  A    between atoms: C_3  and  O_9
REMARK    4  A    between atoms: O_9  and  C_11
REMARK    5  A    between atoms: N_18  and  C_24
REMARK    6  A    between atoms: C_21  and  N_30
REMARK                            x       y       z     vdW  Elec       q    Type
REMARK                         _______ _______ _______ _____ _____    ______ ____
ROOT
ATOM      1  O   UNL     1      32.165 -13.311 -21.944  0.00  0.00    -0.286 OA
ATOM      2  C   UNL     1      32.968 -13.045 -22.851  0.00  0.00    +0.200 C 
ENDROOT
BRANCH   2   6
ATOM      3  C   UNL     1      35.140 -16.040 -23.403  0.00  0.00    +0.138 C 
ATOM      4  C   UNL     1      34.478 -14.996 -22.767  0.00  0.00    +0.040 C 
ATOM      5  C   UNL     1      35.001 -16.237 -24.772  0.00  0.00    +0.037 C 
ATOM      6  C   UNL     1      33.665 -14.139 -23.510  0.00  0.00    +0.042 C 
ATOM      7  C   UNL     1      34.188 -15.381 -25.514  0.00  0.00    +0.003 C 
ATOM      8  C   UNL     1      33.520 -14.332 -24.883  0.00  0.00    +0.003 C 
BRANCH   3   9
ATOM      9  O   UNL     1      35.939 -16.881 -22.674  0.00  0.00    -0.479 OA
BRANCH   9  11
ATOM     10  N   UNL     1      36.227 -19.981 -20.910  0.00  0.00    +0.384 N 
ATOM     11  C   UNL     1      36.169 -18.180 -23.218  0.00  0.00    +0.162 C 
ATOM     12  C   UNL     1      35.000 -19.101 -22.870  0.00  0.00    +0.020 C 
ATOM     13  C   UNL     1      37.473 -18.728 -22.641  0.00  0.00    +0.020 C 
ATOM     14  C   UNL     1      34.958 -19.419 -21.373  0.00  0.00    -0.078 C 
ATOM     15  C   UNL     1      37.339 -19.063 -21.155  0.00  0.00    -0.078 C 
ATOM     16  H   UNL     1      36.403 -20.855 -21.406  0.00  0.00    -0.085 HD
ATOM     17  H   UNL     1      36.159 -20.142 -19.905  0.00  0.00    -0.085 HD
ENDBRANCH   9  11
ENDBRANCH   3   9
ENDBRANCH   2   6
BRANCH   2  20
ATOM     18  N   UNL     1      33.098  -9.511 -23.416  0.00  0.00    -0.177 N 
ATOM     19  N   UNL     1      34.120  -9.840 -24.223  0.00  0.00    -0.171 NA
ATOM     20  C   UNL     1      33.219 -11.642 -23.241  0.00  0.00    +0.088 C 
ATOM     21  C   UNL     1      32.520 -10.580 -22.796  0.00  0.00    +0.122 C 
ATOM     22  C   UNL     1      34.185 -11.169 -24.105  0.00  0.00    +0.124 C 
BRANCH  18  24
ATOM     23  F   UNL     1      31.643  -4.220 -22.898  0.00  0.00    -0.204 F 
ATOM     24  C   UNL     1      32.730  -8.171 -23.285  0.00  0.00    +0.075 C 
ATOM     25  C   UNL     1      33.338  -7.386 -22.315  0.00  0.00    +0.019 C 
ATOM     26  C   UNL     1      31.760  -7.643 -24.126  0.00  0.00    +0.019 C 
ATOM     27  C   UNL     1      32.969  -6.048 -22.183  0.00  0.00    +0.031 C 
ATOM     28  C   UNL     1      31.392  -6.304 -23.995  0.00  0.00    +0.031 C 
ATOM     29  C   UNL     1      31.997  -5.506 -23.023  0.00  0.00    +0.140 C 
ENDBRANCH  18  24
BRANCH  21  30
ATOM     30  N   UNL     1      31.477 -10.442 -21.947  0.00  0.00    -0.344 N 
ATOM     31  H   UNL     1      31.603 -10.595 -20.982  0.00  0.00    +0.144 HD
ATOM     32  H   UNL     1      30.591 -10.189 -22.293  0.00  0.00    +0.144 HD
ENDBRANCH  21  30
ENDBRANCH   2  20
TORSDOF 6
ENDMDL
MODEL 5
REMARK VINA RESULT:     -10.3      2.535      4.379
REMARK  Name = 5327066
REMARK  6 active torsions:
REMARK  status: ('A' for Active; 'I' for Inactive)
REMARK    1  A    between atoms: C_2  and  C_6
REMARK    2  A    between atoms: C_2  and  C_20
REMARK    3  A    between atoms: C_3  and  O_9
REMARK    4  A    between atoms: O_9  and  C_11
REMARK    5  A    between atoms: N_18  and  C_24
REMARK    6  A    between atoms: C_21  and  N_30
REMARK                            x       y       z     vdW  Elec       q    Type
REMARK                         _______ _______ _______ _____ _____    ______ ____
ROOT
ATOM      1  O   UNL     1      37.143 -22.276 -18.440  0.00  0.00    -0.286 OA
ATOM      2  C   UNL     1      35.912 -22.120 -18.440  0.00  0.00    +0.200 C 
ENDROOT
BRANCH   2   6
ATOM      3  C   UNL     1      33.044 -23.528 -16.496  0.00  0.00    +0.138 C 
ATOM      4  C   UNL     1      33.780 -22.978 -17.539  0.00  0.00    +0.040 C 
ATOM      5  C   UNL     1      33.644 -23.800 -15.272  0.00  0.00    +0.037 C 
ATOM      6  C   UNL     1      35.134 -22.696 -17.354  0.00  0.00    +0.042 C 
ATOM      7  C   UNL     1      34.997 -23.520 -15.088  0.00  0.00    +0.003 C 
ATOM      8  C   UNL     1      35.742 -22.967 -16.129  0.00  0.00    +0.003 C 
BRANCH   3   9
ATOM      9  O   UNL     1      31.715 -23.805 -16.677  0.00  0.00    -0.479 OA
BRANCH   9  11
ATOM     10  N   UNL     1      28.176 -23.531 -16.218  0.00  0.00    +0.384 N 
ATOM     11  C   UNL     1      30.957 -24.111 -15.508  0.00  0.00    +0.162 C 
ATOM     12  C   UNL     1      29.945 -25.214 -15.820  0.00  0.00    +0.020 C 
ATOM     13  C   UNL     1      30.242 -22.843 -15.042  0.00  0.00    +0.020 C 
ATOM     14  C   UNL     1      28.841 -24.718 -16.756  0.00  0.00    -0.078 C 
ATOM     15  C   UNL     1      29.125 -22.437 -16.006  0.00  0.00    -0.078 C 
ATOM     16  H   UNL     1      27.740 -23.770 -15.328  0.00  0.00    -0.085 HD
ATOM     17  H   UNL     1      27.477 -23.222 -16.893  0.00  0.00    -0.085 HD
ENDBRANCH   9  11
ENDBRANCH   3   9
ENDBRANCH   2   6
BRANCH   2  20
ATOM     18  N   UNL     1      34.882 -20.062 -21.184  0.00  0.00    -0.177 N 
ATOM     19  N   UNL     1      33.684 -20.620 -20.944  0.00  0.00    -0.171 NA
ATOM     20  C   UNL     1      35.254 -21.374 -19.533  0.00  0.00    +0.088 C 
ATOM     21  C   UNL     1      35.869 -20.494 -20.347  0.00  0.00    +0.122 C 
ATOM     22  C   UNL     1      33.929 -21.434 -19.914  0.00  0.00    +0.124 C 
BRANCH  18  24
ATOM     23  F   UNL     1      35.393 -16.395 -25.267  0.00  0.00    -0.204 F 
ATOM     24  C   UNL     1      35.012 -19.133 -22.218  0.00  0.00    +0.075 C 
ATOM     25  C   UNL     1      35.419 -17.838 -21.928  0.00  0.00    +0.019 C 
ATOM     26  C   UNL     1      34.732 -19.518 -23.522  0.00  0.00    +0.019 C 
ATOM     27  C   UNL     1      35.547 -16.911 -22.961  0.00  0.00    +0.031 C 
ATOM     28  C   UNL     1      34.861 -18.590 -24.556  0.00  0.00    +0.031 C 
ATOM     29  C   UNL     1      35.269 -17.286 -24.274  0.00  0.00    +0.140 C 
ENDBRANCH  18  24
BRANCH  21  30
ATOM     30  N   UNL     1      37.140 -20.043 -20.439  0.00  0.00    -0.344 N 
ATOM     31  H   UNL     1      37.876 -20.674 -20.606  0.00  0.00    +0.144 HD
ATOM     32  H   UNL     1      37.329 -19.082 -20.340  0.00  0.00    +0.144 HD
ENDBRANCH  21  30
ENDBRANCH   2  20
TORSDOF 6
ENDMDL
MODEL 6
REMARK VINA RESULT:     -10.3      1.187      2.107
REMARK  Name = 5327066
REMARK  6 active torsions:
REMARK  status: ('A' for Active; 'I' for Inactive)
REMARK    1  A    between atoms: C_2  and  C_6
REMARK    2  A    between atoms: C_2  and  C_20
REMARK    3  A    between atoms: C_3  and  O_9
REMARK    4  A    between atoms: O_9  and  C_11
REMARK    5  A    between atoms: N_18  and  C_24
REMARK    6  A    between atoms: C_21  and  N_30
REMARK                            x       y       z     vdW  Elec       q    Type
REMARK                         _______ _______ _______ _____ _____    ______ ____
ROOT
ATOM      1  O   UNL     1      36.970 -22.169 -18.681  0.00  0.00    -0.286 OA
ATOM      2  C   UNL     1      35.739 -22.022 -18.711  0.00  0.00    +0.200 C 
ENDROOT
BRANCH   2   6
ATOM      3  C   UNL     1      34.741 -23.565 -15.453  0.00  0.00    +0.138 C 
ATOM      4  C   UNL     1      35.516 -22.973 -16.444  0.00  0.00    +0.040 C 
ATOM      5  C   UNL     1      33.394 -23.829 -15.671  0.00  0.00    +0.037 C 
ATOM      6  C   UNL     1      34.935 -22.642 -17.669  0.00  0.00    +0.042 C 
ATOM      7  C   UNL     1      32.813 -23.496 -16.894  0.00  0.00    +0.003 C 
ATOM      8  C   UNL     1      33.584 -22.903 -17.893  0.00  0.00    +0.003 C 
BRANCH   3   9
ATOM      9  O   UNL     1      35.311 -23.891 -14.251  0.00  0.00    -0.479 OA
BRANCH   9  11
ATOM     10  N   UNL     1      37.598 -25.616 -12.106  0.00  0.00    +0.384 N 
ATOM     11  C   UNL     1      36.719 -23.695 -14.134  0.00  0.00    +0.162 C 
ATOM     12  C   UNL     1      37.454 -24.987 -14.494  0.00  0.00    +0.020 C 
ATOM     13  C   UNL     1      37.038 -23.280 -12.698  0.00  0.00    +0.020 C 
ATOM     14  C   UNL     1      37.227 -26.077 -13.444  0.00  0.00    -0.078 C 
ATOM     15  C   UNL     1      36.830 -24.434 -11.715  0.00  0.00    -0.078 C 
ATOM     16  H   UNL     1      38.591 -25.384 -12.099  0.00  0.00    -0.085 HD
ATOM     17  H   UNL     1      37.395 -26.364 -11.442  0.00  0.00    -0.085 HD
ENDBRANCH   9  11
ENDBRANCH   3   9
ENDBRANCH   2   6
BRANCH   2  20
ATOM     18  N   UNL     1      34.778 -19.904 -21.434  0.00  0.00    -0.177 N 
ATOM     19  N   UNL     1      33.561 -20.422 -21.197  0.00  0.00    -0.171 NA
ATOM     20  C   UNL     1      35.105 -21.243 -19.796  0.00  0.00    +0.088 C 
ATOM     21  C   UNL     1      35.750 -20.378 -20.602  0.00  0.00    +0.122 C 
ATOM     22  C   UNL     1      33.779 -21.254 -20.175  0.00  0.00    +0.124 C 
BRANCH  18  24
ATOM     23  F   UNL     1      35.415 -16.218 -25.482  0.00  0.00    -0.204 F 
ATOM     24  C   UNL     1      34.939 -18.970 -22.459  0.00  0.00    +0.075 C 
ATOM     25  C   UNL     1      34.638 -19.330 -23.766  0.00  0.00    +0.019 C 
ATOM     26  C   UNL     1      35.397 -17.695 -22.157  0.00  0.00    +0.019 C 
ATOM     27  C   UNL     1      34.801 -18.398 -24.790  0.00  0.00    +0.031 C 
ATOM     28  C   UNL     1      35.559 -16.762 -23.182  0.00  0.00    +0.031 C 
ATOM     29  C   UNL     1      35.260 -17.114 -24.498  0.00  0.00    +0.140 C 
ENDBRANCH  18  24
BRANCH  21  30
ATOM     30  N   UNL     1      37.036 -19.970 -20.692  0.00  0.00    -0.344 N 
ATOM     31  H   UNL     1      37.511 -19.659 -19.888  0.00  0.00    +0.144 HD
ATOM     32  H   UNL     1      37.497 -19.984 -21.562  0.00  0.00    +0.144 HD
ENDBRANCH  21  30
ENDBRANCH   2  20
TORSDOF 6
ENDMDL
MODEL 7
REMARK VINA RESULT:     -10.2      1.330      1.906
REMARK  Name = 5327066
REMARK  6 active torsions:
REMARK  status: ('A' for Active; 'I' for Inactive)
REMARK    1  A    between atoms: C_2  and  C_6
REMARK    2  A    between atoms: C_2  and  C_20
REMARK    3  A    between atoms: C_3  and  O_9
REMARK    4  A    between atoms: O_9  and  C_11
REMARK    5  A    between atoms: N_18  and  C_24
REMARK    6  A    between atoms: C_21  and  N_30
REMARK                            x       y       z     vdW  Elec       q    Type
REMARK                         _______ _______ _______ _____ _____    ______ ____
ROOT
ATOM      1  O   UNL     1      32.228 -22.813 -18.499  0.00  0.00    -0.286 OA
ATOM      2  C   UNL     1      33.422 -22.663 -18.198  0.00  0.00    +0.200 C 
ENDROOT
BRANCH   2   6
ATOM      3  C   UNL     1      35.623 -24.299 -15.654  0.00  0.00    +0.138 C 
ATOM      4  C   UNL     1      35.174 -23.776 -16.861  0.00  0.00    +0.040 C 
ATOM      5  C   UNL     1      34.814 -24.266 -14.523  0.00  0.00    +0.037 C 
ATOM      6  C   UNL     1      33.900 -23.213 -16.938  0.00  0.00    +0.042 C 
ATOM      7  C   UNL     1      33.541 -23.702 -14.601  0.00  0.00    +0.003 C 
ATOM      8  C   UNL     1      33.084 -23.176 -15.808  0.00  0.00    +0.003 C 
BRANCH   3   9
ATOM      9  O   UNL     1      36.874 -24.852 -15.577  0.00  0.00    -0.479 OA
BRANCH   9  11
ATOM     10  N   UNL     1      39.662 -26.093 -13.710  0.00  0.00    +0.384 N 
ATOM     11  C   UNL     1      37.867 -24.100 -14.884  0.00  0.00    +0.162 C 
ATOM     12  C   UNL     1      39.248 -24.402 -15.467  0.00  0.00    +0.020 C 
ATOM     13  C   UNL     1      37.818 -24.473 -13.402  0.00  0.00    +0.020 C 
ATOM     14  C   UNL     1      39.694 -25.831 -15.149  0.00  0.00    -0.078 C 
ATOM     15  C   UNL     1      38.321 -25.897 -13.160  0.00  0.00    -0.078 C 
ATOM     16  H   UNL     1      40.309 -25.457 -13.243  0.00  0.00    -0.085 HD
ATOM     17  H   UNL     1      39.933 -27.065 -13.555  0.00  0.00    -0.085 HD
ENDBRANCH   9  11
ENDBRANCH   3   9
ENDBRANCH   2   6
BRANCH   2  20
ATOM     18  N   UNL     1      35.110 -20.617 -20.605  0.00  0.00    -0.177 N 
ATOM     19  N   UNL     1      36.206 -21.206 -20.098  0.00  0.00    -0.171 NA
ATOM     20  C   UNL     1      34.334 -21.928 -19.099  0.00  0.00    +0.088 C 
ATOM     21  C   UNL     1      33.946 -21.028 -20.023  0.00  0.00    +0.122 C 
ATOM     22  C   UNL     1      35.709 -22.019 -19.162  0.00  0.00    +0.124 C 
BRANCH  18  24
ATOM     23  F   UNL     1      35.643 -16.923 -24.660  0.00  0.00    -0.204 F 
ATOM     24  C   UNL     1      35.245 -19.682 -21.632  0.00  0.00    +0.075 C 
ATOM     25  C   UNL     1      35.671 -18.395 -21.333  0.00  0.00    +0.019 C 
ATOM     26  C   UNL     1      34.951 -20.052 -22.937  0.00  0.00    +0.019 C 
ATOM     27  C   UNL     1      35.805 -17.460 -22.359  0.00  0.00    +0.031 C 
ATOM     28  C   UNL     1      35.086 -19.117 -23.964  0.00  0.00    +0.031 C 
ATOM     29  C   UNL     1      35.513 -17.821 -23.674  0.00  0.00    +0.140 C 
ENDBRANCH  18  24
BRANCH  21  30
ATOM     30  N   UNL     1      32.742 -20.544 -20.403  0.00  0.00    -0.344 N 
ATOM     31  H   UNL     1      32.334 -20.846 -21.247  0.00  0.00    +0.144 HD
ATOM     32  H   UNL     1      32.273 -19.889 -19.836  0.00  0.00    +0.144 HD
ENDBRANCH  21  30
ENDBRANCH   2  20
TORSDOF 6
ENDMDL
MODEL 8
REMARK VINA RESULT:     -10.0      9.962     13.343
REMARK  Name = 5327066
REMARK  6 active torsions:
REMARK  status: ('A' for Active; 'I' for Inactive)
REMARK    1  A    between atoms: C_2  and  C_6
REMARK    2  A    between atoms: C_2  and  C_20
REMARK    3  A    between atoms: C_3  and  O_9
REMARK    4  A    between atoms: O_9  and  C_11
REMARK    5  A    between atoms: N_18  and  C_24
REMARK    6  A    between atoms: C_21  and  N_30
REMARK                            x       y       z     vdW  Elec       q    Type
REMARK                         _______ _______ _______ _____ _____    ______ ____
ROOT
ATOM      1  O   UNL     1      30.454 -10.413 -19.476  0.00  0.00    -0.286 OA
ATOM      2  C   UNL     1      31.455 -10.476 -20.206  0.00  0.00    +0.200 C 
ENDROOT
BRANCH   2   6
ATOM      3  C   UNL     1      32.591 -13.336 -22.332  0.00  0.00    +0.138 C 
ATOM      4  C   UNL     1      32.121 -12.083 -21.958  0.00  0.00    +0.040 C 
ATOM      5  C   UNL     1      32.888 -14.297 -21.372  0.00  0.00    +0.037 C 
ATOM      6  C   UNL     1      31.946 -11.786 -20.607  0.00  0.00    +0.042 C 
ATOM      7  C   UNL     1      32.714 -14.000 -20.021  0.00  0.00    +0.003 C 
ATOM      8  C   UNL     1      32.243 -12.745 -19.638  0.00  0.00    +0.003 C 
BRANCH   3   9
ATOM      9  O   UNL     1      32.763 -13.628 -23.660  0.00  0.00    -0.479 OA
BRANCH   9  11
ATOM     10  N   UNL     1      33.902 -14.457 -26.949  0.00  0.00    +0.384 N 
ATOM     11  C   UNL     1      34.102 -13.614 -24.152  0.00  0.00    +0.162 C 
ATOM     12  C   UNL     1      34.216 -12.627 -25.315  0.00  0.00    +0.020 C 
ATOM     13  C   UNL     1      34.470 -15.025 -24.609  0.00  0.00    +0.020 C 
ATOM     14  C   UNL     1      33.460 -13.120 -26.550  0.00  0.00    -0.078 C 
ATOM     15  C   UNL     1      33.707 -15.428 -25.873  0.00  0.00    -0.078 C 
ATOM     16  H   UNL     1      34.893 -14.421 -27.189  0.00  0.00    -0.085 HD
ATOM     17  H   UNL     1      33.345 -14.752 -27.752  0.00  0.00    -0.085 HD
ENDBRANCH   9  11
ENDBRANCH   3   9
ENDBRANCH   2   6
BRANCH   2  20
ATOM     18  N   UNL     1      32.842  -7.601 -21.828  0.00  0.00    -0.177 N 
ATOM     19  N   UNL     1      33.402  -7.392 -20.625  0.00  0.00    -0.171 NA
ATOM     20  C   UNL     1      32.138  -9.243 -20.647  0.00  0.00    +0.088 C 
ATOM     21  C   UNL     1      32.061  -8.719 -21.886  0.00  0.00    +0.122 C 
ATOM     22  C   UNL     1      32.956  -8.421 -19.900  0.00  0.00    +0.124 C 
BRANCH  18  24
ATOM     23  F   UNL     1      33.826  -4.055 -25.932  0.00  0.00    -0.204 F 
ATOM     24  C   UNL     1      33.091  -6.703 -22.868  0.00  0.00    +0.075 C 
ATOM     25  C   UNL     1      32.182  -5.686 -23.126  0.00  0.00    +0.019 C 
ATOM     26  C   UNL     1      34.245  -6.840 -23.628  0.00  0.00    +0.019 C 
ATOM     27  C   UNL     1      32.431  -4.790 -24.165  0.00  0.00    +0.031 C 
ATOM     28  C   UNL     1      34.494  -5.942 -24.666  0.00  0.00    +0.031 C 
ATOM     29  C   UNL     1      33.587  -4.917 -24.935  0.00  0.00    +0.140 C 
ENDBRANCH  18  24
BRANCH  21  30
ATOM     30  N   UNL     1      31.417  -9.089 -23.015  0.00  0.00    -0.344 N 
ATOM     31  H   UNL     1      31.492  -8.538 -23.828  0.00  0.00    +0.144 HD
ATOM     32  H   UNL     1      30.874  -9.910 -23.025  0.00  0.00    +0.144 HD
ENDBRANCH  21  30
ENDBRANCH   2  20
TORSDOF 6
ENDMDL
MODEL 9
REMARK VINA RESULT:      -9.9      5.560     10.712
REMARK  Name = 5327066
REMARK  6 active torsions:
REMARK  status: ('A' for Active; 'I' for Inactive)
REMARK    1  A    between atoms: C_2  and  C_6
REMARK    2  A    between atoms: C_2  and  C_20
REMARK    3  A    between atoms: C_3  and  O_9
REMARK    4  A    between atoms: O_9  and  C_11
REMARK    5  A    between atoms: N_18  and  C_24
REMARK    6  A    between atoms: C_21  and  N_30
REMARK                            x       y       z     vdW  Elec       q    Type
REMARK                         _______ _______ _______ _____ _____    ______ ____
ROOT
ATOM      1  O   UNL     1      35.230 -16.853 -25.844  0.00  0.00    -0.286 OA
ATOM      2  C   UNL     1      34.939 -16.275 -24.786  0.00  0.00    +0.200 C 
ENDROOT
BRANCH   2   6
ATOM      3  C   UNL     1      33.632 -12.927 -23.749  0.00  0.00    +0.138 C 
ATOM      4  C   UNL     1      34.118 -14.227 -23.678  0.00  0.00    +0.040 C 
ATOM      5  C   UNL     1      33.453 -12.304 -24.979  0.00  0.00    +0.037 C 
ATOM      6  C   UNL     1      34.429 -14.913 -24.852  0.00  0.00    +0.042 C 
ATOM      7  C   UNL     1      33.765 -12.990 -26.152  0.00  0.00    +0.003 C 
ATOM      8  C   UNL     1      34.252 -14.294 -26.089  0.00  0.00    +0.003 C 
BRANCH   3   9
ATOM      9  O   UNL     1      33.326 -12.253 -22.596  0.00  0.00    -0.479 OA
BRANCH   9  11
ATOM     10  N   UNL     1      31.818 -10.423 -19.916  0.00  0.00    +0.384 N 
ATOM     11  C   UNL     1      31.959 -12.263 -22.190  0.00  0.00    +0.162 C 
ATOM     12  C   UNL     1      31.372 -10.856 -22.311  0.00  0.00    +0.020 C 
ATOM     13  C   UNL     1      31.881 -12.753 -20.744  0.00  0.00    +0.020 C 
ATOM     14  C   UNL     1      31.973  -9.903 -21.275  0.00  0.00    -0.078 C 
ATOM     15  C   UNL     1      32.460 -11.728 -19.767  0.00  0.00    -0.078 C 
ATOM     16  H   UNL     1      30.824 -10.515 -19.709  0.00  0.00    -0.085 HD
ATOM     17  H   UNL     1      32.264  -9.770 -19.271  0.00  0.00    -0.085 HD
ENDBRANCH   9  11
ENDBRANCH   3   9
ENDBRANCH   2   6
BRANCH   2  20
ATOM     18  N   UNL     1      35.207 -18.439 -21.946  0.00  0.00    -0.177 N 
ATOM     19  N   UNL     1      35.574 -17.307 -21.320  0.00  0.00    -0.171 NA
ATOM     20  C   UNL     1      35.121 -16.954 -23.487  0.00  0.00    +0.088 C 
ATOM     21  C   UNL     1      34.923 -18.269 -23.269  0.00  0.00    +0.122 C 
ATOM     22  C   UNL     1      35.516 -16.392 -22.291  0.00  0.00    +0.124 C 
BRANCH  18  24
ATOM     23  F   UNL     1      34.985 -23.156 -19.104  0.00  0.00    -0.204 F 
ATOM     24  C   UNL     1      35.151 -19.634 -21.226  0.00  0.00    +0.075 C 
ATOM     25  C   UNL     1      33.917 -20.189 -20.918  0.00  0.00    +0.019 C 
ATOM     26  C   UNL     1      36.330 -20.248 -20.828  0.00  0.00    +0.019 C 
ATOM     27  C   UNL     1      33.861 -21.382 -20.198  0.00  0.00    +0.031 C 
ATOM     28  C   UNL     1      36.274 -21.442 -20.109  0.00  0.00    +0.031 C 
ATOM     29  C   UNL     1      35.039 -22.009 -19.794  0.00  0.00    +0.140 C 
ENDBRANCH  18  24
BRANCH  21  30
ATOM     30  N   UNL     1      34.538 -19.296 -24.060  0.00  0.00    -0.344 N 
ATOM     31  H   UNL     1      34.262 -20.151 -23.657  0.00  0.00    +0.144 HD
ATOM     32  H   UNL     1      34.533 -19.189 -25.038  0.00  0.00    +0.144 HD
ENDBRANCH  21  30
ENDBRANCH   2  20
TORSDOF 6
ENDMDL
