MODEL 1
REMARK VINA RESULT:     -12.6      0.000      0.000
REMARK  Name = 46926973
REMARK  4 active torsions:
REMARK  status: ('A' for Active; 'I' for Inactive)
REMARK    1  A    between atoms: C_4  and  C_17
REMARK    2  A    between atoms: C_6  and  C_13
REMARK    3  A    between atoms: C_17  and  C_19
REMARK    4  A    between atoms: C_21  and  C_26
REMARK                            x       y       z     vdW  Elec       q    Type
REMARK                         _______ _______ _______ _____ _____    ______ ____
ROOT
ATOM      1  O   UNL     1      37.173 -18.916 -22.820  0.00  0.00    -0.274 OA
ATOM      2  N   UNL     1      34.883 -19.376 -22.553  0.00  0.00    -0.269 N 
ATOM      3  N   UNL     1      33.646 -20.631 -20.974  0.00  0.00    -0.229 NA
ATOM      4  C   UNL     1      36.003 -18.808 -23.173  0.00  0.00    +0.232 C 
ATOM      5  C   UNL     1      34.846 -20.184 -21.409  0.00  0.00    +0.134 C 
ATOM      6  C   UNL     1      34.813 -21.751 -19.176  0.00  0.00    +0.038 C 
ATOM      7  C   UNL     1      36.053 -20.472 -20.792  0.00  0.00    +0.035 C 
ATOM      8  C   UNL     1      36.027 -21.273 -19.655  0.00  0.00    +0.006 C 
ATOM      9  C   UNL     1      33.661 -21.406 -19.866  0.00  0.00    +0.102 C 
ATOM     10  H   UNL     1      34.013 -19.184 -22.973  0.00  0.00    +0.156 HD
ENDROOT
BRANCH   6  13
ATOM     11  N   UNL     1      35.902 -22.707 -17.304  0.00  0.00    -0.241 NA
ATOM     12  N   UNL     1      33.542 -23.995 -16.508  0.00  0.00    -0.239 NA
ATOM     13  C   UNL     1      34.753 -22.585 -17.999  0.00  0.00    +0.102 C 
ATOM     14  C   UNL     1      33.594 -23.217 -17.607  0.00  0.00    +0.118 C 
ATOM     15  C   UNL     1      35.850 -23.484 -16.204  0.00  0.00    +0.119 C 
ATOM     16  C   UNL     1      34.691 -24.117 -15.813  0.00  0.00    +0.120 C 
ENDBRANCH   6  13
BRANCH   4  17
ATOM     17  C   UNL     1      35.595 -17.996 -24.393  0.00  0.00    +0.113 C 
BRANCH  17  19
ATOM     18  N   UNL     1      33.923 -14.620 -24.771  0.00  0.00    -0.244 NA
ATOM     19  C   UNL     1      35.051 -16.633 -24.051  0.00  0.00    +0.006 C 
ATOM     20  C   UNL     1      34.647 -14.860 -22.477  0.00  0.00    -0.004 C 
ATOM     21  C   UNL     1      34.045 -14.156 -23.507  0.00  0.00    +0.077 C 
ATOM     22  C   UNL     1      35.157 -16.122 -22.763  0.00  0.00    -0.005 C 
ATOM     23  C   UNL     1      34.431 -15.849 -25.011  0.00  0.00    +0.095 C 
ATOM     24  C   UNL     1      34.763 -14.314 -21.095  0.00  0.00    +0.033 C 
BRANCH  21  26
ATOM     25  N   UNL     1      32.407 -10.288 -22.919  0.00  0.00    -0.248 NA
ATOM     26  C   UNL     1      33.486 -12.838 -23.306  0.00  0.00    +0.020 C 
ATOM     27  C   UNL     1      32.488 -12.639 -22.358  0.00  0.00    +0.016 C 
ATOM     28  C   UNL     1      33.945 -11.763 -24.061  0.00  0.00    +0.022 C 
ATOM     29  C   UNL     1      31.986 -11.356 -22.205  0.00  0.00    +0.059 C 
ATOM     30  C   UNL     1      33.378 -10.520 -23.831  0.00  0.00    +0.098 C 
ATOM     31  C   UNL     1      30.914 -11.105 -21.197  0.00  0.00    +0.052 C 
ENDBRANCH  21  26
ENDBRANCH  17  19
ENDBRANCH   4  17
TORSDOF 4
ENDMDL
MODEL 2
REMARK VINA RESULT:     -12.5      1.268      1.854
REMARK  Name = 46926973
REMARK  4 active torsions:
REMARK  status: ('A' for Active; 'I' for Inactive)
REMARK    1  A    between atoms: C_4  and  C_17
REMARK    2  A    between atoms: C_6  and  C_13
REMARK    3  A    between atoms: C_17  and  C_19
REMARK    4  A    between atoms: C_21  and  C_26
REMARK                            x       y       z     vdW  Elec       q    Type
REMARK                         _______ _______ _______ _____ _____    ______ ____
ROOT
ATOM      1  O   UNL     1      34.156 -19.771 -22.807  0.00  0.00    -0.274 OA
ATOM      2  N   UNL     1      36.184 -19.631 -21.623  0.00  0.00    -0.269 N 
ATOM      3  N   UNL     1      36.966 -20.599 -19.611  0.00  0.00    -0.229 NA
ATOM      4  C   UNL     1      35.298 -19.343 -22.671  0.00  0.00    +0.232 C 
ATOM      5  C   UNL     1      35.969 -20.457 -20.513  0.00  0.00    +0.134 C 
ATOM      6  C   UNL     1      35.515 -22.079 -18.366  0.00  0.00    +0.038 C 
ATOM      7  C   UNL     1      34.736 -21.083 -20.412  0.00  0.00    +0.035 C 
ATOM      8  C   UNL     1      34.513 -21.907 -19.315  0.00  0.00    +0.006 C 
ATOM      9  C   UNL     1      36.712 -21.408 -18.558  0.00  0.00    +0.102 C 
ATOM     10  H   UNL     1      37.067 -19.199 -21.674  0.00  0.00    +0.156 HD
ENDROOT
BRANCH   6  13
ATOM     11  N   UNL     1      36.422 -23.254 -16.522  0.00  0.00    -0.241 NA
ATOM     12  N   UNL     1      33.880 -24.168 -15.772  0.00  0.00    -0.239 NA
ATOM     13  C   UNL     1      35.313 -22.927 -17.215  0.00  0.00    +0.102 C 
ATOM     14  C   UNL     1      34.064 -23.376 -16.847  0.00  0.00    +0.118 C 
ATOM     15  C   UNL     1      36.237 -24.045 -15.447  0.00  0.00    +0.119 C 
ATOM     16  C   UNL     1      34.989 -24.495 -15.079  0.00  0.00    +0.120 C 
ENDBRANCH   6  13
BRANCH   4  17
ATOM     17  C   UNL     1      35.937 -18.397 -23.676  0.00  0.00    +0.113 C 
BRANCH  17  19
ATOM     18  N   UNL     1      34.801 -15.010 -22.422  0.00  0.00    -0.244 NA
ATOM     19  C   UNL     1      35.337 -17.015 -23.662  0.00  0.00    +0.006 C 
ATOM     20  C   UNL     1      34.235 -15.184 -24.766  0.00  0.00    -0.004 C 
ATOM     21  C   UNL     1      34.270 -14.506 -23.559  0.00  0.00    +0.077 C 
ATOM     22  C   UNL     1      34.782 -16.463 -24.810  0.00  0.00    -0.005 C 
ATOM     23  C   UNL     1      35.322 -16.254 -22.503  0.00  0.00    +0.095 C 
ATOM     24  C   UNL     1      33.639 -14.595 -25.998  0.00  0.00    +0.033 C 
BRANCH  21  26
ATOM     25  N   UNL     1      32.675 -10.598 -23.138  0.00  0.00    -0.248 NA
ATOM     26  C   UNL     1      33.726 -13.174 -23.416  0.00  0.00    +0.020 C 
ATOM     27  C   UNL     1      32.698 -12.933 -22.510  0.00  0.00    +0.016 C 
ATOM     28  C   UNL     1      34.229 -12.129 -24.182  0.00  0.00    +0.022 C 
ATOM     29  C   UNL     1      32.212 -11.639 -22.411  0.00  0.00    +0.059 C 
ATOM     30  C   UNL     1      33.674 -10.871 -24.008  0.00  0.00    +0.098 C 
ATOM     31  C   UNL     1      31.108 -11.344 -21.450  0.00  0.00    +0.052 C 
ENDBRANCH  21  26
ENDBRANCH  17  19
ENDBRANCH   4  17
TORSDOF 4
ENDMDL
MODEL 3
REMARK VINA RESULT:     -12.3      0.971      1.359
REMARK  Name = 46926973
REMARK  4 active torsions:
REMARK  status: ('A' for Active; 'I' for Inactive)
REMARK    1  A    between atoms: C_4  and  C_17
REMARK    2  A    between atoms: C_6  and  C_13
REMARK    3  A    between atoms: C_17  and  C_19
REMARK    4  A    between atoms: C_21  and  C_26
REMARK                            x       y       z     vdW  Elec       q    Type
REMARK                         _______ _______ _______ _____ _____    ______ ____
ROOT
ATOM      1  O   UNL     1      37.586 -18.856 -21.897  0.00  0.00    -0.274 OA
ATOM      2  N   UNL     1      35.497 -19.930 -21.792  0.00  0.00    -0.269 N 
ATOM      3  N   UNL     1      34.504 -21.414 -20.241  0.00  0.00    -0.229 NA
ATOM      4  C   UNL     1      36.473 -19.095 -22.354  0.00  0.00    +0.232 C 
ATOM      5  C   UNL     1      35.571 -20.666 -20.604  0.00  0.00    +0.134 C 
ATOM      6  C   UNL     1      35.749 -22.084 -18.279  0.00  0.00    +0.038 C 
ATOM      7  C   UNL     1      36.742 -20.577 -19.869  0.00  0.00    +0.035 C 
ATOM      8  C   UNL     1      36.825 -21.304 -18.687  0.00  0.00    +0.006 C 
ATOM      9  C   UNL     1      34.622 -22.106 -19.085  0.00  0.00    +0.102 C 
ATOM     10  H   UNL     1      34.654 -20.007 -22.296  0.00  0.00    +0.156 HD
ENDROOT
BRANCH   6  13
ATOM     11  N   UNL     1      34.731 -23.622 -16.795  0.00  0.00    -0.241 NA
ATOM     12  N   UNL     1      36.937 -23.513 -15.068  0.00  0.00    -0.239 NA
ATOM     13  C   UNL     1      35.804 -22.850 -17.057  0.00  0.00    +0.102 C 
ATOM     14  C   UNL     1      36.888 -22.797 -16.208  0.00  0.00    +0.118 C 
ATOM     15  C   UNL     1      34.780 -24.339 -15.655  0.00  0.00    +0.119 C 
ATOM     16  C   UNL     1      35.863 -24.285 -14.806  0.00  0.00    +0.120 C 
ENDBRANCH   6  13
BRANCH   4  17
ATOM     17  C   UNL     1      35.980 -18.484 -23.656  0.00  0.00    +0.113 C 
BRANCH  17  19
ATOM     18  N   UNL     1      34.447 -15.126 -24.503  0.00  0.00    -0.244 NA
ATOM     19  C   UNL     1      35.408 -17.099 -23.489  0.00  0.00    +0.006 C 
ATOM     20  C   UNL     1      34.775 -15.233 -22.110  0.00  0.00    -0.004 C 
ATOM     21  C   UNL     1      34.364 -14.589 -23.265  0.00  0.00    +0.077 C 
ATOM     22  C   UNL     1      35.306 -16.513 -22.233  0.00  0.00    -0.005 C 
ATOM     23  C   UNL     1      34.969 -16.371 -24.583  0.00  0.00    +0.095 C 
ATOM     24  C   UNL     1      34.668 -14.606 -20.762  0.00  0.00    +0.033 C 
BRANCH  21  26
ATOM     25  N   UNL     1      32.712 -10.683 -23.183  0.00  0.00    -0.248 NA
ATOM     26  C   UNL     1      33.801 -13.258 -23.237  0.00  0.00    +0.020 C 
ATOM     27  C   UNL     1      32.747 -12.963 -22.379  0.00  0.00    +0.016 C 
ATOM     28  C   UNL     1      34.311 -12.266 -24.068  0.00  0.00    +0.022 C 
ATOM     29  C   UNL     1      32.243 -11.672 -22.390  0.00  0.00    +0.059 C 
ATOM     30  C   UNL     1      33.736 -11.007 -24.004  0.00  0.00    +0.098 C 
ATOM     31  C   UNL     1      31.111 -11.320 -21.483  0.00  0.00    +0.052 C 
ENDBRANCH  21  26
ENDBRANCH  17  19
ENDBRANCH   4  17
TORSDOF 4
ENDMDL
MODEL 4
REMARK VINA RESULT:     -12.0      2.619     11.091
REMARK  Name = 46926973
REMARK  4 active torsions:
REMARK  status: ('A' for Active; 'I' for Inactive)
REMARK    1  A    between atoms: C_4  and  C_17
REMARK    2  A    between atoms: C_6  and  C_13
REMARK    3  A    between atoms: C_17  and  C_19
REMARK    4  A    between atoms: C_21  and  C_26
REMARK                            x       y       z     vdW  Elec       q    Type
REMARK                         _______ _______ _______ _____ _____    ______ ____
ROOT
ATOM      1  O   UNL     1      33.092 -14.177 -23.424  0.00  0.00    -0.274 OA
ATOM      2  N   UNL     1      34.590 -12.575 -24.271  0.00  0.00    -0.269 N 
ATOM      3  N   UNL     1      34.651 -10.211 -24.215  0.00  0.00    -0.229 NA
ATOM      4  C   UNL     1      34.113 -13.870 -24.032  0.00  0.00    +0.232 C 
ATOM      5  C   UNL     1      34.020 -11.358 -23.877  0.00  0.00    +0.134 C 
ATOM      6  C   UNL     1      32.882  -9.007 -23.089  0.00  0.00    +0.038 C 
ATOM      7  C   UNL     1      32.836 -11.410 -23.158  0.00  0.00    +0.035 C 
ATOM      8  C   UNL     1      32.262 -10.208 -22.761  0.00  0.00    +0.006 C 
ATOM      9  C   UNL     1      34.063  -9.062 -23.811  0.00  0.00    +0.102 C 
ATOM     10  H   UNL     1      35.431 -12.512 -24.779  0.00  0.00    +0.156 HD
ENDROOT
BRANCH   6  13
ATOM     11  N   UNL     1      32.869  -7.155 -21.614  0.00  0.00    -0.241 NA
ATOM     12  N   UNL     1      30.727  -5.987 -22.997  0.00  0.00    -0.239 NA
ATOM     13  C   UNL     1      32.310  -7.742 -22.691  0.00  0.00    +0.102 C 
ATOM     14  C   UNL     1      31.258  -7.168 -23.371  0.00  0.00    +0.118 C 
ATOM     15  C   UNL     1      32.338  -5.974 -21.241  0.00  0.00    +0.119 C 
ATOM     16  C   UNL     1      31.285  -5.400 -21.919  0.00  0.00    +0.120 C 
ENDBRANCH   6  13
BRANCH   4  17
ATOM     17  C   UNL     1      35.043 -14.912 -24.635  0.00  0.00    +0.113 C 
BRANCH  17  19
ATOM     18  N   UNL     1      35.427 -17.178 -21.626  0.00  0.00    -0.244 NA
ATOM     19  C   UNL     1      35.160 -16.163 -23.804  0.00  0.00    +0.006 C 
ATOM     20  C   UNL     1      35.227 -18.559 -23.600  0.00  0.00    -0.004 C 
ATOM     21  C   UNL     1      35.380 -18.384 -22.235  0.00  0.00    +0.077 C 
ATOM     22  C   UNL     1      35.116 -17.421 -24.393  0.00  0.00    -0.005 C 
ATOM     23  C   UNL     1      35.316 -16.096 -22.428  0.00  0.00    +0.095 C 
ATOM     24  C   UNL     1      35.181 -19.907 -24.234  0.00  0.00    +0.033 C 
BRANCH  21  26
ATOM     25  N   UNL     1      35.746 -21.674 -19.583  0.00  0.00    -0.248 NA
ATOM     26  C   UNL     1      35.504 -19.506 -21.331  0.00  0.00    +0.020 C 
ATOM     27  C   UNL     1      34.368 -20.171 -20.882  0.00  0.00    +0.016 C 
ATOM     28  C   UNL     1      36.761 -19.924 -20.906  0.00  0.00    +0.022 C 
ATOM     29  C   UNL     1      34.542 -21.240 -20.017  0.00  0.00    +0.059 C 
ATOM     30  C   UNL     1      36.827 -21.003 -20.040  0.00  0.00    +0.098 C 
ATOM     31  C   UNL     1      33.345 -21.977 -19.515  0.00  0.00    +0.052 C 
ENDBRANCH  21  26
ENDBRANCH  17  19
ENDBRANCH   4  17
TORSDOF 4
ENDMDL
MODEL 5
REMARK VINA RESULT:     -11.8      2.091      3.906
REMARK  Name = 46926973
REMARK  4 active torsions:
REMARK  status: ('A' for Active; 'I' for Inactive)
REMARK    1  A    between atoms: C_4  and  C_17
REMARK    2  A    between atoms: C_6  and  C_13
REMARK    3  A    between atoms: C_17  and  C_19
REMARK    4  A    between atoms: C_21  and  C_26
REMARK                            x       y       z     vdW  Elec       q    Type
REMARK                         _______ _______ _______ _____ _____    ______ ____
ROOT
ATOM      1  O   UNL     1      33.738 -20.565 -21.086  0.00  0.00    -0.274 OA
ATOM      2  N   UNL     1      35.455 -21.367 -19.692  0.00  0.00    -0.269 N 
ATOM      3  N   UNL     1      35.473 -22.623 -17.688  0.00  0.00    -0.229 NA
ATOM      4  C   UNL     1      34.925 -20.694 -20.801  0.00  0.00    +0.232 C 
ATOM      5  C   UNL     1      34.761 -22.034 -18.674  0.00  0.00    +0.134 C 
ATOM      6  C   UNL     1      33.375 -23.326 -16.711  0.00  0.00    +0.038 C 
ATOM      7  C   UNL     1      33.377 -22.047 -18.748  0.00  0.00    +0.035 C 
ATOM      8  C   UNL     1      32.678 -22.706 -17.743  0.00  0.00    +0.006 C 
ATOM      9  C   UNL     1      34.759 -23.255 -16.729  0.00  0.00    +0.102 C 
ATOM     10  H   UNL     1      36.436 -21.373 -19.619  0.00  0.00    +0.156 HD
ENDROOT
BRANCH   6  13
ATOM     11  N   UNL     1      31.392 -24.336 -15.903  0.00  0.00    -0.241 NA
ATOM     12  N   UNL     1      32.636 -24.983 -13.474  0.00  0.00    -0.239 NA
ATOM     13  C   UNL     1      32.679 -24.019 -15.653  0.00  0.00    +0.102 C 
ATOM     14  C   UNL     1      33.289 -24.337 -14.460  0.00  0.00    +0.118 C 
ATOM     15  C   UNL     1      30.740 -24.983 -14.917  0.00  0.00    +0.119 C 
ATOM     16  C   UNL     1      31.350 -25.300 -13.724  0.00  0.00    +0.120 C 
ENDBRANCH   6  13
BRANCH   4  17
ATOM     17  C   UNL     1      36.035 -20.111 -21.663  0.00  0.00    +0.113 C 
BRANCH  17  19
ATOM     18  N   UNL     1      35.340 -16.430 -22.215  0.00  0.00    -0.244 NA
ATOM     19  C   UNL     1      35.650 -18.824 -22.346  0.00  0.00    +0.006 C 
ATOM     20  C   UNL     1      34.908 -17.606 -24.283  0.00  0.00    -0.004 C 
ATOM     21  C   UNL     1      34.965 -16.456 -23.514  0.00  0.00    +0.077 C 
ATOM     22  C   UNL     1      35.259 -18.810 -23.679  0.00  0.00    -0.005 C 
ATOM     23  C   UNL     1      35.673 -17.618 -21.663  0.00  0.00    +0.095 C 
ATOM     24  C   UNL     1      34.488 -17.594 -25.712  0.00  0.00    +0.033 C 
BRANCH  21  26
ATOM     25  N   UNL     1      33.949 -12.653 -25.094  0.00  0.00    -0.248 NA
ATOM     26  C   UNL     1      34.619 -15.159 -24.052  0.00  0.00    +0.020 C 
ATOM     27  C   UNL     1      34.165 -15.046 -25.362  0.00  0.00    +0.016 C 
ATOM     28  C   UNL     1      34.738 -14.021 -23.263  0.00  0.00    +0.022 C 
ATOM     29  C   UNL     1      33.846 -13.781 -25.831  0.00  0.00    +0.059 C 
ATOM     30  C   UNL     1      34.394 -12.802 -23.826  0.00  0.00    +0.098 C 
ATOM     31  C   UNL     1      33.356 -13.622 -27.232  0.00  0.00    +0.052 C 
ENDBRANCH  21  26
ENDBRANCH  17  19
ENDBRANCH   4  17
TORSDOF 4
ENDMDL
MODEL 6
REMARK VINA RESULT:     -11.8      1.228      1.761
REMARK  Name = 46926973
REMARK  4 active torsions:
REMARK  status: ('A' for Active; 'I' for Inactive)
REMARK    1  A    between atoms: C_4  and  C_17
REMARK    2  A    between atoms: C_6  and  C_13
REMARK    3  A    between atoms: C_17  and  C_19
REMARK    4  A    between atoms: C_21  and  C_26
REMARK                            x       y       z     vdW  Elec       q    Type
REMARK                         _______ _______ _______ _____ _____    ______ ____
ROOT
ATOM      1  O   UNL     1      34.141 -19.648 -23.394  0.00  0.00    -0.274 OA
ATOM      2  N   UNL     1      36.134 -18.923 -22.377  0.00  0.00    -0.269 N 
ATOM      3  N   UNL     1      37.275 -19.547 -20.401  0.00  0.00    -0.229 NA
ATOM      4  C   UNL     1      35.137 -18.931 -23.362  0.00  0.00    +0.232 C 
ATOM      5  C   UNL     1      36.218 -19.718 -21.227  0.00  0.00    +0.134 C 
ATOM      6  C   UNL     1      36.351 -21.287 -18.998  0.00  0.00    +0.038 C 
ATOM      7  C   UNL     1      35.204 -20.637 -21.010  0.00  0.00    +0.035 C 
ATOM      8  C   UNL     1      35.279 -21.432 -19.872  0.00  0.00    +0.006 C 
ATOM      9  C   UNL     1      37.314 -20.338 -19.305  0.00  0.00    +0.102 C 
ATOM     10  H   UNL     1      36.867 -18.279 -22.510  0.00  0.00    +0.156 HD
ENDROOT
BRANCH   6  13
ATOM     11  N   UNL     1      35.345 -22.770 -17.452  0.00  0.00    -0.241 NA
ATOM     12  N   UNL     1      37.718 -22.935 -15.968  0.00  0.00    -0.239 NA
ATOM     13  C   UNL     1      36.457 -22.097 -17.808  0.00  0.00    +0.102 C 
ATOM     14  C   UNL     1      37.623 -22.178 -17.079  0.00  0.00    +0.118 C 
ATOM     15  C   UNL     1      35.441 -23.527 -16.341  0.00  0.00    +0.119 C 
ATOM     16  C   UNL     1      36.606 -23.608 -15.612  0.00  0.00    +0.120 C 
ENDBRANCH   6  13
BRANCH   4  17
ATOM     17  C   UNL     1      35.435 -17.906 -24.444  0.00  0.00    +0.113 C 
BRANCH  17  19
ATOM     18  N   UNL     1      33.875 -14.478 -24.838  0.00  0.00    -0.244 NA
ATOM     19  C   UNL     1      34.942 -16.521 -24.110  0.00  0.00    +0.006 C 
ATOM     20  C   UNL     1      34.619 -14.719 -22.550  0.00  0.00    -0.004 C 
ATOM     21  C   UNL     1      34.028 -14.006 -23.580  0.00  0.00    +0.077 C 
ATOM     22  C   UNL     1      35.082 -16.001 -22.829  0.00  0.00    -0.005 C 
ATOM     23  C   UNL     1      34.337 -15.726 -25.071  0.00  0.00    +0.095 C 
ATOM     24  C   UNL     1      34.770 -14.163 -21.176  0.00  0.00    +0.033 C 
BRANCH  21  26
ATOM     25  N   UNL     1      32.530 -10.078 -23.014  0.00  0.00    -0.248 NA
ATOM     26  C   UNL     1      33.517 -12.667 -23.387  0.00  0.00    +0.020 C 
ATOM     27  C   UNL     1      32.504 -12.433 -22.463  0.00  0.00    +0.016 C 
ATOM     28  C   UNL     1      34.037 -11.609 -24.124  0.00  0.00    +0.022 C 
ATOM     29  C   UNL     1      32.050 -11.131 -22.316  0.00  0.00    +0.059 C 
ATOM     30  C   UNL     1      33.514 -10.345 -23.903  0.00  0.00    +0.098 C 
ATOM     31  C   UNL     1      30.964 -10.842 -21.334  0.00  0.00    +0.052 C 
ENDBRANCH  21  26
ENDBRANCH  17  19
ENDBRANCH   4  17
TORSDOF 4
ENDMDL
MODEL 7
REMARK VINA RESULT:     -11.8      0.900      1.994
REMARK  Name = 46926973
REMARK  4 active torsions:
REMARK  status: ('A' for Active; 'I' for Inactive)
REMARK    1  A    between atoms: C_4  and  C_17
REMARK    2  A    between atoms: C_6  and  C_13
REMARK    3  A    between atoms: C_17  and  C_19
REMARK    4  A    between atoms: C_21  and  C_26
REMARK                            x       y       z     vdW  Elec       q    Type
REMARK                         _______ _______ _______ _____ _____    ______ ____
ROOT
ATOM      1  O   UNL     1      37.174 -18.769 -23.002  0.00  0.00    -0.274 OA
ATOM      2  N   UNL     1      34.909 -19.358 -22.773  0.00  0.00    -0.269 N 
ATOM      3  N   UNL     1      33.710 -20.634 -21.181  0.00  0.00    -0.229 NA
ATOM      4  C   UNL     1      36.008 -18.743 -23.386  0.00  0.00    +0.232 C 
ATOM      5  C   UNL     1      34.891 -20.129 -21.603  0.00  0.00    +0.134 C 
ATOM      6  C   UNL     1      34.895 -21.621 -19.319  0.00  0.00    +0.038 C 
ATOM      7  C   UNL     1      36.097 -20.323 -20.949  0.00  0.00    +0.035 C 
ATOM      8  C   UNL     1      36.091 -21.086 -19.786  0.00  0.00    +0.006 C 
ATOM      9  C   UNL     1      33.743 -21.370 -20.047  0.00  0.00    +0.102 C 
ATOM     10  H   UNL     1      34.040 -19.233 -23.219  0.00  0.00    +0.156 HD
ENDROOT
BRANCH   6  13
ATOM     11  N   UNL     1      33.662 -22.964 -17.808  0.00  0.00    -0.241 NA
ATOM     12  N   UNL     1      35.930 -23.353 -16.205  0.00  0.00    -0.239 NA
ATOM     13  C   UNL     1      34.856 -22.418 -18.116  0.00  0.00    +0.102 C 
ATOM     14  C   UNL     1      35.970 -22.609 -17.328  0.00  0.00    +0.118 C 
ATOM     15  C   UNL     1      33.623 -23.708 -16.686  0.00  0.00    +0.119 C 
ATOM     16  C   UNL     1      34.736 -23.899 -15.897  0.00  0.00    +0.120 C 
ENDBRANCH   6  13
BRANCH   4  17
ATOM     17  C   UNL     1      35.583 -17.998 -24.642  0.00  0.00    +0.113 C 
BRANCH  17  19
ATOM     18  N   UNL     1      34.589 -14.854 -22.781  0.00  0.00    -0.244 NA
ATOM     19  C   UNL     1      35.011 -16.633 -24.364  0.00  0.00    +0.006 C 
ATOM     20  C   UNL     1      33.873 -14.638 -25.081  0.00  0.00    -0.004 C 
ATOM     21  C   UNL     1      33.996 -14.168 -23.784  0.00  0.00    +0.077 C 
ATOM     22  C   UNL     1      34.393 -15.896 -25.367  0.00  0.00    -0.005 C 
ATOM     23  C   UNL     1      35.082 -16.072 -23.098  0.00  0.00    +0.095 C 
ATOM     24  C   UNL     1      33.211 -13.851 -26.159  0.00  0.00    +0.033 C 
BRANCH  21  26
ATOM     25  N   UNL     1      32.500 -10.370 -22.629  0.00  0.00    -0.248 NA
ATOM     26  C   UNL     1      33.486 -12.873 -23.390  0.00  0.00    +0.020 C 
ATOM     27  C   UNL     1      34.058 -11.712 -23.900  0.00  0.00    +0.016 C 
ATOM     28  C   UNL     1      32.422 -12.784 -22.500  0.00  0.00    +0.022 C 
ATOM     29  C   UNL     1      33.532 -10.497 -23.491  0.00  0.00    +0.059 C 
ATOM     30  C   UNL     1      31.970 -11.520 -22.154  0.00  0.00    +0.098 C 
ATOM     31  C   UNL     1      34.121  -9.231 -24.018  0.00  0.00    +0.052 C 
ENDBRANCH  21  26
ENDBRANCH  17  19
ENDBRANCH   4  17
TORSDOF 4
ENDMDL
MODEL 8
REMARK VINA RESULT:     -11.5      2.343     10.273
REMARK  Name = 46926973
REMARK  4 active torsions:
REMARK  status: ('A' for Active; 'I' for Inactive)
REMARK    1  A    between atoms: C_4  and  C_17
REMARK    2  A    between atoms: C_6  and  C_13
REMARK    3  A    between atoms: C_17  and  C_19
REMARK    4  A    between atoms: C_21  and  C_26
REMARK                            x       y       z     vdW  Elec       q    Type
REMARK                         _______ _______ _______ _____ _____    ______ ____
ROOT
ATOM      1  O   UNL     1      36.557 -19.237 -20.296  0.00  0.00    -0.274 OA
ATOM      2  N   UNL     1      35.585 -20.088 -22.261  0.00  0.00    -0.269 N 
ATOM      3  N   UNL     1      34.682 -19.080 -24.201  0.00  0.00    -0.229 NA
ATOM      4  C   UNL     1      36.189 -20.173 -20.999  0.00  0.00    +0.232 C 
ATOM      5  C   UNL     1      35.269 -18.936 -22.991  0.00  0.00    +0.134 C 
ATOM      6  C   UNL     1      34.671 -16.670 -24.388  0.00  0.00    +0.038 C 
ATOM      7  C   UNL     1      35.583 -17.712 -22.422  0.00  0.00    +0.035 C 
ATOM      8  C   UNL     1      35.274 -16.562 -23.140  0.00  0.00    +0.006 C 
ATOM      9  C   UNL     1      34.398 -17.940 -24.870  0.00  0.00    +0.102 C 
ATOM     10  H   UNL     1      35.354 -20.945 -22.686  0.00  0.00    +0.156 HD
ENDROOT
BRANCH   6  13
ATOM     11  N   UNL     1      34.056 -15.702 -26.460  0.00  0.00    -0.241 NA
ATOM     12  N   UNL     1      33.999 -13.141 -25.319  0.00  0.00    -0.239 NA
ATOM     13  C   UNL     1      34.338 -15.494 -25.158  0.00  0.00    +0.102 C 
ATOM     14  C   UNL     1      34.310 -14.236 -24.597  0.00  0.00    +0.118 C 
ATOM     15  C   UNL     1      33.745 -14.607 -27.180  0.00  0.00    +0.119 C 
ATOM     16  C   UNL     1      33.717 -13.349 -26.620  0.00  0.00    +0.120 C 
ENDBRANCH   6  13
BRANCH   4  17
ATOM     17  C   UNL     1      36.353 -21.623 -20.572  0.00  0.00    +0.113 C 
BRANCH  17  19
ATOM     18  N   UNL     1      33.096 -22.493 -18.847  0.00  0.00    -0.244 NA
ATOM     19  C   UNL     1      35.380 -22.045 -19.501  0.00  0.00    +0.006 C 
ATOM     20  C   UNL     1      34.897 -22.754 -17.254  0.00  0.00    -0.004 C 
ATOM     21  C   UNL     1      33.560 -22.800 -17.615  0.00  0.00    +0.077 C 
ATOM     22  C   UNL     1      35.818 -22.368 -18.222  0.00  0.00    -0.005 C 
ATOM     23  C   UNL     1      34.021 -22.123 -19.761  0.00  0.00    +0.095 C 
ATOM     24  C   UNL     1      35.368 -23.098 -15.883  0.00  0.00    +0.033 C 
BRANCH  21  26
ATOM     25  N   UNL     1      30.537 -23.939 -14.865  0.00  0.00    -0.248 NA
ATOM     26  C   UNL     1      32.529 -23.188 -16.677  0.00  0.00    +0.020 C 
ATOM     27  C   UNL     1      31.204 -22.836 -16.911  0.00  0.00    +0.016 C 
ATOM     28  C   UNL     1      32.859 -23.916 -15.539  0.00  0.00    +0.022 C 
ATOM     29  C   UNL     1      30.255 -23.232 -15.982  0.00  0.00    +0.059 C 
ATOM     30  C   UNL     1      31.836 -24.263 -14.672  0.00  0.00    +0.098 C 
ATOM     31  C   UNL     1      28.823 -22.871 -16.200  0.00  0.00    +0.052 C 
ENDBRANCH  21  26
ENDBRANCH  17  19
ENDBRANCH   4  17
TORSDOF 4
ENDMDL
MODEL 9
REMARK VINA RESULT:     -11.2      2.623     11.269
REMARK  Name = 46926973
REMARK  4 active torsions:
REMARK  status: ('A' for Active; 'I' for Inactive)
REMARK    1  A    between atoms: C_4  and  C_17
REMARK    2  A    between atoms: C_6  and  C_13
REMARK    3  A    between atoms: C_17  and  C_19
REMARK    4  A    between atoms: C_21  and  C_26
REMARK                            x       y       z     vdW  Elec       q    Type
REMARK                         _______ _______ _______ _____ _____    ______ ____
ROOT
ATOM      1  O   UNL     1      33.243 -14.106 -23.351  0.00  0.00    -0.274 OA
ATOM      2  N   UNL     1      34.785 -12.526 -24.162  0.00  0.00    -0.269 N 
ATOM      3  N   UNL     1      34.808 -10.161 -24.237  0.00  0.00    -0.229 NA
ATOM      4  C   UNL     1      34.307 -13.815 -23.890  0.00  0.00    +0.232 C 
ATOM      5  C   UNL     1      34.167 -11.299 -23.887  0.00  0.00    +0.134 C 
ATOM      6  C   UNL     1      32.935  -8.929 -23.332  0.00  0.00    +0.038 C 
ATOM      7  C   UNL     1      32.928 -11.333 -23.267  0.00  0.00    +0.035 C 
ATOM      8  C   UNL     1      32.306 -10.121 -22.989  0.00  0.00    +0.006 C 
ATOM      9  C   UNL     1      34.173  -9.003 -23.950  0.00  0.00    +0.102 C 
ATOM     10  H   UNL     1      35.665 -12.476 -24.601  0.00  0.00    +0.156 HD
ENDROOT
BRANCH   6  13
ATOM     11  N   UNL     1      32.085  -6.867 -24.127  0.00  0.00    -0.241 NA
ATOM     12  N   UNL     1      31.400  -6.075 -21.526  0.00  0.00    -0.239 NA
ATOM     13  C   UNL     1      32.315  -7.655 -23.057  0.00  0.00    +0.102 C 
ATOM     14  C   UNL     1      31.978  -7.265 -21.779  0.00  0.00    +0.118 C 
ATOM     15  C   UNL     1      31.506  -5.677 -23.873  0.00  0.00    +0.119 C 
ATOM     16  C   UNL     1      31.170  -5.287 -22.596  0.00  0.00    +0.120 C 
ENDBRANCH   6  13
BRANCH   4  17
ATOM     17  C   UNL     1      35.299 -14.870 -24.352  0.00  0.00    +0.113 C 
BRANCH  17  19
ATOM     18  N   UNL     1      35.053 -17.270 -21.434  0.00  0.00    -0.244 NA
ATOM     19  C   UNL     1      35.209 -16.158 -23.575  0.00  0.00    +0.006 C 
ATOM     20  C   UNL     1      35.118 -18.560 -23.479  0.00  0.00    -0.004 C 
ATOM     21  C   UNL     1      35.047 -18.447 -22.100  0.00  0.00    +0.077 C 
ATOM     22  C   UNL     1      35.200 -17.387 -24.223  0.00  0.00    -0.005 C 
ATOM     23  C   UNL     1      35.134 -16.154 -22.191  0.00  0.00    +0.095 C 
ATOM     24  C   UNL     1      35.110 -19.877 -24.176  0.00  0.00    +0.033 C 
BRANCH  21  26
ATOM     25  N   UNL     1      34.790 -21.854 -19.586  0.00  0.00    -0.248 NA
ATOM     26  C   UNL     1      34.959 -19.609 -21.243  0.00  0.00    +0.020 C 
ATOM     27  C   UNL     1      36.101 -20.110 -20.628  0.00  0.00    +0.016 C 
ATOM     28  C   UNL     1      33.733 -20.228 -21.030  0.00  0.00    +0.022 C 
ATOM     29  C   UNL     1      35.964 -21.225 -19.816  0.00  0.00    +0.059 C 
ATOM     30  C   UNL     1      33.702 -21.338 -20.201  0.00  0.00    +0.098 C 
ATOM     31  C   UNL     1      37.168 -21.791 -19.140  0.00  0.00    +0.052 C 
ENDBRANCH  21  26
ENDBRANCH  17  19
ENDBRANCH   4  17
TORSDOF 4
ENDMDL
