MODEL 1
REMARK VINA RESULT:     -11.2      0.000      0.000
REMARK  Name = 9896504
REMARK  6 active torsions:
REMARK  status: ('A' for Active; 'I' for Inactive)
REMARK    1  A    between atoms: N_4  and  C_22
REMARK    2  A    between atoms: C_11  and  C_13
REMARK    3  A    between atoms: C_13  and  O_14
REMARK    4  A    between atoms: O_14  and  C_15
REMARK    5  A    between atoms: C_15  and  C_16
REMARK    6  A    between atoms: C_22  and  C_23
REMARK                            x       y       z     vdW  Elec       q    Type
REMARK                         _______ _______ _______ _____ _____    ______ ____
ROOT
ATOM      1  S   UNL     1      34.038 -15.486 -25.447  0.00  0.00    -0.064 S 
ATOM      2  O   UNL     1      35.828 -16.848 -21.078  0.00  0.00    -0.251 OA
ATOM      3  O   UNL     1      35.653 -20.166 -24.380  0.00  0.00    -0.269 OA
ATOM      4  N   UNL     1      35.776 -18.551 -22.687  0.00  0.00    -0.206 N 
ATOM      5  N   UNL     1      35.016 -16.379 -23.188  0.00  0.00    -0.214 N 
ATOM      6  C   UNL     1      34.705 -16.768 -24.472  0.00  0.00    +0.094 C 
ATOM      7  C   UNL     1      35.562 -17.223 -22.222  0.00  0.00    +0.321 C 
ATOM      8  C   UNL     1      35.477 -19.016 -23.980  0.00  0.00    +0.258 C 
ATOM      9  C   UNL     1      34.902 -18.011 -24.909  0.00  0.00    +0.080 C 
ATOM     10  C   UNL     1      34.709 -15.050 -23.008  0.00  0.00    +0.087 C 
ATOM     11  C   UNL     1      34.196 -14.450 -24.083  0.00  0.00    +0.122 C 
ENDROOT
BRANCH  11  13
ATOM     12  O   UNL     1      34.251 -12.241 -24.939  0.00  0.00    -0.244 OA
ATOM     13  C   UNL     1      33.793 -13.056 -24.143  0.00  0.00    +0.349 C 
BRANCH  13  14
ATOM     14  O   UNL     1      32.848 -12.822 -23.191  0.00  0.00    -0.440 OA
BRANCH  14  15
ATOM     15  C   UNL     1      32.636 -11.449 -22.847  0.00  0.00    +0.235 C 
BRANCH  15  16
ATOM     16  C   UNL     1      32.274 -11.359 -21.393  0.00  0.00    +0.021 C 
ATOM     17  C   UNL     1      31.912 -10.133 -20.848  0.00  0.00    -0.001 C 
ATOM     18  C   UNL     1      32.305 -12.504 -20.604  0.00  0.00    -0.001 C 
ATOM     19  C   UNL     1      31.574 -10.050 -19.497  0.00  0.00    -0.000 C 
ATOM     20  C   UNL     1      31.968 -12.421 -19.253  0.00  0.00    -0.000 C 
ATOM     21  C   UNL     1      31.602 -11.194 -18.700  0.00  0.00    -0.000 C 
ENDBRANCH  15  16
ENDBRANCH  14  15
ENDBRANCH  13  14
ENDBRANCH  11  13
BRANCH   4  22
ATOM     22  C   UNL     1      36.347 -19.524 -21.762  0.00  0.00    +0.129 C 
BRANCH  22  23
ATOM     23  C   UNL     1      35.285 -20.278 -21.015  0.00  0.00    -0.002 C 
ATOM     24  C   UNL     1      33.952 -19.914 -21.162  0.00  0.00    -0.003 C 
ATOM     25  C   UNL     1      35.646 -21.333 -20.186  0.00  0.00    -0.003 C 
ATOM     26  C   UNL     1      32.965 -20.614 -20.468  0.00  0.00    -0.000 C 
ATOM     27  C   UNL     1      34.659 -22.034 -19.493  0.00  0.00    -0.000 C 
ATOM     28  C   UNL     1      33.319 -21.674 -19.633  0.00  0.00    -0.000 C 
ENDBRANCH  22  23
ENDBRANCH   4  22
TORSDOF 6
ENDMDL
MODEL 2
REMARK VINA RESULT:     -10.8      2.352      9.131
REMARK  Name = 9896504
REMARK  6 active torsions:
REMARK  status: ('A' for Active; 'I' for Inactive)
REMARK    1  A    between atoms: N_4  and  C_22
REMARK    2  A    between atoms: C_11  and  C_13
REMARK    3  A    between atoms: C_13  and  O_14
REMARK    4  A    between atoms: O_14  and  C_15
REMARK    5  A    between atoms: C_15  and  C_16
REMARK    6  A    between atoms: C_22  and  C_23
REMARK                            x       y       z     vdW  Elec       q    Type
REMARK                         _______ _______ _______ _____ _____    ______ ____
ROOT
ATOM      1  S   UNL     1      34.143 -15.497 -20.516  0.00  0.00    -0.064 S 
ATOM      2  O   UNL     1      33.151 -12.259 -24.078  0.00  0.00    -0.251 OA
ATOM      3  O   UNL     1      31.241 -11.394 -19.889  0.00  0.00    -0.269 OA
ATOM      4  N   UNL     1      32.174 -11.764 -22.006  0.00  0.00    -0.206 N 
ATOM      5  N   UNL     1      33.515 -13.678 -22.293  0.00  0.00    -0.214 N 
ATOM      6  C   UNL     1      33.325 -14.027 -20.974  0.00  0.00    +0.094 C 
ATOM      7  C   UNL     1      32.966 -12.546 -22.893  0.00  0.00    +0.321 C 
ATOM      8  C   UNL     1      31.933 -12.065 -20.653  0.00  0.00    +0.258 C 
ATOM      9  C   UNL     1      32.581 -13.298 -20.142  0.00  0.00    +0.080 C 
ATOM     10  C   UNL     1      34.319 -14.604 -22.917  0.00  0.00    +0.087 C 
ATOM     11  C   UNL     1      34.724 -15.603 -22.132  0.00  0.00    +0.122 C 
ENDROOT
BRANCH  11  13
ATOM     12  O   UNL     1      36.038 -16.815 -23.689  0.00  0.00    -0.244 OA
ATOM     13  C   UNL     1      35.576 -16.700 -22.557  0.00  0.00    +0.349 C 
BRANCH  13  14
ATOM     14  O   UNL     1      35.766 -17.550 -21.511  0.00  0.00    -0.440 OA
BRANCH  14  15
ATOM     15  C   UNL     1      36.295 -18.838 -21.841  0.00  0.00    +0.235 C 
BRANCH  15  16
ATOM     16  C   UNL     1      35.542 -19.887 -21.077  0.00  0.00    +0.021 C 
ATOM     17  C   UNL     1      36.237 -20.805 -20.298  0.00  0.00    -0.001 C 
ATOM     18  C   UNL     1      34.154 -19.933 -21.156  0.00  0.00    -0.001 C 
ATOM     19  C   UNL     1      35.536 -21.780 -19.588  0.00  0.00    -0.000 C 
ATOM     20  C   UNL     1      33.454 -20.908 -20.446  0.00  0.00    -0.000 C 
ATOM     21  C   UNL     1      34.145 -21.831 -19.662  0.00  0.00    -0.000 C 
ENDBRANCH  15  16
ENDBRANCH  14  15
ENDBRANCH  13  14
ENDBRANCH  11  13
BRANCH   4  22
ATOM     22  C   UNL     1      31.548 -10.552 -22.523  0.00  0.00    +0.129 C 
BRANCH  22  23
ATOM     23  C   UNL     1      32.461  -9.364 -22.427  0.00  0.00    -0.002 C 
ATOM     24  C   UNL     1      33.284  -9.041 -23.499  0.00  0.00    -0.003 C 
ATOM     25  C   UNL     1      32.471  -8.597 -21.268  0.00  0.00    -0.003 C 
ATOM     26  C   UNL     1      34.133  -7.936 -23.410  0.00  0.00    -0.000 C 
ATOM     27  C   UNL     1      33.318  -7.492 -21.179  0.00  0.00    -0.000 C 
ATOM     28  C   UNL     1      34.149  -7.162 -22.250  0.00  0.00    -0.000 C 
ENDBRANCH  22  23
ENDBRANCH   4  22
TORSDOF 6
ENDMDL
MODEL 3
REMARK VINA RESULT:     -10.7      3.939      9.133
REMARK  Name = 9896504
REMARK  6 active torsions:
REMARK  status: ('A' for Active; 'I' for Inactive)
REMARK    1  A    between atoms: N_4  and  C_22
REMARK    2  A    between atoms: C_11  and  C_13
REMARK    3  A    between atoms: C_13  and  O_14
REMARK    4  A    between atoms: O_14  and  C_15
REMARK    5  A    between atoms: C_15  and  C_16
REMARK    6  A    between atoms: C_22  and  C_23
REMARK                            x       y       z     vdW  Elec       q    Type
REMARK                         _______ _______ _______ _____ _____    ______ ____
ROOT
ATOM      1  S   UNL     1      36.258 -21.896 -18.863  0.00  0.00    -0.064 S 
ATOM      2  O   UNL     1      33.786 -19.712 -22.506  0.00  0.00    -0.251 OA
ATOM      3  O   UNL     1      38.238 -18.377 -21.920  0.00  0.00    -0.269 OA
ATOM      4  N   UNL     1      36.009 -19.008 -22.273  0.00  0.00    -0.206 N 
ATOM      5  N   UNL     1      35.092 -20.638 -20.842  0.00  0.00    -0.214 N 
ATOM      6  C   UNL     1      36.288 -20.738 -20.166  0.00  0.00    +0.094 C 
ATOM      7  C   UNL     1      34.869 -19.784 -21.921  0.00  0.00    +0.321 C 
ATOM      8  C   UNL     1      37.255 -19.055 -21.622  0.00  0.00    +0.258 C 
ATOM      9  C   UNL     1      37.356 -20.010 -20.491  0.00  0.00    +0.080 C 
ATOM     10  C   UNL     1      34.166 -21.497 -20.297  0.00  0.00    +0.087 C 
ATOM     11  C   UNL     1      34.616 -22.215 -19.268  0.00  0.00    +0.122 C 
ENDROOT
BRANCH  11  13
ATOM     12  O   UNL     1      33.791 -24.386 -18.793  0.00  0.00    -0.244 OA
ATOM     13  C   UNL     1      33.832 -23.188 -18.527  0.00  0.00    +0.349 C 
BRANCH  13  14
ATOM     14  O   UNL     1      33.172 -22.555 -17.518  0.00  0.00    -0.440 OA
BRANCH  14  15
ATOM     15  C   UNL     1      33.009 -23.306 -16.312  0.00  0.00    +0.235 C 
BRANCH  15  16
ATOM     16  C   UNL     1      31.549 -23.584 -16.101  0.00  0.00    +0.021 C 
ATOM     17  C   UNL     1      31.159 -24.639 -15.285  0.00  0.00    -0.001 C 
ATOM     18  C   UNL     1      30.599 -22.783 -16.726  0.00  0.00    -0.001 C 
ATOM     19  C   UNL     1      29.802 -24.896 -15.089  0.00  0.00    -0.000 C 
ATOM     20  C   UNL     1      29.242 -23.041 -16.530  0.00  0.00    -0.000 C 
ATOM     21  C   UNL     1      28.844 -24.097 -15.712  0.00  0.00    -0.000 C 
ENDBRANCH  15  16
ENDBRANCH  14  15
ENDBRANCH  13  14
ENDBRANCH  11  13
BRANCH   4  22
ATOM     22  C   UNL     1      35.895 -18.077 -23.390  0.00  0.00    +0.129 C 
BRANCH  22  23
ATOM     23  C   UNL     1      35.416 -16.725 -22.949  0.00  0.00    -0.002 C 
ATOM     24  C   UNL     1      35.203 -16.479 -21.598  0.00  0.00    -0.003 C 
ATOM     25  C   UNL     1      35.193 -15.732 -23.895  0.00  0.00    -0.003 C 
ATOM     26  C   UNL     1      34.758 -15.222 -21.186  0.00  0.00    -0.000 C 
ATOM     27  C   UNL     1      34.749 -14.474 -23.484  0.00  0.00    -0.000 C 
ATOM     28  C   UNL     1      34.532 -14.220 -22.130  0.00  0.00    -0.000 C 
ENDBRANCH  22  23
ENDBRANCH   4  22
TORSDOF 6
ENDMDL
MODEL 4
REMARK VINA RESULT:     -10.5      4.086      9.689
REMARK  Name = 9896504
REMARK  6 active torsions:
REMARK  status: ('A' for Active; 'I' for Inactive)
REMARK    1  A    between atoms: N_4  and  C_22
REMARK    2  A    between atoms: C_11  and  C_13
REMARK    3  A    between atoms: C_13  and  O_14
REMARK    4  A    between atoms: O_14  and  C_15
REMARK    5  A    between atoms: C_15  and  C_16
REMARK    6  A    between atoms: C_22  and  C_23
REMARK                            x       y       z     vdW  Elec       q    Type
REMARK                         _______ _______ _______ _____ _____    ______ ____
ROOT
ATOM      1  S   UNL     1      36.098 -21.837 -18.724  0.00  0.00    -0.064 S 
ATOM      2  O   UNL     1      33.683 -19.660 -22.408  0.00  0.00    -0.251 OA
ATOM      3  O   UNL     1      38.236 -18.631 -22.010  0.00  0.00    -0.269 OA
ATOM      4  N   UNL     1      35.957 -19.111 -22.270  0.00  0.00    -0.206 N 
ATOM      5  N   UNL     1      34.968 -20.596 -20.733  0.00  0.00    -0.214 N 
ATOM      6  C   UNL     1      36.173 -20.751 -20.085  0.00  0.00    +0.094 C 
ATOM      7  C   UNL     1      34.775 -19.782 -21.848  0.00  0.00    +0.321 C 
ATOM      8  C   UNL     1      37.216 -19.219 -21.652  0.00  0.00    +0.258 C 
ATOM      9  C   UNL     1      37.281 -20.122 -20.475  0.00  0.00    +0.080 C 
ATOM     10  C   UNL     1      33.999 -21.356 -20.120  0.00  0.00    +0.087 C 
ATOM     11  C   UNL     1      34.426 -22.054 -19.067  0.00  0.00    +0.122 C 
ENDROOT
BRANCH  11  13
ATOM     12  O   UNL     1      32.371 -22.862 -18.208  0.00  0.00    -0.244 OA
ATOM     13  C   UNL     1      33.596 -22.928 -18.257  0.00  0.00    +0.349 C 
BRANCH  13  14
ATOM     14  O   UNL     1      34.392 -23.803 -17.583  0.00  0.00    -0.440 OA
BRANCH  14  15
ATOM     15  C   UNL     1      34.169 -23.891 -16.173  0.00  0.00    +0.235 C 
BRANCH  15  16
ATOM     16  C   UNL     1      35.470 -24.195 -15.489  0.00  0.00    +0.021 C 
ATOM     17  C   UNL     1      35.893 -25.513 -15.370  0.00  0.00    -0.001 C 
ATOM     18  C   UNL     1      36.240 -23.155 -14.980  0.00  0.00    -0.001 C 
ATOM     19  C   UNL     1      37.103 -25.796 -14.735  0.00  0.00    -0.000 C 
ATOM     20  C   UNL     1      37.450 -23.438 -14.345  0.00  0.00    -0.000 C 
ATOM     21  C   UNL     1      37.880 -24.758 -14.223  0.00  0.00    -0.000 C 
ENDBRANCH  15  16
ENDBRANCH  14  15
ENDBRANCH  13  14
ENDBRANCH  11  13
BRANCH   4  22
ATOM     22  C   UNL     1      35.877 -18.231 -23.431  0.00  0.00    +0.129 C 
BRANCH  22  23
ATOM     23  C   UNL     1      35.418 -16.851 -23.059  0.00  0.00    -0.002 C 
ATOM     24  C   UNL     1      35.255 -16.519 -21.720  0.00  0.00    -0.003 C 
ATOM     25  C   UNL     1      35.163 -15.919 -24.058  0.00  0.00    -0.003 C 
ATOM     26  C   UNL     1      34.829 -15.236 -21.373  0.00  0.00    -0.000 C 
ATOM     27  C   UNL     1      34.738 -14.636 -23.712  0.00  0.00    -0.000 C 
ATOM     28  C   UNL     1      34.571 -14.295 -22.370  0.00  0.00    -0.000 C 
ENDBRANCH  22  23
ENDBRANCH   4  22
TORSDOF 6
ENDMDL
MODEL 5
REMARK VINA RESULT:     -10.4      1.612      8.115
REMARK  Name = 9896504
REMARK  6 active torsions:
REMARK  status: ('A' for Active; 'I' for Inactive)
REMARK    1  A    between atoms: N_4  and  C_22
REMARK    2  A    between atoms: C_11  and  C_13
REMARK    3  A    between atoms: C_13  and  O_14
REMARK    4  A    between atoms: O_14  and  C_15
REMARK    5  A    between atoms: C_15  and  C_16
REMARK    6  A    between atoms: C_22  and  C_23
REMARK                            x       y       z     vdW  Elec       q    Type
REMARK                         _______ _______ _______ _____ _____    ______ ____
ROOT
ATOM      1  S   UNL     1      34.381 -17.511 -25.552  0.00  0.00    -0.064 S 
ATOM      2  O   UNL     1      35.242 -13.623 -22.671  0.00  0.00    -0.251 OA
ATOM      3  O   UNL     1      33.307 -12.733 -26.843  0.00  0.00    -0.269 OA
ATOM      4  N   UNL     1      34.265 -13.111 -24.738  0.00  0.00    -0.206 N 
ATOM      5  N   UNL     1      34.769 -15.334 -24.148  0.00  0.00    -0.214 N 
ATOM      6  C   UNL     1      34.282 -15.781 -25.356  0.00  0.00    +0.094 C 
ATOM      7  C   UNL     1      34.796 -13.996 -23.759  0.00  0.00    +0.321 C 
ATOM      8  C   UNL     1      33.758 -13.499 -25.992  0.00  0.00    +0.258 C 
ATOM      9  C   UNL     1      33.786 -14.955 -26.277  0.00  0.00    +0.080 C 
ATOM     10  C   UNL     1      35.218 -16.395 -23.397  0.00  0.00    +0.087 C 
ATOM     11  C   UNL     1      35.086 -17.585 -23.984  0.00  0.00    +0.122 C 
ENDROOT
BRANCH  11  13
ATOM     12  O   UNL     1      35.559 -19.907 -24.018  0.00  0.00    -0.244 OA
ATOM     13  C   UNL     1      35.484 -18.852 -23.395  0.00  0.00    +0.349 C 
BRANCH  13  14
ATOM     14  O   UNL     1      35.752 -18.665 -22.073  0.00  0.00    -0.440 OA
BRANCH  14  15
ATOM     15  C   UNL     1      36.437 -19.738 -21.419  0.00  0.00    +0.235 C 
BRANCH  15  16
ATOM     16  C   UNL     1      35.441 -20.562 -20.656  0.00  0.00    +0.021 C 
ATOM     17  C   UNL     1      35.886 -21.567 -19.806  0.00  0.00    -0.001 C 
ATOM     18  C   UNL     1      34.081 -20.312 -20.808  0.00  0.00    -0.001 C 
ATOM     19  C   UNL     1      34.959 -22.332 -19.096  0.00  0.00    -0.000 C 
ATOM     20  C   UNL     1      33.155 -21.077 -20.099  0.00  0.00    -0.000 C 
ATOM     21  C   UNL     1      33.595 -22.087 -19.243  0.00  0.00    -0.000 C 
ENDBRANCH  15  16
ENDBRANCH  14  15
ENDBRANCH  13  14
ENDBRANCH  11  13
BRANCH   4  22
ATOM     22  C   UNL     1      34.240 -11.683 -24.441  0.00  0.00    +0.129 C 
BRANCH  22  23
ATOM     23  C   UNL     1      33.169 -11.336 -23.448  0.00  0.00    -0.002 C 
ATOM     24  C   UNL     1      32.570 -12.343 -22.701  0.00  0.00    -0.003 C 
ATOM     25  C   UNL     1      32.789 -10.009 -23.283  0.00  0.00    -0.003 C 
ATOM     26  C   UNL     1      31.575 -12.021 -21.778  0.00  0.00    -0.000 C 
ATOM     27  C   UNL     1      31.795  -9.686 -22.360  0.00  0.00    -0.000 C 
ATOM     28  C   UNL     1      31.188 -10.692 -21.607  0.00  0.00    -0.000 C 
ENDBRANCH  22  23
ENDBRANCH   4  22
TORSDOF 6
ENDMDL
MODEL 6
REMARK VINA RESULT:     -10.4      1.764      2.473
REMARK  Name = 9896504
REMARK  6 active torsions:
REMARK  status: ('A' for Active; 'I' for Inactive)
REMARK    1  A    between atoms: N_4  and  C_22
REMARK    2  A    between atoms: C_11  and  C_13
REMARK    3  A    between atoms: C_13  and  O_14
REMARK    4  A    between atoms: O_14  and  C_15
REMARK    5  A    between atoms: C_15  and  C_16
REMARK    6  A    between atoms: C_22  and  C_23
REMARK                            x       y       z     vdW  Elec       q    Type
REMARK                         _______ _______ _______ _____ _____    ______ ____
ROOT
ATOM      1  S   UNL     1      33.850 -14.695 -24.848  0.00  0.00    -0.064 S 
ATOM      2  O   UNL     1      35.617 -16.646 -20.698  0.00  0.00    -0.251 OA
ATOM      3  O   UNL     1      35.996 -19.273 -24.558  0.00  0.00    -0.269 OA
ATOM      4  N   UNL     1      35.846 -18.005 -22.592  0.00  0.00    -0.206 N 
ATOM      5  N   UNL     1      34.839 -15.881 -22.734  0.00  0.00    -0.214 N 
ATOM      6  C   UNL     1      34.633 -16.052 -24.084  0.00  0.00    +0.094 C 
ATOM      7  C   UNL     1      35.447 -16.824 -21.907  0.00  0.00    +0.321 C 
ATOM      8  C   UNL     1      35.660 -18.248 -23.966  0.00  0.00    +0.258 C 
ATOM      9  C   UNL     1      35.002 -17.159 -24.729  0.00  0.00    +0.080 C 
ATOM     10  C   UNL     1      34.361 -14.655 -22.333  0.00  0.00    +0.087 C 
ATOM     11  C   UNL     1      33.821 -13.926 -23.310  0.00  0.00    +0.122 C 
ENDROOT
BRANCH  11  13
ATOM     12  O   UNL     1      32.117 -12.390 -22.711  0.00  0.00    -0.244 OA
ATOM     13  C   UNL     1      33.249 -12.601 -23.139  0.00  0.00    +0.349 C 
BRANCH  13  14
ATOM     14  O   UNL     1      34.161 -11.667 -23.524  0.00  0.00    -0.440 OA
BRANCH  14  15
ATOM     15  C   UNL     1      33.682 -10.661 -24.422  0.00  0.00    +0.235 C 
BRANCH  15  16
ATOM     16  C   UNL     1      33.629  -9.346 -23.700  0.00  0.00    +0.021 C 
ATOM     17  C   UNL     1      34.672  -8.439 -23.842  0.00  0.00    -0.001 C 
ATOM     18  C   UNL     1      32.536  -9.047 -22.893  0.00  0.00    -0.001 C 
ATOM     19  C   UNL     1      34.622  -7.217 -23.171  0.00  0.00    -0.000 C 
ATOM     20  C   UNL     1      32.486  -7.825 -22.222  0.00  0.00    -0.000 C 
ATOM     21  C   UNL     1      33.529  -6.911 -22.362  0.00  0.00    -0.000 C 
ENDBRANCH  15  16
ENDBRANCH  14  15
ENDBRANCH  13  14
ENDBRANCH  11  13
BRANCH   4  22
ATOM     22  C   UNL     1      36.496 -19.064 -21.828  0.00  0.00    +0.129 C 
BRANCH  22  23
ATOM     23  C   UNL     1      35.500 -19.949 -21.136  0.00  0.00    -0.002 C 
ATOM     24  C   UNL     1      34.143 -19.783 -21.385  0.00  0.00    -0.003 C 
ATOM     25  C   UNL     1      35.945 -20.927 -20.255  0.00  0.00    -0.003 C 
ATOM     26  C   UNL     1      33.217 -20.605 -20.743  0.00  0.00    -0.000 C 
ATOM     27  C   UNL     1      35.020 -21.751 -19.613  0.00  0.00    -0.000 C 
ATOM     28  C   UNL     1      33.656 -21.589 -19.857  0.00  0.00    -0.000 C 
ENDBRANCH  22  23
ENDBRANCH   4  22
TORSDOF 6
ENDMDL
MODEL 7
REMARK VINA RESULT:     -10.2      4.186     10.352
REMARK  Name = 9896504
REMARK  6 active torsions:
REMARK  status: ('A' for Active; 'I' for Inactive)
REMARK    1  A    between atoms: N_4  and  C_22
REMARK    2  A    between atoms: C_11  and  C_13
REMARK    3  A    between atoms: C_13  and  O_14
REMARK    4  A    between atoms: O_14  and  C_15
REMARK    5  A    between atoms: C_15  and  C_16
REMARK    6  A    between atoms: C_22  and  C_23
REMARK                            x       y       z     vdW  Elec       q    Type
REMARK                         _______ _______ _______ _____ _____    ______ ____
ROOT
ATOM      1  S   UNL     1      32.183 -12.410 -23.031  0.00  0.00    -0.064 S 
ATOM      2  O   UNL     1      35.593  -9.177 -24.470  0.00  0.00    -0.251 OA
ATOM      3  O   UNL     1      32.299  -7.567 -21.555  0.00  0.00    -0.269 OA
ATOM      4  N   UNL     1      33.982  -8.312 -23.006  0.00  0.00    -0.206 N 
ATOM      5  N   UNL     1      33.916 -10.562 -23.695  0.00  0.00    -0.214 N 
ATOM      6  C   UNL     1      32.785 -10.776 -22.939  0.00  0.00    +0.094 C 
ATOM      7  C   UNL     1      34.583  -9.341 -23.782  0.00  0.00    +0.321 C 
ATOM      8  C   UNL     1      32.825  -8.459 -22.218  0.00  0.00    +0.258 C 
ATOM      9  C   UNL     1      32.217  -9.813 -22.213  0.00  0.00    +0.080 C 
ATOM     10  C   UNL     1      34.281 -11.721 -24.339  0.00  0.00    +0.087 C 
ATOM     11  C   UNL     1      33.485 -12.763 -24.098  0.00  0.00    +0.122 C 
ENDROOT
BRANCH  11  13
ATOM     12  O   UNL     1      33.441 -14.376 -25.834  0.00  0.00    -0.244 OA
ATOM     13  C   UNL     1      33.661 -14.091 -24.660  0.00  0.00    +0.349 C 
BRANCH  13  14
ATOM     14  O   UNL     1      34.098 -14.935 -23.685  0.00  0.00    -0.440 OA
BRANCH  14  15
ATOM     15  C   UNL     1      35.374 -15.541 -23.913  0.00  0.00    +0.235 C 
BRANCH  15  16
ATOM     16  C   UNL     1      35.313 -16.981 -23.493  0.00  0.00    +0.021 C 
ATOM     17  C   UNL     1      35.569 -17.325 -22.171  0.00  0.00    -0.001 C 
ATOM     18  C   UNL     1      35.003 -17.959 -24.432  0.00  0.00    -0.001 C 
ATOM     19  C   UNL     1      35.511 -18.663 -21.781  0.00  0.00    -0.000 C 
ATOM     20  C   UNL     1      34.945 -19.298 -24.042  0.00  0.00    -0.000 C 
ATOM     21  C   UNL     1      35.200 -19.648 -22.716  0.00  0.00    -0.000 C 
ENDBRANCH  15  16
ENDBRANCH  14  15
ENDBRANCH  13  14
ENDBRANCH  11  13
BRANCH   4  22
ATOM     22  C   UNL     1      34.594  -6.988 -23.018  0.00  0.00    +0.129 C 
BRANCH  22  23
ATOM     23  C   UNL     1      34.147  -6.172 -24.196  0.00  0.00    -0.002 C 
ATOM     24  C   UNL     1      32.908  -5.543 -24.165  0.00  0.00    -0.003 C 
ATOM     25  C   UNL     1      34.976  -6.053 -25.304  0.00  0.00    -0.003 C 
ATOM     26  C   UNL     1      32.491  -4.785 -25.260  0.00  0.00    -0.000 C 
ATOM     27  C   UNL     1      34.560  -5.294 -26.398  0.00  0.00    -0.000 C 
ATOM     28  C   UNL     1      33.318  -4.660 -26.376  0.00  0.00    -0.000 C 
ENDBRANCH  22  23
ENDBRANCH   4  22
TORSDOF 6
ENDMDL
MODEL 8
REMARK VINA RESULT:     -10.1      4.007      9.287
REMARK  Name = 9896504
REMARK  6 active torsions:
REMARK  status: ('A' for Active; 'I' for Inactive)
REMARK    1  A    between atoms: N_4  and  C_22
REMARK    2  A    between atoms: C_11  and  C_13
REMARK    3  A    between atoms: C_13  and  O_14
REMARK    4  A    between atoms: O_14  and  C_15
REMARK    5  A    between atoms: C_15  and  C_16
REMARK    6  A    between atoms: C_22  and  C_23
REMARK                            x       y       z     vdW  Elec       q    Type
REMARK                         _______ _______ _______ _____ _____    ______ ____
ROOT
ATOM      1  S   UNL     1      34.703 -22.266 -19.133  0.00  0.00    -0.064 S 
ATOM      2  O   UNL     1      37.905 -18.885 -20.703  0.00  0.00    -0.251 OA
ATOM      3  O   UNL     1      34.030 -19.432 -23.276  0.00  0.00    -0.269 OA
ATOM      4  N   UNL     1      35.985 -19.102 -22.028  0.00  0.00    -0.206 N 
ATOM      5  N   UNL     1      36.295 -20.430 -20.107  0.00  0.00    -0.214 N 
ATOM      6  C   UNL     1      35.090 -21.058 -20.328  0.00  0.00    +0.094 C 
ATOM      7  C   UNL     1      36.820 -19.428 -20.923  0.00  0.00    +0.321 C 
ATOM      8  C   UNL     1      34.748 -19.707 -22.316  0.00  0.00    +0.258 C 
ATOM      9  C   UNL     1      34.306 -20.757 -21.364  0.00  0.00    +0.080 C 
ATOM     10  C   UNL     1      36.892 -20.935 -18.976  0.00  0.00    +0.087 C 
ATOM     11  C   UNL     1      36.194 -21.890 -18.361  0.00  0.00    +0.122 C 
ENDROOT
BRANCH  11  13
ATOM     12  O   UNL     1      37.721 -22.456 -16.639  0.00  0.00    -0.244 OA
ATOM     13  C   UNL     1      36.611 -22.577 -17.151  0.00  0.00    +0.349 C 
BRANCH  13  14
ATOM     14  O   UNL     1      35.587 -23.352 -16.701  0.00  0.00    -0.440 OA
BRANCH  14  15
ATOM     15  C   UNL     1      35.146 -23.090 -15.365  0.00  0.00    +0.235 C 
BRANCH  15  16
ATOM     16  C   UNL     1      33.752 -23.620 -15.196  0.00  0.00    +0.021 C 
ATOM     17  C   UNL     1      32.743 -23.188 -16.049  0.00  0.00    -0.001 C 
ATOM     18  C   UNL     1      33.482 -24.538 -14.188  0.00  0.00    -0.001 C 
ATOM     19  C   UNL     1      31.448 -23.682 -15.893  0.00  0.00    -0.000 C 
ATOM     20  C   UNL     1      32.187 -25.031 -14.031  0.00  0.00    -0.000 C 
ATOM     21  C   UNL     1      31.170 -24.603 -14.884  0.00  0.00    -0.000 C 
ENDBRANCH  15  16
ENDBRANCH  14  15
ENDBRANCH  13  14
ENDBRANCH  11  13
BRANCH   4  22
ATOM     22  C   UNL     1      36.431 -18.065 -22.951  0.00  0.00    +0.129 C 
BRANCH  22  23
ATOM     23  C   UNL     1      35.678 -16.781 -22.759  0.00  0.00    -0.002 C 
ATOM     24  C   UNL     1      35.350 -16.005 -23.864  0.00  0.00    -0.003 C 
ATOM     25  C   UNL     1      35.316 -16.381 -21.478  0.00  0.00    -0.003 C 
ATOM     26  C   UNL     1      34.650 -14.811 -23.686  0.00  0.00    -0.000 C 
ATOM     27  C   UNL     1      34.615 -15.188 -21.300  0.00  0.00    -0.000 C 
ATOM     28  C   UNL     1      34.282 -14.403 -22.404  0.00  0.00    -0.000 C 
ENDBRANCH  22  23
ENDBRANCH   4  22
TORSDOF 6
ENDMDL
MODEL 9
REMARK VINA RESULT:      -9.9      2.120      8.192
REMARK  Name = 9896504
REMARK  6 active torsions:
REMARK  status: ('A' for Active; 'I' for Inactive)
REMARK    1  A    between atoms: N_4  and  C_22
REMARK    2  A    between atoms: C_11  and  C_13
REMARK    3  A    between atoms: C_13  and  O_14
REMARK    4  A    between atoms: O_14  and  C_15
REMARK    5  A    between atoms: C_15  and  C_16
REMARK    6  A    between atoms: C_22  and  C_23
REMARK                            x       y       z     vdW  Elec       q    Type
REMARK                         _______ _______ _______ _____ _____    ______ ____
ROOT
ATOM      1  S   UNL     1      35.411 -19.152 -23.526  0.00  0.00    -0.064 S 
ATOM      2  O   UNL     1      35.401 -14.297 -22.761  0.00  0.00    -0.251 OA
ATOM      3  O   UNL     1      33.624 -15.764 -26.839  0.00  0.00    -0.269 OA
ATOM      4  N   UNL     1      34.491 -14.965 -24.814  0.00  0.00    -0.206 N 
ATOM      5  N   UNL     1      35.327 -16.546 -23.282  0.00  0.00    -0.214 N 
ATOM      6  C   UNL     1      35.005 -17.572 -24.141  0.00  0.00    +0.094 C 
ATOM      7  C   UNL     1      35.099 -15.197 -23.549  0.00  0.00    +0.321 C 
ATOM      8  C   UNL     1      34.142 -15.964 -25.741  0.00  0.00    +0.258 C 
ATOM      9  C   UNL     1      34.437 -17.359 -25.328  0.00  0.00    +0.080 C 
ATOM     10  C   UNL     1      35.900 -17.049 -22.137  0.00  0.00    +0.087 C 
ATOM     11  C   UNL     1      36.013 -18.377 -22.112  0.00  0.00    +0.122 C 
ENDROOT
BRANCH  11  13
ATOM     12  O   UNL     1      37.655 -18.882 -20.479  0.00  0.00    -0.244 OA
ATOM     13  C   UNL     1      36.582 -19.143 -21.016  0.00  0.00    +0.349 C 
BRANCH  13  14
ATOM     14  O   UNL     1      35.742 -20.167 -20.702  0.00  0.00    -0.440 OA
BRANCH  14  15
ATOM     15  C   UNL     1      36.368 -21.367 -20.237  0.00  0.00    +0.235 C 
BRANCH  15  16
ATOM     16  C   UNL     1      35.522 -21.972 -19.156  0.00  0.00    +0.021 C 
ATOM     17  C   UNL     1      34.178 -22.232 -19.397  0.00  0.00    -0.001 C 
ATOM     18  C   UNL     1      36.090 -22.268 -17.921  0.00  0.00    -0.001 C 
ATOM     19  C   UNL     1      33.391 -22.796 -18.391  0.00  0.00    -0.000 C 
ATOM     20  C   UNL     1      35.303 -22.831 -16.916  0.00  0.00    -0.000 C 
ATOM     21  C   UNL     1      33.955 -23.095 -17.152  0.00  0.00    -0.000 C 
ENDBRANCH  15  16
ENDBRANCH  14  15
ENDBRANCH  13  14
ENDBRANCH  11  13
BRANCH   4  22
ATOM     22  C   UNL     1      34.202 -13.589 -25.202  0.00  0.00    +0.129 C 
BRANCH  22  23
ATOM     23  C   UNL     1      33.499 -12.834 -24.112  0.00  0.00    -0.002 C 
ATOM     24  C   UNL     1      33.631 -11.452 -24.038  0.00  0.00    -0.003 C 
ATOM     25  C   UNL     1      32.722 -13.523 -23.188  0.00  0.00    -0.003 C 
ATOM     26  C   UNL     1      32.977 -10.749 -23.025  0.00  0.00    -0.000 C 
ATOM     27  C   UNL     1      32.068 -12.820 -22.176  0.00  0.00    -0.000 C 
ATOM     28  C   UNL     1      32.196 -11.434 -22.095  0.00  0.00    -0.000 C 
ENDBRANCH  22  23
ENDBRANCH   4  22
TORSDOF 6
ENDMDL
