MODEL 1
REMARK VINA RESULT:     -11.3      0.000      0.000
REMARK  Name = 18376177
REMARK  11 active torsions:
REMARK  status: ('A' for Active; 'I' for Inactive)
REMARK    1  A    between atoms: N_1  and  S_2
REMARK    2  A    between atoms: N_1  and  C_11
REMARK    3  A    between atoms: N_1  and  C_23
REMARK    4  A    between atoms: S_2  and  C_6
REMARK    5  A    between atoms: C_11  and  C_12
REMARK    6  A    between atoms: C_15  and  N_18
REMARK    7  A    between atoms: C_23  and  C_24
REMARK    8  A    between atoms: C_27  and  O_30
REMARK    9  A    between atoms: O_30  and  C_31
REMARK   10  A    between atoms: C_31  and  C_33
REMARK   11  A    between atoms: C_33  and  O_34
REMARK                            x       y       z     vdW  Elec       q    Type
REMARK                         _______ _______ _______ _____ _____    ______ ____
ROOT
ATOM      1  N   UNL     1      33.503 -23.299 -15.667  0.00  0.00    -0.147 NA
ENDROOT
BRANCH   1   2
ATOM      2  S   UNL     1      32.302 -24.059 -14.691  0.00  0.00    +0.065 S 
ATOM      3  O   UNL     1      32.128 -23.305 -13.464  0.00  0.00    -0.153 OA
ATOM      4  O   UNL     1      32.568 -25.484 -14.621  0.00  0.00    -0.153 OA
BRANCH   2   6
ATOM      5  N   UNL     1      29.530 -22.474 -17.161  0.00  0.00    -0.241 NA
ATOM      6  C   UNL     1      30.831 -23.846 -15.653  0.00  0.00    +0.141 C 
ATOM      7  C   UNL     1      29.842 -24.823 -15.677  0.00  0.00    +0.023 C 
ATOM      8  C   UNL     1      30.628 -22.700 -16.406  0.00  0.00    +0.119 C 
ATOM      9  C   UNL     1      28.698 -24.628 -16.442  0.00  0.00    +0.022 C 
ATOM     10  C   UNL     1      28.591 -23.447 -17.160  0.00  0.00    +0.099 C 
ENDBRANCH   2   6
ENDBRANCH   1   2
BRANCH   1  11
ATOM     11  C   UNL     1      33.865 -23.947 -16.953  0.00  0.00    +0.122 C 
BRANCH  11  12
ATOM     12  C   UNL     1      34.313 -22.952 -17.986  0.00  0.00    -0.004 C 
ATOM     13  C   UNL     1      33.392 -22.422 -18.888  0.00  0.00    -0.002 C 
ATOM     14  C   UNL     1      35.651 -22.560 -18.044  0.00  0.00    -0.002 C 
ATOM     15  C   UNL     1      35.145 -21.108 -19.907  0.00  0.00    +0.074 C 
ATOM     16  C   UNL     1      33.808 -21.499 -19.849  0.00  0.00    +0.016 C 
ATOM     17  C   UNL     1      36.067 -21.638 -19.004  0.00  0.00    +0.016 C 
BRANCH  15  18
ATOM     18  N   UNL     1      35.557 -20.192 -20.858  0.00  0.00    -0.189 N 
ATOM     19  N   UNL     1      36.782 -19.644 -20.789  0.00  0.00    -0.172 NA
ATOM     20  C   UNL     1      34.818 -19.761 -21.920  0.00  0.00    +0.091 C 
ATOM     21  C   UNL     1      35.615 -18.867 -22.593  0.00  0.00    +0.040 C 
ATOM     22  C   UNL     1      36.811 -18.834 -21.853  0.00  0.00    +0.120 C 
ENDBRANCH  15  18
ENDBRANCH  11  12
ENDBRANCH   1  11
BRANCH   1  23
ATOM     23  C   UNL     1      34.689 -22.722 -14.983  0.00  0.00    +0.123 C 
BRANCH  23  24
ATOM     24  C   UNL     1      35.519 -23.773 -14.300  0.00  0.00    -0.001 C 
ATOM     25  C   UNL     1      36.527 -24.432 -15.004  0.00  0.00    +0.034 C 
ATOM     26  C   UNL     1      35.282 -24.088 -12.962  0.00  0.00    -0.003 C 
ATOM     27  C   UNL     1      37.297 -25.407 -14.370  0.00  0.00    +0.139 C 
ATOM     28  C   UNL     1      36.051 -25.063 -12.328  0.00  0.00    +0.003 C 
ATOM     29  C   UNL     1      37.060 -25.722 -13.032  0.00  0.00    +0.037 C 
BRANCH  27  30
ATOM     30  O   UNL     1      38.278 -26.052 -15.057  0.00  0.00    -0.464 OA
BRANCH  30  31
ATOM     31  C   UNL     1      39.541 -26.194 -14.407  0.00  0.00    +0.314 C 
BRANCH  31  33
ATOM     32  O   UNL     1      41.369 -24.655 -14.843  0.00  0.00    -0.246 OA
ATOM     33  C   UNL     1      40.613 -25.534 -15.228  0.00  0.00    +0.359 C 
BRANCH  33  34
ATOM     34  O   UNL     1      40.631 -26.056 -16.480  0.00  0.00    -0.478 OA
ATOM     35  H   UNL     1      41.005 -26.902 -16.631  0.00  0.00    +0.295 HD
ENDBRANCH  33  34
ENDBRANCH  31  33
ENDBRANCH  30  31
ENDBRANCH  27  30
ENDBRANCH  23  24
ENDBRANCH   1  23
TORSDOF 11
ENDMDL
MODEL 2
REMARK VINA RESULT:     -10.3      2.621      6.905
REMARK  Name = 18376177
REMARK  11 active torsions:
REMARK  status: ('A' for Active; 'I' for Inactive)
REMARK    1  A    between atoms: N_1  and  S_2
REMARK    2  A    between atoms: N_1  and  C_11
REMARK    3  A    between atoms: N_1  and  C_23
REMARK    4  A    between atoms: S_2  and  C_6
REMARK    5  A    between atoms: C_11  and  C_12
REMARK    6  A    between atoms: C_15  and  N_18
REMARK    7  A    between atoms: C_23  and  C_24
REMARK    8  A    between atoms: C_27  and  O_30
REMARK    9  A    between atoms: O_30  and  C_31
REMARK   10  A    between atoms: C_31  and  C_33
REMARK   11  A    between atoms: C_33  and  O_34
REMARK                            x       y       z     vdW  Elec       q    Type
REMARK                         _______ _______ _______ _____ _____    ______ ____
ROOT
ATOM      1  N   UNL     1      34.326 -23.287 -17.056  0.00  0.00    -0.147 NA
ENDROOT
BRANCH   1   2
ATOM      2  S   UNL     1      35.755 -22.832 -16.205  0.00  0.00    +0.065 S 
ATOM      3  O   UNL     1      35.390 -22.118 -14.996  0.00  0.00    -0.153 OA
ATOM      4  O   UNL     1      36.699 -22.233 -17.131  0.00  0.00    -0.153 OA
BRANCH   2   6
ATOM      5  N   UNL     1      36.101 -26.768 -15.379  0.00  0.00    -0.241 NA
ATOM      6  C   UNL     1      36.425 -24.395 -15.711  0.00  0.00    +0.141 C 
ATOM      7  C   UNL     1      37.742 -24.506 -15.280  0.00  0.00    +0.023 C 
ATOM      8  C   UNL     1      35.653 -25.546 -15.742  0.00  0.00    +0.119 C 
ATOM      9  C   UNL     1      38.240 -25.747 -14.899  0.00  0.00    +0.022 C 
ATOM     10  C   UNL     1      37.387 -26.837 -14.966  0.00  0.00    +0.099 C 
ENDBRANCH   2   6
ENDBRANCH   1   2
BRANCH   1  11
ATOM     11  C   UNL     1      34.458 -23.653 -18.489  0.00  0.00    +0.122 C 
BRANCH  11  12
ATOM     12  C   UNL     1      34.648 -22.449 -19.369  0.00  0.00    -0.004 C 
ATOM     13  C   UNL     1      35.932 -22.053 -19.740  0.00  0.00    -0.002 C 
ATOM     14  C   UNL     1      33.540 -21.729 -19.814  0.00  0.00    -0.002 C 
ATOM     15  C   UNL     1      35.001 -20.213 -21.000  0.00  0.00    +0.074 C 
ATOM     16  C   UNL     1      36.109 -20.934 -20.556  0.00  0.00    +0.016 C 
ATOM     17  C   UNL     1      33.716 -20.611 -20.629  0.00  0.00    +0.016 C 
BRANCH  15  18
ATOM     18  N   UNL     1      35.176 -19.106 -21.809  0.00  0.00    -0.189 N 
ATOM     19  N   UNL     1      35.510 -17.918 -21.275  0.00  0.00    -0.172 NA
ATOM     20  C   UNL     1      35.045 -19.083 -23.167  0.00  0.00    +0.091 C 
ATOM     21  C   UNL     1      35.309 -17.791 -23.547  0.00  0.00    +0.040 C 
ATOM     22  C   UNL     1      35.589 -17.118 -22.343  0.00  0.00    +0.120 C 
ENDBRANCH  15  18
ENDBRANCH  11  12
ENDBRANCH   1  11
BRANCH   1  23
ATOM     23  C   UNL     1      33.086 -22.512 -16.793  0.00  0.00    +0.123 C 
BRANCH  23  24
ATOM     24  C   UNL     1      32.031 -23.340 -16.115  0.00  0.00    -0.001 C 
ATOM     25  C   UNL     1      30.690 -23.186 -16.468  0.00  0.00    +0.034 C 
ATOM     26  C   UNL     1      32.392 -24.262 -15.133  0.00  0.00    -0.003 C 
ATOM     27  C   UNL     1      29.711 -23.954 -15.838  0.00  0.00    +0.139 C 
ATOM     28  C   UNL     1      31.413 -25.030 -14.503  0.00  0.00    +0.003 C 
ATOM     29  C   UNL     1      30.072 -24.877 -14.857  0.00  0.00    +0.037 C 
BRANCH  27  30
ATOM     30  O   UNL     1      28.403 -23.803 -16.181  0.00  0.00    -0.464 OA
BRANCH  30  31
ATOM     31  C   UNL     1      28.123 -23.082 -17.380  0.00  0.00    +0.314 C 
BRANCH  31  33
ATOM     32  O   UNL     1      26.740 -21.140 -17.846  0.00  0.00    -0.246 OA
ATOM     33  C   UNL     1      27.019 -22.093 -17.134  0.00  0.00    +0.359 C 
BRANCH  33  34
ATOM     34  O   UNL     1      26.358 -22.405 -15.991  0.00  0.00    -0.478 OA
ATOM     35  H   UNL     1      25.573 -21.946 -15.763  0.00  0.00    +0.295 HD
ENDBRANCH  33  34
ENDBRANCH  31  33
ENDBRANCH  30  31
ENDBRANCH  27  30
ENDBRANCH  23  24
ENDBRANCH   1  23
TORSDOF 11
ENDMDL
MODEL 3
REMARK VINA RESULT:     -10.2      2.654      6.935
REMARK  Name = 18376177
REMARK  11 active torsions:
REMARK  status: ('A' for Active; 'I' for Inactive)
REMARK    1  A    between atoms: N_1  and  S_2
REMARK    2  A    between atoms: N_1  and  C_11
REMARK    3  A    between atoms: N_1  and  C_23
REMARK    4  A    between atoms: S_2  and  C_6
REMARK    5  A    between atoms: C_11  and  C_12
REMARK    6  A    between atoms: C_15  and  N_18
REMARK    7  A    between atoms: C_23  and  C_24
REMARK    8  A    between atoms: C_27  and  O_30
REMARK    9  A    between atoms: O_30  and  C_31
REMARK   10  A    between atoms: C_31  and  C_33
REMARK   11  A    between atoms: C_33  and  O_34
REMARK                            x       y       z     vdW  Elec       q    Type
REMARK                         _______ _______ _______ _____ _____    ______ ____
ROOT
ATOM      1  N   UNL     1      34.559 -23.550 -15.988  0.00  0.00    -0.147 NA
ENDROOT
BRANCH   1   2
ATOM      2  S   UNL     1      36.155 -23.192 -15.442  0.00  0.00    +0.065 S 
ATOM      3  O   UNL     1      36.374 -21.758 -15.496  0.00  0.00    -0.153 OA
ATOM      4  O   UNL     1      37.098 -24.083 -16.092  0.00  0.00    -0.153 OA
BRANCH   2   6
ATOM      5  N   UNL     1      34.879 -24.692 -11.919  0.00  0.00    -0.241 NA
ATOM      6  C   UNL     1      36.091 -23.651 -13.733  0.00  0.00    +0.141 C 
ATOM      7  C   UNL     1      37.143 -23.358 -12.873  0.00  0.00    +0.023 C 
ATOM      8  C   UNL     1      34.992 -24.314 -13.211  0.00  0.00    +0.119 C 
ATOM      9  C   UNL     1      37.065 -23.731 -11.536  0.00  0.00    +0.022 C 
ATOM     10  C   UNL     1      35.921 -24.390 -11.112  0.00  0.00    +0.099 C 
ENDBRANCH   2   6
ENDBRANCH   1   2
BRANCH   1  11
ATOM     11  C   UNL     1      34.392 -24.020 -17.386  0.00  0.00    +0.122 C 
BRANCH  11  12
ATOM     12  C   UNL     1      34.656 -22.932 -18.388  0.00  0.00    -0.004 C 
ATOM     13  C   UNL     1      33.616 -22.447 -19.180  0.00  0.00    -0.002 C 
ATOM     14  C   UNL     1      35.941 -22.408 -18.527  0.00  0.00    -0.002 C 
ATOM     15  C   UNL     1      35.146 -20.914 -20.252  0.00  0.00    +0.074 C 
ATOM     16  C   UNL     1      33.861 -21.437 -20.112  0.00  0.00    +0.016 C 
ATOM     17  C   UNL     1      36.186 -21.399 -19.459  0.00  0.00    +0.016 C 
BRANCH  15  18
ATOM     18  N   UNL     1      35.388 -19.913 -21.174  0.00  0.00    -0.189 N 
ATOM     19  N   UNL     1      36.447 -19.097 -21.031  0.00  0.00    -0.172 NA
ATOM     20  C   UNL     1      34.633 -19.647 -22.277  0.00  0.00    +0.091 C 
ATOM     21  C   UNL     1      35.238 -18.582 -22.899  0.00  0.00    +0.040 C 
ATOM     22  C   UNL     1      36.349 -18.286 -22.089  0.00  0.00    +0.120 C 
ENDBRANCH  15  18
ENDBRANCH  11  12
ENDBRANCH   1  11
BRANCH   1  23
ATOM     23  C   UNL     1      33.464 -22.633 -15.576  0.00  0.00    +0.123 C 
BRANCH  23  24
ATOM     24  C   UNL     1      32.113 -23.284 -15.666  0.00  0.00    -0.001 C 
ATOM     25  C   UNL     1      31.128 -22.737 -16.488  0.00  0.00    +0.034 C 
ATOM     26  C   UNL     1      31.843 -24.437 -14.927  0.00  0.00    -0.003 C 
ATOM     27  C   UNL     1      29.874 -23.342 -16.572  0.00  0.00    +0.139 C 
ATOM     28  C   UNL     1      30.589 -25.042 -15.011  0.00  0.00    +0.003 C 
ATOM     29  C   UNL     1      29.604 -24.494 -15.834  0.00  0.00    +0.037 C 
BRANCH  27  30
ATOM     30  O   UNL     1      28.912 -22.807 -17.372  0.00  0.00    -0.464 OA
BRANCH  30  31
ATOM     31  C   UNL     1      27.784 -22.216 -16.726  0.00  0.00    +0.314 C 
BRANCH  31  33
ATOM     32  O   UNL     1      26.763 -22.187 -18.931  0.00  0.00    -0.246 OA
ATOM     33  C   UNL     1      26.685 -21.991 -17.727  0.00  0.00    +0.359 C 
BRANCH  33  34
ATOM     34  O   UNL     1      25.571 -21.532 -17.104  0.00  0.00    -0.478 OA
ATOM     35  H   UNL     1      25.425 -20.610 -17.022  0.00  0.00    +0.295 HD
ENDBRANCH  33  34
ENDBRANCH  31  33
ENDBRANCH  30  31
ENDBRANCH  27  30
ENDBRANCH  23  24
ENDBRANCH   1  23
TORSDOF 11
ENDMDL
MODEL 4
REMARK VINA RESULT:     -10.0      2.480      6.484
REMARK  Name = 18376177
REMARK  11 active torsions:
REMARK  status: ('A' for Active; 'I' for Inactive)
REMARK    1  A    between atoms: N_1  and  S_2
REMARK    2  A    between atoms: N_1  and  C_11
REMARK    3  A    between atoms: N_1  and  C_23
REMARK    4  A    between atoms: S_2  and  C_6
REMARK    5  A    between atoms: C_11  and  C_12
REMARK    6  A    between atoms: C_15  and  N_18
REMARK    7  A    between atoms: C_23  and  C_24
REMARK    8  A    between atoms: C_27  and  O_30
REMARK    9  A    between atoms: O_30  and  C_31
REMARK   10  A    between atoms: C_31  and  C_33
REMARK   11  A    between atoms: C_33  and  O_34
REMARK                            x       y       z     vdW  Elec       q    Type
REMARK                         _______ _______ _______ _____ _____    ______ ____
ROOT
ATOM      1  N   UNL     1      36.360 -24.302 -15.947  0.00  0.00    -0.147 NA
ENDROOT
BRANCH   1   2
ATOM      2  S   UNL     1      37.759 -24.850 -15.102  0.00  0.00    +0.065 S 
ATOM      3  O   UNL     1      38.877 -23.971 -15.396  0.00  0.00    -0.153 OA
ATOM      4  O   UNL     1      37.908 -26.281 -15.291  0.00  0.00    -0.153 OA
BRANCH   2   6
ATOM      5  N   UNL     1      36.445 -25.486 -11.339  0.00  0.00    -0.241 NA
ATOM      6  C   UNL     1      37.315 -24.588 -13.408  0.00  0.00    +0.141 C 
ATOM      7  C   UNL     1      37.469 -23.342 -12.811  0.00  0.00    +0.023 C 
ATOM      8  C   UNL     1      36.803 -25.618 -12.635  0.00  0.00    +0.119 C 
ATOM      9  C   UNL     1      37.112 -23.166 -11.479  0.00  0.00    +0.022 C 
ATOM     10  C   UNL     1      36.609 -24.261 -10.793  0.00  0.00    +0.099 C 
ENDBRANCH   2   6
ENDBRANCH   1   2
BRANCH   1  11
ATOM     11  C   UNL     1      35.992 -22.868 -15.825  0.00  0.00    +0.122 C 
BRANCH  11  12
ATOM     12  C   UNL     1      36.126 -22.133 -17.129  0.00  0.00    -0.004 C 
ATOM     13  C   UNL     1      35.174 -22.314 -18.132  0.00  0.00    -0.002 C 
ATOM     14  C   UNL     1      37.202 -21.270 -17.337  0.00  0.00    -0.002 C 
ATOM     15  C   UNL     1      36.376 -20.771 -19.551  0.00  0.00    +0.074 C 
ATOM     16  C   UNL     1      35.299 -21.633 -19.344  0.00  0.00    +0.016 C 
ATOM     17  C   UNL     1      37.327 -20.589 -18.547  0.00  0.00    +0.016 C 
BRANCH  15  18
ATOM     18  N   UNL     1      36.498 -20.094 -20.751  0.00  0.00    -0.189 N 
ATOM     19  N   UNL     1      37.566 -19.312 -20.985  0.00  0.00    -0.172 NA
ATOM     20  C   UNL     1      35.608 -20.137 -21.783  0.00  0.00    +0.091 C 
ATOM     21  C   UNL     1      36.129 -19.325 -22.761  0.00  0.00    +0.040 C 
ATOM     22  C   UNL     1      37.334 -18.845 -22.216  0.00  0.00    +0.120 C 
ENDBRANCH  15  18
ENDBRANCH  11  12
ENDBRANCH   1  11
BRANCH   1  23
ATOM     23  C   UNL     1      35.164 -25.183 -15.952  0.00  0.00    +0.123 C 
BRANCH  23  24
ATOM     24  C   UNL     1      33.950 -24.497 -15.392  0.00  0.00    -0.001 C 
ATOM     25  C   UNL     1      32.912 -24.112 -16.241  0.00  0.00    +0.034 C 
ATOM     26  C   UNL     1      33.860 -24.247 -14.022  0.00  0.00    -0.003 C 
ATOM     27  C   UNL     1      31.786 -23.475 -15.720  0.00  0.00    +0.139 C 
ATOM     28  C   UNL     1      32.733 -23.611 -13.502  0.00  0.00    +0.003 C 
ATOM     29  C   UNL     1      31.695 -23.225 -14.351  0.00  0.00    +0.037 C 
BRANCH  27  30
ATOM     30  O   UNL     1      30.775 -23.097 -16.549  0.00  0.00    -0.464 OA
BRANCH  30  31
ATOM     31  C   UNL     1      29.566 -23.853 -16.487  0.00  0.00    +0.314 C 
BRANCH  31  33
ATOM     32  O   UNL     1      28.198 -21.903 -16.969  0.00  0.00    -0.246 OA
ATOM     33  C   UNL     1      28.452 -23.086 -17.143  0.00  0.00    +0.359 C 
BRANCH  33  34
ATOM     34  O   UNL     1      27.750 -23.898 -17.973  0.00  0.00    -0.478 OA
ATOM     35  H   UNL     1      27.443 -24.729 -17.668  0.00  0.00    +0.295 HD
ENDBRANCH  33  34
ENDBRANCH  31  33
ENDBRANCH  30  31
ENDBRANCH  27  30
ENDBRANCH  23  24
ENDBRANCH   1  23
TORSDOF 11
ENDMDL
MODEL 5
REMARK VINA RESULT:      -9.9      1.585      2.650
REMARK  Name = 18376177
REMARK  11 active torsions:
REMARK  status: ('A' for Active; 'I' for Inactive)
REMARK    1  A    between atoms: N_1  and  S_2
REMARK    2  A    between atoms: N_1  and  C_11
REMARK    3  A    between atoms: N_1  and  C_23
REMARK    4  A    between atoms: S_2  and  C_6
REMARK    5  A    between atoms: C_11  and  C_12
REMARK    6  A    between atoms: C_15  and  N_18
REMARK    7  A    between atoms: C_23  and  C_24
REMARK    8  A    between atoms: C_27  and  O_30
REMARK    9  A    between atoms: O_30  and  C_31
REMARK   10  A    between atoms: C_31  and  C_33
REMARK   11  A    between atoms: C_33  and  O_34
REMARK                            x       y       z     vdW  Elec       q    Type
REMARK                         _______ _______ _______ _____ _____    ______ ____
ROOT
ATOM      1  N   UNL     1      33.405 -23.351 -16.723  0.00  0.00    -0.147 NA
ENDROOT
BRANCH   1   2
ATOM      2  S   UNL     1      32.402 -23.397 -15.321  0.00  0.00    +0.065 S 
ATOM      3  O   UNL     1      32.494 -22.130 -14.619  0.00  0.00    -0.153 OA
ATOM      4  O   UNL     1      32.639 -24.633 -14.598  0.00  0.00    -0.153 OA
BRANCH   2   6
ATOM      5  N   UNL     1      28.922 -22.389 -17.101  0.00  0.00    -0.241 NA
ATOM      6  C   UNL     1      30.775 -23.498 -16.014  0.00  0.00    +0.141 C 
ATOM      7  C   UNL     1      30.076 -24.699 -16.028  0.00  0.00    +0.023 C 
ATOM      8  C   UNL     1      30.159 -22.382 -16.557  0.00  0.00    +0.119 C 
ATOM      9  C   UNL     1      28.800 -24.748 -16.579  0.00  0.00    +0.022 C 
ATOM     10  C   UNL     1      28.272 -23.575 -17.098  0.00  0.00    +0.099 C 
ENDBRANCH   2   6
ENDBRANCH   1   2
BRANCH   1  11
ATOM     11  C   UNL     1      32.750 -23.144 -18.039  0.00  0.00    +0.122 C 
BRANCH  11  12
ATOM     12  C   UNL     1      33.560 -22.261 -18.946  0.00  0.00    -0.004 C 
ATOM     13  C   UNL     1      34.942 -22.426 -19.026  0.00  0.00    -0.002 C 
ATOM     14  C   UNL     1      32.930 -21.276 -19.706  0.00  0.00    -0.002 C 
ATOM     15  C   UNL     1      35.064 -20.619 -20.627  0.00  0.00    +0.074 C 
ATOM     16  C   UNL     1      35.695 -21.605 -19.867  0.00  0.00    +0.016 C 
ATOM     17  C   UNL     1      33.682 -20.455 -20.547  0.00  0.00    +0.016 C 
BRANCH  15  18
ATOM     18  N   UNL     1      35.810 -19.807 -21.461  0.00  0.00    -0.189 N 
ATOM     19  N   UNL     1      35.283 -19.340 -22.606  0.00  0.00    -0.172 NA
ATOM     20  C   UNL     1      37.093 -19.401 -21.239  0.00  0.00    +0.091 C 
ATOM     21  C   UNL     1      37.429 -18.614 -22.313  0.00  0.00    +0.040 C 
ATOM     22  C   UNL     1      36.278 -18.612 -23.122  0.00  0.00    +0.120 C 
ENDBRANCH  15  18
ENDBRANCH  11  12
ENDBRANCH   1  11
BRANCH   1  23
ATOM     23  C   UNL     1      34.523 -24.326 -16.807  0.00  0.00    +0.123 C 
BRANCH  23  24
ATOM     24  C   UNL     1      35.698 -23.919 -15.963  0.00  0.00    -0.001 C 
ATOM     25  C   UNL     1      36.288 -24.840 -15.098  0.00  0.00    +0.034 C 
ATOM     26  C   UNL     1      36.198 -22.619 -16.044  0.00  0.00    -0.003 C 
ATOM     27  C   UNL     1      37.378 -24.462 -14.314  0.00  0.00    +0.139 C 
ATOM     28  C   UNL     1      37.288 -22.241 -15.261  0.00  0.00    +0.003 C 
ATOM     29  C   UNL     1      37.879 -23.163 -14.396  0.00  0.00    +0.037 C 
BRANCH  27  30
ATOM     30  O   UNL     1      37.952 -25.360 -13.468  0.00  0.00    -0.464 OA
BRANCH  30  31
ATOM     31  C   UNL     1      37.082 -26.081 -12.597  0.00  0.00    +0.314 C 
BRANCH  31  33
ATOM     32  O   UNL     1      37.102 -24.389 -10.854  0.00  0.00    -0.246 OA
ATOM     33  C   UNL     1      36.481 -25.144 -11.587  0.00  0.00    +0.359 C 
BRANCH  33  34
ATOM     34  O   UNL     1      35.129 -25.248 -11.599  0.00  0.00    -0.478 OA
ATOM     35  H   UNL     1      34.672 -25.518 -10.826  0.00  0.00    +0.295 HD
ENDBRANCH  33  34
ENDBRANCH  31  33
ENDBRANCH  30  31
ENDBRANCH  27  30
ENDBRANCH  23  24
ENDBRANCH   1  23
TORSDOF 11
ENDMDL
MODEL 6
REMARK VINA RESULT:      -9.4      2.585      6.940
REMARK  Name = 18376177
REMARK  11 active torsions:
REMARK  status: ('A' for Active; 'I' for Inactive)
REMARK    1  A    between atoms: N_1  and  S_2
REMARK    2  A    between atoms: N_1  and  C_11
REMARK    3  A    between atoms: N_1  and  C_23
REMARK    4  A    between atoms: S_2  and  C_6
REMARK    5  A    between atoms: C_11  and  C_12
REMARK    6  A    between atoms: C_15  and  N_18
REMARK    7  A    between atoms: C_23  and  C_24
REMARK    8  A    between atoms: C_27  and  O_30
REMARK    9  A    between atoms: O_30  and  C_31
REMARK   10  A    between atoms: C_31  and  C_33
REMARK   11  A    between atoms: C_33  and  O_34
REMARK                            x       y       z     vdW  Elec       q    Type
REMARK                         _______ _______ _______ _____ _____    ______ ____
ROOT
ATOM      1  N   UNL     1      35.826 -23.915 -15.416  0.00  0.00    -0.147 NA
ENDROOT
BRANCH   1   2
ATOM      2  S   UNL     1      36.055 -25.472 -14.711  0.00  0.00    +0.065 S 
ATOM      3  O   UNL     1      35.655 -26.496 -15.658  0.00  0.00    -0.153 OA
ATOM      4  O   UNL     1      35.497 -25.482 -13.371  0.00  0.00    -0.153 OA
BRANCH   2   6
ATOM      5  N   UNL     1      39.915 -26.486 -15.318  0.00  0.00    -0.241 NA
ATOM      6  C   UNL     1      37.816 -25.566 -14.547  0.00  0.00    +0.141 C 
ATOM      7  C   UNL     1      38.485 -24.838 -13.570  0.00  0.00    +0.023 C 
ATOM      8  C   UNL     1      38.570 -26.368 -15.388  0.00  0.00    +0.119 C 
ATOM      9  C   UNL     1      39.868 -24.932 -13.465  0.00  0.00    +0.022 C 
ATOM     10  C   UNL     1      40.531 -25.762 -14.356  0.00  0.00    +0.099 C 
ENDBRANCH   2   6
ENDBRANCH   1   2
BRANCH   1  11
ATOM     11  C   UNL     1      37.032 -23.160 -15.838  0.00  0.00    +0.122 C 
BRANCH  11  12
ATOM     12  C   UNL     1      36.801 -22.374 -17.098  0.00  0.00    -0.004 C 
ATOM     13  C   UNL     1      37.634 -21.301 -17.413  0.00  0.00    -0.002 C 
ATOM     14  C   UNL     1      35.753 -22.718 -17.952  0.00  0.00    -0.002 C 
ATOM     15  C   UNL     1      36.370 -20.914 -19.436  0.00  0.00    +0.074 C 
ATOM     16  C   UNL     1      37.419 -20.571 -18.583  0.00  0.00    +0.016 C 
ATOM     17  C   UNL     1      35.538 -21.988 -19.121  0.00  0.00    +0.016 C 
BRANCH  15  18
ATOM     18  N   UNL     1      36.158 -20.191 -20.595  0.00  0.00    -0.189 N 
ATOM     19  N   UNL     1      37.072 -19.301 -21.019  0.00  0.00    -0.172 NA
ATOM     20  C   UNL     1      35.066 -20.289 -21.406  0.00  0.00    +0.091 C 
ATOM     21  C   UNL     1      35.278 -19.399 -22.430  0.00  0.00    +0.040 C 
ATOM     22  C   UNL     1      36.527 -18.820 -22.141  0.00  0.00    +0.120 C 
ENDBRANCH  15  18
ENDBRANCH  11  12
ENDBRANCH   1  11
BRANCH   1  23
ATOM     23  C   UNL     1      34.797 -23.027 -14.816  0.00  0.00    +0.123 C 
BRANCH  23  24
ATOM     24  C   UNL     1      33.407 -23.575 -14.981  0.00  0.00    -0.001 C 
ATOM     25  C   UNL     1      32.568 -23.065 -15.972  0.00  0.00    +0.034 C 
ATOM     26  C   UNL     1      32.955 -24.594 -14.142  0.00  0.00    -0.003 C 
ATOM     27  C   UNL     1      31.279 -23.573 -16.124  0.00  0.00    +0.139 C 
ATOM     28  C   UNL     1      31.665 -25.103 -14.294  0.00  0.00    +0.003 C 
ATOM     29  C   UNL     1      30.827 -24.592 -15.286  0.00  0.00    +0.037 C 
BRANCH  27  30
ATOM     30  O   UNL     1      30.460 -23.074 -17.090  0.00  0.00    -0.464 OA
BRANCH  30  31
ATOM     31  C   UNL     1      29.190 -22.575 -16.671  0.00  0.00    +0.314 C 
BRANCH  31  33
ATOM     32  O   UNL     1      28.031 -24.433 -17.723  0.00  0.00    -0.246 OA
ATOM     33  C   UNL     1      28.097 -23.242 -17.458  0.00  0.00    +0.359 C 
BRANCH  33  34
ATOM     34  O   UNL     1      27.172 -22.327 -17.842  0.00  0.00    -0.478 OA
ATOM     35  H   UNL     1      27.403 -21.653 -18.450  0.00  0.00    +0.295 HD
ENDBRANCH  33  34
ENDBRANCH  31  33
ENDBRANCH  30  31
ENDBRANCH  27  30
ENDBRANCH  23  24
ENDBRANCH   1  23
TORSDOF 11
ENDMDL
