MODEL 1
REMARK VINA RESULT:     -12.2      0.000      0.000
REMARK  Name = 447655
REMARK  6 active torsions:
REMARK  status: ('A' for Active; 'I' for Inactive)
REMARK    1  A    between atoms: N_4  and  C_14
REMARK    2  A    between atoms: C_6  and  O_26
REMARK    3  A    between atoms: C_15  and  S_20
REMARK    4  A    between atoms: S_20  and  N_23
REMARK    5  A    between atoms: O_26  and  C_27
REMARK    6  A    between atoms: C_27  and  C_28
REMARK                            x       y       z     vdW  Elec       q    Type
REMARK                         _______ _______ _______ _____ _____    ______ ____
ROOT
ATOM      1  N   UNL     1      33.683 -22.999 -16.822  0.00  0.00    -0.293 NA
ATOM      2  N   UNL     1      30.029 -22.712 -17.123  0.00  0.00    -0.266 NA
ATOM      3  N   UNL     1      32.479 -23.370 -14.734  0.00  0.00    -0.316 NA
ATOM      4  N   UNL     1      34.813 -23.492 -14.831  0.00  0.00    -0.238 N 
ATOM      5  N   UNL     1      30.064 -23.179 -14.944  0.00  0.00    -0.296 N 
ATOM      6  C   UNL     1      32.532 -22.785 -17.498  0.00  0.00    +0.288 C 
ATOM      7  C   UNL     1      31.346 -22.862 -16.797  0.00  0.00    +0.215 C 
ATOM      8  C   UNL     1      31.343 -23.151 -15.439  0.00  0.00    +0.196 C 
ATOM      9  C   UNL     1      33.586 -23.275 -15.500  0.00  0.00    +0.207 C 
ATOM     10  C   UNL     1      29.299 -22.911 -15.980  0.00  0.00    +0.164 C 
ATOM     11  H   UNL     1      29.669 -22.500 -18.014  0.00  0.00    +0.126 HD
ATOM     12  H   UNL     1      34.712 -23.691 -13.872  0.00  0.00    +0.166 HD
ATOM     13  H   UNL     1      29.781 -23.359 -14.018  0.00  0.00    +0.150 HD
ENDROOT
BRANCH   4  14
ATOM     14  C   UNL     1      36.149 -23.480 -15.269  0.00  0.00    +0.060 C 
ATOM     15  C   UNL     1      38.350 -24.484 -15.316  0.00  0.00    +0.123 C 
ATOM     16  C   UNL     1      37.024 -24.496 -14.881  0.00  0.00    +0.035 C 
ATOM     17  C   UNL     1      36.606 -22.450 -16.097  0.00  0.00    +0.015 C 
ATOM     18  C   UNL     1      38.803 -23.455 -16.142  0.00  0.00    +0.020 C 
ATOM     19  C   UNL     1      37.931 -22.439 -16.532  0.00  0.00    +0.003 C 
BRANCH  15  20
ATOM     20  S   UNL     1      39.441 -25.757 -14.830  0.00  0.00    +0.057 S 
ATOM     21  O   UNL     1      40.226 -25.281 -13.699  0.00  0.00    -0.153 OA
ATOM     22  O   UNL     1      38.684 -26.996 -14.715  0.00  0.00    -0.153 OA
BRANCH  20  23
ATOM     23  N   UNL     1      40.455 -25.859 -16.201  0.00  0.00    -0.203 NA
ATOM     24  H   UNL     1      40.516 -26.831 -16.506  0.00  0.00    +0.144 HD
ATOM     25  H   UNL     1      41.386 -25.519 -15.961  0.00  0.00    +0.144 HD
ENDBRANCH  20  23
ENDBRANCH  15  20
ENDBRANCH   4  14
BRANCH   6  26
ATOM     26  O   UNL     1      32.595 -22.502 -18.841  0.00  0.00    -0.453 OA
BRANCH  26  27
ATOM     27  C   UNL     1      33.818 -22.775 -19.499  0.00  0.00    +0.208 C 
BRANCH  27  28
ATOM     28  C   UNL     1      34.530 -21.451 -19.766  0.00  0.00    +0.044 C 
ATOM     29  C   UNL     1      36.024 -21.681 -20.029  0.00  0.00    +0.004 C 
ATOM     30  C   UNL     1      33.876 -20.712 -20.942  0.00  0.00    +0.004 C 
ATOM     31  C   UNL     1      36.748 -20.376 -20.351  0.00  0.00    +0.000 C 
ATOM     32  C   UNL     1      34.604 -19.409 -21.263  0.00  0.00    +0.000 C 
ATOM     33  C   UNL     1      36.090 -19.641 -21.515  0.00  0.00    +0.000 C 
ENDBRANCH  27  28
ENDBRANCH  26  27
ENDBRANCH   6  26
TORSDOF 6
ENDMDL
MODEL 2
REMARK VINA RESULT:     -12.1      2.426      2.879
REMARK  Name = 447655
REMARK  6 active torsions:
REMARK  status: ('A' for Active; 'I' for Inactive)
REMARK    1  A    between atoms: N_4  and  C_14
REMARK    2  A    between atoms: C_6  and  O_26
REMARK    3  A    between atoms: C_15  and  S_20
REMARK    4  A    between atoms: S_20  and  N_23
REMARK    5  A    between atoms: O_26  and  C_27
REMARK    6  A    between atoms: C_27  and  C_28
REMARK                            x       y       z     vdW  Elec       q    Type
REMARK                         _______ _______ _______ _____ _____    ______ ____
ROOT
ATOM      1  N   UNL     1      32.574 -23.501 -16.059  0.00  0.00    -0.293 NA
ATOM      2  N   UNL     1      29.287 -22.544 -17.405  0.00  0.00    -0.266 NA
ATOM      3  N   UNL     1      30.703 -24.007 -14.578  0.00  0.00    -0.316 NA
ATOM      4  N   UNL     1      32.906 -24.510 -13.972  0.00  0.00    -0.238 N 
ATOM      5  N   UNL     1      28.536 -23.372 -15.477  0.00  0.00    -0.296 N 
ATOM      6  C   UNL     1      31.747 -22.982 -16.995  0.00  0.00    +0.288 C 
ATOM      7  C   UNL     1      30.394 -22.971 -16.729  0.00  0.00    +0.215 C 
ATOM      8  C   UNL     1      29.902 -23.481 -15.535  0.00  0.00    +0.196 C 
ATOM      9  C   UNL     1      32.007 -23.976 -14.924  0.00  0.00    +0.207 C 
ATOM     10  C   UNL     1      28.198 -22.805 -16.616  0.00  0.00    +0.164 C 
ATOM     11  H   UNL     1      29.274 -22.127 -18.296  0.00  0.00    +0.126 HD
ATOM     12  H   UNL     1      32.467 -24.848 -13.158  0.00  0.00    +0.166 HD
ATOM     13  H   UNL     1      27.939 -23.654 -14.746  0.00  0.00    +0.150 HD
ENDROOT
BRANCH   4  14
ATOM     14  C   UNL     1      34.305 -24.654 -13.962  0.00  0.00    +0.060 C 
ATOM     15  C   UNL     1      36.432 -24.396 -12.837  0.00  0.00    +0.123 C 
ATOM     16  C   UNL     1      35.044 -24.253 -12.847  0.00  0.00    +0.035 C 
ATOM     17  C   UNL     1      34.961 -25.201 -15.068  0.00  0.00    +0.015 C 
ATOM     18  C   UNL     1      37.084 -24.943 -13.943  0.00  0.00    +0.020 C 
ATOM     19  C   UNL     1      36.348 -25.345 -15.058  0.00  0.00    +0.003 C 
BRANCH  15  20
ATOM     20  S   UNL     1      37.353 -23.895 -11.442  0.00  0.00    +0.057 S 
ATOM     21  O   UNL     1      38.538 -24.735 -11.347  0.00  0.00    -0.153 OA
ATOM     22  O   UNL     1      37.495 -22.446 -11.479  0.00  0.00    -0.153 OA
BRANCH  20  23
ATOM     23  N   UNL     1      36.281 -24.307 -10.177  0.00  0.00    -0.203 NA
ATOM     24  H   UNL     1      36.592 -25.174  -9.738  0.00  0.00    +0.144 HD
ATOM     25  H   UNL     1      35.343 -24.436 -10.556  0.00  0.00    +0.144 HD
ENDBRANCH  20  23
ENDBRANCH  15  20
ENDBRANCH   4  14
BRANCH   6  26
ATOM     26  O   UNL     1      32.289 -22.491 -18.158  0.00  0.00    -0.453 OA
BRANCH  26  27
ATOM     27  C   UNL     1      33.609 -22.893 -18.472  0.00  0.00    +0.208 C 
BRANCH  27  28
ATOM     28  C   UNL     1      34.059 -22.141 -19.723  0.00  0.00    +0.044 C 
ATOM     29  C   UNL     1      33.117 -20.965 -20.017  0.00  0.00    +0.004 C 
ATOM     30  C   UNL     1      35.507 -21.655 -19.571  0.00  0.00    +0.004 C 
ATOM     31  C   UNL     1      33.577 -20.165 -21.233  0.00  0.00    +0.000 C 
ATOM     32  C   UNL     1      35.962 -20.853 -20.788  0.00  0.00    +0.000 C 
ATOM     33  C   UNL     1      35.019 -19.692 -21.083  0.00  0.00    +0.000 C 
ENDBRANCH  27  28
ENDBRANCH  26  27
ENDBRANCH   6  26
TORSDOF 6
ENDMDL
MODEL 3
REMARK VINA RESULT:     -11.8      1.882      2.480
REMARK  Name = 447655
REMARK  6 active torsions:
REMARK  status: ('A' for Active; 'I' for Inactive)
REMARK    1  A    between atoms: N_4  and  C_14
REMARK    2  A    between atoms: C_6  and  O_26
REMARK    3  A    between atoms: C_15  and  S_20
REMARK    4  A    between atoms: S_20  and  N_23
REMARK    5  A    between atoms: O_26  and  C_27
REMARK    6  A    between atoms: C_27  and  C_28
REMARK                            x       y       z     vdW  Elec       q    Type
REMARK                         _______ _______ _______ _____ _____    ______ ____
ROOT
ATOM      1  N   UNL     1      33.666 -23.946 -14.895  0.00  0.00    -0.293 NA
ATOM      2  N   UNL     1      30.281 -24.070 -16.326  0.00  0.00    -0.266 NA
ATOM      3  N   UNL     1      32.048 -25.155 -13.527  0.00  0.00    -0.316 NA
ATOM      4  N   UNL     1      34.277 -24.921 -12.855  0.00  0.00    -0.238 N 
ATOM      5  N   UNL     1      29.814 -25.232 -14.482  0.00  0.00    -0.296 N 
ATOM      6  C   UNL     1      32.733 -23.676 -15.835  0.00  0.00    +0.288 C 
ATOM      7  C   UNL     1      31.451 -24.142 -15.628  0.00  0.00    +0.215 C 
ATOM      8  C   UNL     1      31.136 -24.867 -14.486  0.00  0.00    +0.196 C 
ATOM      9  C   UNL     1      33.271 -24.660 -13.814  0.00  0.00    +0.207 C 
ATOM     10  C   UNL     1      29.328 -24.737 -15.601  0.00  0.00    +0.164 C 
ATOM     11  H   UNL     1      30.145 -23.623 -17.192  0.00  0.00    +0.126 HD
ATOM     12  H   UNL     1      33.962 -25.442 -12.082  0.00  0.00    +0.166 HD
ATOM     13  H   UNL     1      29.334 -25.747 -13.794  0.00  0.00    +0.150 HD
ENDROOT
BRANCH   4  14
ATOM     14  C   UNL     1      35.641 -24.584 -12.792  0.00  0.00    +0.060 C 
ATOM     15  C   UNL     1      37.901 -24.823 -13.622  0.00  0.00    +0.123 C 
ATOM     16  C   UNL     1      36.548 -25.159 -13.684  0.00  0.00    +0.035 C 
ATOM     17  C   UNL     1      36.093 -23.668 -11.838  0.00  0.00    +0.015 C 
ATOM     18  C   UNL     1      38.349 -23.909 -12.668  0.00  0.00    +0.020 C 
ATOM     19  C   UNL     1      37.444 -23.332 -11.776  0.00  0.00    +0.003 C 
BRANCH  15  20
ATOM     20  S   UNL     1      39.033 -25.544 -14.738  0.00  0.00    +0.057 S 
ATOM     21  O   UNL     1      39.690 -24.477 -15.478  0.00  0.00    -0.153 OA
ATOM     22  O   UNL     1      39.834 -26.523 -14.015  0.00  0.00    -0.153 OA
BRANCH  20  23
ATOM     23  N   UNL     1      37.972 -26.374 -15.789  0.00  0.00    -0.203 NA
ATOM     24  H   UNL     1      37.490 -27.110 -15.273  0.00  0.00    +0.144 HD
ATOM     25  H   UNL     1      38.506 -26.787 -16.553  0.00  0.00    +0.144 HD
ENDBRANCH  20  23
ENDBRANCH  15  20
ENDBRANCH   4  14
BRANCH   6  26
ATOM     26  O   UNL     1      33.101 -22.954 -16.944  0.00  0.00    -0.453 OA
BRANCH  26  27
ATOM     27  C   UNL     1      34.337 -23.286 -17.547  0.00  0.00    +0.208 C 
BRANCH  27  28
ATOM     28  C   UNL     1      34.387 -22.645 -18.933  0.00  0.00    +0.044 C 
ATOM     29  C   UNL     1      33.179 -21.722 -19.148  0.00  0.00    +0.004 C 
ATOM     30  C   UNL     1      35.701 -21.876 -19.127  0.00  0.00    +0.004 C 
ATOM     31  C   UNL     1      33.235 -21.028 -20.506  0.00  0.00    +0.000 C 
ATOM     32  C   UNL     1      35.752 -21.182 -20.485  0.00  0.00    +0.000 C 
ATOM     33  C   UNL     1      34.546 -20.273 -20.699  0.00  0.00    +0.000 C 
ENDBRANCH  27  28
ENDBRANCH  26  27
ENDBRANCH   6  26
TORSDOF 6
ENDMDL
MODEL 4
REMARK VINA RESULT:     -11.2      2.633      5.457
REMARK  Name = 447655
REMARK  6 active torsions:
REMARK  status: ('A' for Active; 'I' for Inactive)
REMARK    1  A    between atoms: N_4  and  C_14
REMARK    2  A    between atoms: C_6  and  O_26
REMARK    3  A    between atoms: C_15  and  S_20
REMARK    4  A    between atoms: S_20  and  N_23
REMARK    5  A    between atoms: O_26  and  C_27
REMARK    6  A    between atoms: C_27  and  C_28
REMARK                            x       y       z     vdW  Elec       q    Type
REMARK                         _______ _______ _______ _____ _____    ______ ____
ROOT
ATOM      1  N   UNL     1      35.384 -23.483 -16.654  0.00  0.00    -0.293 NA
ATOM      2  N   UNL     1      33.286 -22.094 -19.336  0.00  0.00    -0.266 NA
ATOM      3  N   UNL     1      36.588 -22.059 -18.226  0.00  0.00    -0.316 NA
ATOM      4  N   UNL     1      37.678 -23.074 -16.422  0.00  0.00    -0.238 N 
ATOM      5  N   UNL     1      35.192 -21.146 -19.995  0.00  0.00    -0.296 N 
ATOM      6  C   UNL     1      34.219 -23.301 -17.316  0.00  0.00    +0.288 C 
ATOM      7  C   UNL     1      34.230 -22.498 -18.437  0.00  0.00    +0.215 C 
ATOM      8  C   UNL     1      35.406 -21.897 -18.867  0.00  0.00    +0.196 C 
ATOM      9  C   UNL     1      36.481 -22.858 -17.144  0.00  0.00    +0.207 C 
ATOM     10  C   UNL     1      33.909 -21.285 -20.251  0.00  0.00    +0.164 C 
ATOM     11  H   UNL     1      32.332 -22.337 -19.329  0.00  0.00    +0.126 HD
ATOM     12  H   UNL     1      38.458 -22.607 -16.800  0.00  0.00    +0.166 HD
ATOM     13  H   UNL     1      35.852 -20.619 -20.502  0.00  0.00    +0.150 HD
ENDROOT
BRANCH   4  14
ATOM     14  C   UNL     1      37.971 -23.823 -15.269  0.00  0.00    +0.060 C 
ATOM     15  C   UNL     1      37.476 -24.428 -12.979  0.00  0.00    +0.123 C 
ATOM     16  C   UNL     1      37.185 -23.684 -14.123  0.00  0.00    +0.035 C 
ATOM     17  C   UNL     1      39.048 -24.714 -15.267  0.00  0.00    +0.015 C 
ATOM     18  C   UNL     1      38.552 -25.316 -12.980  0.00  0.00    +0.020 C 
ATOM     19  C   UNL     1      39.338 -25.458 -14.124  0.00  0.00    +0.003 C 
BRANCH  15  20
ATOM     20  S   UNL     1      36.492 -24.252 -11.548  0.00  0.00    +0.057 S 
ATOM     21  O   UNL     1      36.230 -25.576 -11.005  0.00  0.00    -0.153 OA
ATOM     22  O   UNL     1      37.089 -23.227 -10.701  0.00  0.00    -0.153 OA
BRANCH  20  23
ATOM     23  N   UNL     1      35.047 -23.634 -12.219  0.00  0.00    -0.203 NA
ATOM     24  H   UNL     1      34.792 -22.771 -11.740  0.00  0.00    +0.144 HD
ATOM     25  H   UNL     1      34.300 -24.319 -12.105  0.00  0.00    +0.144 HD
ENDBRANCH  20  23
ENDBRANCH  15  20
ENDBRANCH   4  14
BRANCH   6  26
ATOM     26  O   UNL     1      33.087 -23.921 -16.845  0.00  0.00    -0.453 OA
BRANCH  26  27
ATOM     27  C   UNL     1      32.706 -23.639 -15.512  0.00  0.00    +0.208 C 
BRANCH  27  28
ATOM     28  C   UNL     1      31.181 -23.574 -15.448  0.00  0.00    +0.044 C 
ATOM     29  C   UNL     1      30.618 -22.830 -16.666  0.00  0.00    +0.004 C 
ATOM     30  C   UNL     1      30.583 -24.984 -15.345  0.00  0.00    +0.004 C 
ATOM     31  C   UNL     1      29.092 -22.799 -16.652  0.00  0.00    +0.000 C 
ATOM     32  C   UNL     1      29.057 -24.949 -15.333  0.00  0.00    +0.000 C 
ATOM     33  C   UNL     1      28.501 -24.201 -16.541  0.00  0.00    +0.000 C 
ENDBRANCH  27  28
ENDBRANCH  26  27
ENDBRANCH   6  26
TORSDOF 6
ENDMDL
MODEL 5
REMARK VINA RESULT:     -11.2      2.050      5.092
REMARK  Name = 447655
REMARK  6 active torsions:
REMARK  status: ('A' for Active; 'I' for Inactive)
REMARK    1  A    between atoms: N_4  and  C_14
REMARK    2  A    between atoms: C_6  and  O_26
REMARK    3  A    between atoms: C_15  and  S_20
REMARK    4  A    between atoms: S_20  and  N_23
REMARK    5  A    between atoms: O_26  and  C_27
REMARK    6  A    between atoms: C_27  and  C_28
REMARK                            x       y       z     vdW  Elec       q    Type
REMARK                         _______ _______ _______ _____ _____    ______ ____
ROOT
ATOM      1  N   UNL     1      35.012 -22.670 -17.844  0.00  0.00    -0.293 NA
ATOM      2  N   UNL     1      33.210 -21.158 -20.671  0.00  0.00    -0.266 NA
ATOM      3  N   UNL     1      36.339 -21.086 -19.140  0.00  0.00    -0.316 NA
ATOM      4  N   UNL     1      37.236 -22.195 -17.286  0.00  0.00    -0.238 N 
ATOM      5  N   UNL     1      35.138 -20.092 -21.006  0.00  0.00    -0.296 N 
ATOM      6  C   UNL     1      33.934 -22.482 -18.637  0.00  0.00    +0.288 C 
ATOM      7  C   UNL     1      34.050 -21.595 -19.688  0.00  0.00    +0.215 C 
ATOM      8  C   UNL     1      35.241 -20.919 -19.917  0.00  0.00    +0.196 C 
ATOM      9  C   UNL     1      36.132 -21.969 -18.140  0.00  0.00    +0.207 C 
ATOM     10  C   UNL     1      33.906 -20.259 -21.436  0.00  0.00    +0.164 C 
ATOM     11  H   UNL     1      32.276 -21.437 -20.806  0.00  0.00    +0.126 HD
ATOM     12  H   UNL     1      38.035 -21.672 -17.524  0.00  0.00    +0.166 HD
ATOM     13  H   UNL     1      35.832 -19.504 -21.383  0.00  0.00    +0.150 HD
ENDROOT
BRANCH   4  14
ATOM     14  C   UNL     1      37.414 -23.020 -16.161  0.00  0.00    +0.060 C 
ATOM     15  C   UNL     1      38.761 -24.585 -14.899  0.00  0.00    +0.123 C 
ATOM     16  C   UNL     1      38.585 -23.767 -16.016  0.00  0.00    +0.035 C 
ATOM     17  C   UNL     1      36.419 -23.093 -15.181  0.00  0.00    +0.015 C 
ATOM     18  C   UNL     1      37.766 -24.656 -13.923  0.00  0.00    +0.020 C 
ATOM     19  C   UNL     1      36.595 -23.910 -14.065  0.00  0.00    +0.003 C 
BRANCH  15  20
ATOM     20  S   UNL     1      40.225 -25.517 -14.721  0.00  0.00    +0.057 S 
ATOM     21  O   UNL     1      41.295 -24.618 -14.313  0.00  0.00    -0.153 OA
ATOM     22  O   UNL     1      39.927 -26.697 -13.921  0.00  0.00    -0.153 OA
BRANCH  20  23
ATOM     23  N   UNL     1      40.500 -26.005 -16.335  0.00  0.00    -0.203 NA
ATOM     24  H   UNL     1      40.261 -26.991 -16.437  0.00  0.00    +0.144 HD
ATOM     25  H   UNL     1      41.484 -25.868 -16.568  0.00  0.00    +0.144 HD
ENDBRANCH  20  23
ENDBRANCH  15  20
ENDBRANCH   4  14
BRANCH   6  26
ATOM     26  O   UNL     1      32.781 -23.177 -18.365  0.00  0.00    -0.453 OA
BRANCH  26  27
ATOM     27  C   UNL     1      32.022 -22.752 -17.249  0.00  0.00    +0.208 C 
BRANCH  27  28
ATOM     28  C   UNL     1      31.958 -23.899 -16.242  0.00  0.00    +0.044 C 
ATOM     29  C   UNL     1      32.780 -23.568 -14.989  0.00  0.00    +0.004 C 
ATOM     30  C   UNL     1      30.503 -24.214 -15.872  0.00  0.00    +0.004 C 
ATOM     31  C   UNL     1      32.689 -24.677 -13.945  0.00  0.00    +0.000 C 
ATOM     32  C   UNL     1      30.415 -25.323 -14.826  0.00  0.00    +0.000 C 
ATOM     33  C   UNL     1      31.241 -24.994 -13.586  0.00  0.00    +0.000 C 
ENDBRANCH  27  28
ENDBRANCH  26  27
ENDBRANCH   6  26
TORSDOF 6
ENDMDL
MODEL 6
REMARK VINA RESULT:     -11.0      3.466      7.277
REMARK  Name = 447655
REMARK  6 active torsions:
REMARK  status: ('A' for Active; 'I' for Inactive)
REMARK    1  A    between atoms: N_4  and  C_14
REMARK    2  A    between atoms: C_6  and  O_26
REMARK    3  A    between atoms: C_15  and  S_20
REMARK    4  A    between atoms: S_20  and  N_23
REMARK    5  A    between atoms: O_26  and  C_27
REMARK    6  A    between atoms: C_27  and  C_28
REMARK                            x       y       z     vdW  Elec       q    Type
REMARK                         _______ _______ _______ _____ _____    ______ ____
ROOT
ATOM      1  N   UNL     1      35.149 -23.239 -16.644  0.00  0.00    -0.293 NA
ATOM      2  N   UNL     1      35.911 -25.128 -13.582  0.00  0.00    -0.266 NA
ATOM      3  N   UNL     1      37.515 -23.267 -16.052  0.00  0.00    -0.316 NA
ATOM      4  N   UNL     1      36.750 -22.139 -17.952  0.00  0.00    -0.238 N 
ATOM      5  N   UNL     1      38.008 -24.519 -14.027  0.00  0.00    -0.296 N 
ATOM      6  C   UNL     1      34.828 -23.993 -15.569  0.00  0.00    +0.288 C 
ATOM      7  C   UNL     1      35.847 -24.388 -14.727  0.00  0.00    +0.215 C 
ATOM      8  C   UNL     1      37.161 -24.021 -14.984  0.00  0.00    +0.196 C 
ATOM      9  C   UNL     1      36.456 -22.928 -16.817  0.00  0.00    +0.207 C 
ATOM     10  C   UNL     1      37.226 -25.179 -13.199  0.00  0.00    +0.164 C 
ATOM     11  H   UNL     1      35.153 -25.549 -13.116  0.00  0.00    +0.126 HD
ATOM     12  H   UNL     1      37.706 -21.929 -18.053  0.00  0.00    +0.166 HD
ATOM     13  H   UNL     1      38.985 -24.407 -13.971  0.00  0.00    +0.150 HD
ENDROOT
BRANCH   4  14
ATOM     14  C   UNL     1      35.941 -21.597 -18.968  0.00  0.00    +0.060 C 
ATOM     15  C   UNL     1      35.665 -20.121 -20.865  0.00  0.00    +0.123 C 
ATOM     16  C   UNL     1      36.467 -20.657 -19.858  0.00  0.00    +0.035 C 
ATOM     17  C   UNL     1      34.608 -21.998 -19.092  0.00  0.00    +0.015 C 
ATOM     18  C   UNL     1      34.334 -20.524 -20.986  0.00  0.00    +0.020 C 
ATOM     19  C   UNL     1      33.807 -21.462 -20.099  0.00  0.00    +0.003 C 
BRANCH  15  20
ATOM     20  S   UNL     1      36.325 -18.947 -21.976  0.00  0.00    +0.057 S 
ATOM     21  O   UNL     1      37.765 -18.886 -21.777  0.00  0.00    -0.153 OA
ATOM     22  O   UNL     1      35.788 -19.215 -23.303  0.00  0.00    -0.153 OA
BRANCH  20  23
ATOM     23  N   UNL     1      35.624 -17.506 -21.382  0.00  0.00    -0.203 NA
ATOM     24  H   UNL     1      34.932 -17.734 -20.669  0.00  0.00    +0.144 HD
ATOM     25  H   UNL     1      35.171 -17.008 -22.148  0.00  0.00    +0.144 HD
ENDBRANCH  20  23
ENDBRANCH  15  20
ENDBRANCH   4  14
BRANCH   6  26
ATOM     26  O   UNL     1      33.511 -24.326 -15.364  0.00  0.00    -0.453 OA
BRANCH  26  27
ATOM     27  C   UNL     1      32.806 -23.588 -14.384  0.00  0.00    +0.208 C 
BRANCH  27  28
ATOM     28  C   UNL     1      31.315 -23.647 -14.714  0.00  0.00    +0.044 C 
ATOM     29  C   UNL     1      31.040 -23.034 -16.094  0.00  0.00    +0.004 C 
ATOM     30  C   UNL     1      30.802 -25.091 -14.647  0.00  0.00    +0.004 C 
ATOM     31  C   UNL     1      29.564 -23.128 -16.469  0.00  0.00    +0.000 C 
ATOM     32  C   UNL     1      29.326 -25.183 -15.025  0.00  0.00    +0.000 C 
ATOM     33  C   UNL     1      29.055 -24.564 -16.393  0.00  0.00    +0.000 C 
ENDBRANCH  27  28
ENDBRANCH  26  27
ENDBRANCH   6  26
TORSDOF 6
ENDMDL
MODEL 7
REMARK VINA RESULT:     -10.8      6.454      9.354
REMARK  Name = 447655
REMARK  6 active torsions:
REMARK  status: ('A' for Active; 'I' for Inactive)
REMARK    1  A    between atoms: N_4  and  C_14
REMARK    2  A    between atoms: C_6  and  O_26
REMARK    3  A    between atoms: C_15  and  S_20
REMARK    4  A    between atoms: S_20  and  N_23
REMARK    5  A    between atoms: O_26  and  C_27
REMARK    6  A    between atoms: C_27  and  C_28
REMARK                            x       y       z     vdW  Elec       q    Type
REMARK                         _______ _______ _______ _____ _____    ______ ____
ROOT
ATOM      1  N   UNL     1      35.141 -16.832 -22.440  0.00  0.00    -0.293 NA
ATOM      2  N   UNL     1      34.151 -14.065 -24.651  0.00  0.00    -0.266 NA
ATOM      3  N   UNL     1      34.859 -17.474 -24.776  0.00  0.00    -0.316 NA
ATOM      4  N   UNL     1      35.485 -19.036 -23.152  0.00  0.00    -0.238 N 
ATOM      5  N   UNL     1      34.206 -15.638 -26.229  0.00  0.00    -0.296 N 
ATOM      6  C   UNL     1      34.818 -15.547 -22.710  0.00  0.00    +0.288 C 
ATOM      7  C   UNL     1      34.513 -15.217 -24.014  0.00  0.00    +0.215 C 
ATOM      8  C   UNL     1      34.540 -16.179 -25.014  0.00  0.00    +0.196 C 
ATOM      9  C   UNL     1      35.142 -17.704 -23.476  0.00  0.00    +0.207 C 
ATOM     10  C   UNL     1      33.978 -14.366 -25.977  0.00  0.00    +0.164 C 
ATOM     11  H   UNL     1      34.037 -13.180 -24.236  0.00  0.00    +0.126 HD
ATOM     12  H   UNL     1      35.479 -19.647 -23.923  0.00  0.00    +0.166 HD
ATOM     13  H   UNL     1      34.148 -16.098 -27.098  0.00  0.00    +0.150 HD
ENDROOT
BRANCH   4  14
ATOM     14  C   UNL     1      35.836 -19.659 -21.940  0.00  0.00    +0.060 C 
ATOM     15  C   UNL     1      35.317 -21.195 -20.144  0.00  0.00    +0.123 C 
ATOM     16  C   UNL     1      34.968 -20.578 -21.346  0.00  0.00    +0.035 C 
ATOM     17  C   UNL     1      37.057 -19.362 -21.328  0.00  0.00    +0.015 C 
ATOM     18  C   UNL     1      36.536 -20.897 -19.535  0.00  0.00    +0.020 C 
ATOM     19  C   UNL     1      37.406 -19.980 -20.127  0.00  0.00    +0.003 C 
BRANCH  15  20
ATOM     20  S   UNL     1      34.230 -22.343 -19.404  0.00  0.00    +0.057 S 
ATOM     21  O   UNL     1      32.960 -21.677 -19.153  0.00  0.00    -0.153 OA
ATOM     22  O   UNL     1      34.260 -23.575 -20.180  0.00  0.00    -0.153 OA
BRANCH  20  23
ATOM     23  N   UNL     1      35.014 -22.617 -17.910  0.00  0.00    -0.203 NA
ATOM     24  H   UNL     1      34.609 -23.438 -17.460  0.00  0.00    +0.144 HD
ATOM     25  H   UNL     1      34.891 -21.804 -17.308  0.00  0.00    +0.144 HD
ENDBRANCH  20  23
ENDBRANCH  15  20
ENDBRANCH   4  14
BRANCH   6  26
ATOM     26  O   UNL     1      34.808 -14.637 -21.681  0.00  0.00    -0.453 OA
BRANCH  26  27
ATOM     27  C   UNL     1      33.682 -14.648 -20.824  0.00  0.00    +0.208 C 
BRANCH  27  28
ATOM     28  C   UNL     1      33.102 -13.236 -20.768  0.00  0.00    +0.044 C 
ATOM     29  C   UNL     1      32.281 -12.936 -22.029  0.00  0.00    +0.004 C 
ATOM     30  C   UNL     1      32.251 -13.049 -19.505  0.00  0.00    +0.004 C 
ATOM     31  C   UNL     1      31.647 -11.548 -21.973  0.00  0.00    +0.000 C 
ATOM     32  C   UNL     1      31.618 -11.661 -19.453  0.00  0.00    +0.000 C 
ATOM     33  C   UNL     1      30.809 -11.363 -20.712  0.00  0.00    +0.000 C 
ENDBRANCH  27  28
ENDBRANCH  26  27
ENDBRANCH   6  26
TORSDOF 6
ENDMDL
MODEL 8
REMARK VINA RESULT:     -10.5      1.970      4.991
REMARK  Name = 447655
REMARK  6 active torsions:
REMARK  status: ('A' for Active; 'I' for Inactive)
REMARK    1  A    between atoms: N_4  and  C_14
REMARK    2  A    between atoms: C_6  and  O_26
REMARK    3  A    between atoms: C_15  and  S_20
REMARK    4  A    between atoms: S_20  and  N_23
REMARK    5  A    between atoms: O_26  and  C_27
REMARK    6  A    between atoms: C_27  and  C_28
REMARK                            x       y       z     vdW  Elec       q    Type
REMARK                         _______ _______ _______ _____ _____    ______ ____
ROOT
ATOM      1  N   UNL     1      35.101 -22.904 -17.288  0.00  0.00    -0.293 NA
ATOM      2  N   UNL     1      33.029 -21.716 -20.084  0.00  0.00    -0.266 NA
ATOM      3  N   UNL     1      36.263 -21.408 -18.824  0.00  0.00    -0.316 NA
ATOM      4  N   UNL     1      37.343 -22.313 -16.957  0.00  0.00    -0.238 N 
ATOM      5  N   UNL     1      34.884 -20.627 -20.668  0.00  0.00    -0.296 N 
ATOM      6  C   UNL     1      33.959 -22.822 -18.005  0.00  0.00    +0.288 C 
ATOM      7  C   UNL     1      33.959 -22.034 -19.137  0.00  0.00    +0.215 C 
ATOM      8  C   UNL     1      35.103 -21.347 -19.521  0.00  0.00    +0.196 C 
ATOM      9  C   UNL     1      36.168 -22.200 -17.736  0.00  0.00    +0.207 C 
ATOM     10  C   UNL     1      33.629 -20.871 -20.981  0.00  0.00    +0.164 C 
ATOM     11  H   UNL     1      32.099 -22.033 -20.117  0.00  0.00    +0.126 HD
ATOM     12  H   UNL     1      38.101 -21.790 -17.306  0.00  0.00    +0.166 HD
ATOM     13  H   UNL     1      35.525 -20.056 -21.152  0.00  0.00    +0.150 HD
ENDROOT
BRANCH   4  14
ATOM     14  C   UNL     1      37.639 -23.024 -15.780  0.00  0.00    +0.060 C 
ATOM     15  C   UNL     1      38.715 -24.884 -14.669  0.00  0.00    +0.123 C 
ATOM     16  C   UNL     1      38.422 -24.179 -15.836  0.00  0.00    +0.035 C 
ATOM     17  C   UNL     1      37.152 -22.575 -14.549  0.00  0.00    +0.015 C 
ATOM     18  C   UNL     1      38.228 -24.434 -13.441  0.00  0.00    +0.020 C 
ATOM     19  C   UNL     1      37.446 -23.280 -13.382  0.00  0.00    +0.003 C 
BRANCH  15  20
ATOM     20  S   UNL     1      39.694 -26.328 -14.742  0.00  0.00    +0.057 S 
ATOM     21  O   UNL     1      40.602 -26.325 -13.604  0.00  0.00    -0.153 OA
ATOM     22  O   UNL     1      38.817 -27.469 -14.965  0.00  0.00    -0.153 OA
BRANCH  20  23
ATOM     23  N   UNL     1      40.593 -26.041 -16.166  0.00  0.00    -0.203 NA
ATOM     24  H   UNL     1      40.415 -25.092 -16.494  0.00  0.00    +0.144 HD
ATOM     25  H   UNL     1      40.311 -26.708 -16.885  0.00  0.00    +0.144 HD
ENDBRANCH  20  23
ENDBRANCH  15  20
ENDBRANCH   4  14
BRANCH   6  26
ATOM     26  O   UNL     1      32.858 -23.524 -17.578  0.00  0.00    -0.453 OA
BRANCH  26  27
ATOM     27  C   UNL     1      32.735 -23.743 -16.186  0.00  0.00    +0.208 C 
BRANCH  27  28
ATOM     28  C   UNL     1      31.260 -23.623 -15.805  0.00  0.00    +0.044 C 
ATOM     29  C   UNL     1      30.504 -22.765 -16.829  0.00  0.00    +0.004 C 
ATOM     30  C   UNL     1      30.619 -25.011 -15.676  0.00  0.00    +0.004 C 
ATOM     31  C   UNL     1      29.017 -22.674 -16.498  0.00  0.00    +0.000 C 
ATOM     32  C   UNL     1      29.131 -24.915 -15.348  0.00  0.00    +0.000 C 
ATOM     33  C   UNL     1      28.384 -24.055 -16.362  0.00  0.00    +0.000 C 
ENDBRANCH  27  28
ENDBRANCH  26  27
ENDBRANCH   6  26
TORSDOF 6
ENDMDL
MODEL 9
REMARK VINA RESULT:     -10.4      3.443      6.886
REMARK  Name = 447655
REMARK  6 active torsions:
REMARK  status: ('A' for Active; 'I' for Inactive)
REMARK    1  A    between atoms: N_4  and  C_14
REMARK    2  A    between atoms: C_6  and  O_26
REMARK    3  A    between atoms: C_15  and  S_20
REMARK    4  A    between atoms: S_20  and  N_23
REMARK    5  A    between atoms: O_26  and  C_27
REMARK    6  A    between atoms: C_27  and  C_28
REMARK                            x       y       z     vdW  Elec       q    Type
REMARK                         _______ _______ _______ _____ _____    ______ ____
ROOT
ATOM      1  N   UNL     1      33.979 -22.887 -17.038  0.00  0.00    -0.293 NA
ATOM      2  N   UNL     1      31.846 -24.548 -14.545  0.00  0.00    -0.266 NA
ATOM      3  N   UNL     1      31.634 -23.058 -17.687  0.00  0.00    -0.316 NA
ATOM      4  N   UNL     1      33.213 -22.046 -19.085  0.00  0.00    -0.238 N 
ATOM      5  N   UNL     1      30.233 -24.157 -16.032  0.00  0.00    -0.296 N 
ATOM      6  C   UNL     1      33.743 -23.509 -15.862  0.00  0.00    +0.288 C 
ATOM      7  C   UNL     1      32.452 -23.911 -15.590  0.00  0.00    +0.215 C 
ATOM      8  C   UNL     1      31.430 -23.679 -16.501  0.00  0.00    +0.196 C 
ATOM      9  C   UNL     1      32.924 -22.701 -17.866  0.00  0.00    +0.207 C 
ATOM     10  C   UNL     1      30.517 -24.673 -14.856  0.00  0.00    +0.164 C 
ATOM     11  H   UNL     1      32.282 -24.860 -13.720  0.00  0.00    +0.126 HD
ATOM     12  H   UNL     1      32.428 -21.924 -19.667  0.00  0.00    +0.166 HD
ATOM     13  H   UNL     1      29.355 -24.123 -16.478  0.00  0.00    +0.150 HD
ENDROOT
BRANCH   4  14
ATOM     14  C   UNL     1      34.405 -21.533 -19.629  0.00  0.00    +0.060 C 
ATOM     15  C   UNL     1      35.544 -19.973 -21.085  0.00  0.00    +0.123 C 
ATOM     16  C   UNL     1      34.362 -20.482 -20.547  0.00  0.00    +0.035 C 
ATOM     17  C   UNL     1      35.637 -22.072 -19.249  0.00  0.00    +0.015 C 
ATOM     18  C   UNL     1      36.773 -20.513 -20.704  0.00  0.00    +0.020 C 
ATOM     19  C   UNL     1      36.819 -21.563 -19.787  0.00  0.00    +0.003 C 
BRANCH  15  20
ATOM     20  S   UNL     1      35.488 -18.659 -22.233  0.00  0.00    +0.057 S 
ATOM     21  O   UNL     1      34.594 -19.036 -23.319  0.00  0.00    -0.153 OA
ATOM     22  O   UNL     1      35.257 -17.419 -21.504  0.00  0.00    -0.153 OA
BRANCH  20  23
ATOM     23  N   UNL     1      37.095 -18.663 -22.813  0.00  0.00    -0.203 NA
ATOM     24  H   UNL     1      37.101 -18.950 -23.792  0.00  0.00    +0.144 HD
ATOM     25  H   UNL     1      37.652 -19.316 -22.264  0.00  0.00    +0.144 HD
ENDBRANCH  20  23
ENDBRANCH  15  20
ENDBRANCH   4  14
BRANCH   6  26
ATOM     26  O   UNL     1      34.791 -23.713 -14.998  0.00  0.00    -0.453 OA
BRANCH  26  27
ATOM     27  C   UNL     1      36.067 -23.270 -15.420  0.00  0.00    +0.208 C 
BRANCH  27  28
ATOM     28  C   UNL     1      37.128 -24.149 -14.758  0.00  0.00    +0.044 C 
ATOM     29  C   UNL     1      37.286 -23.784 -13.276  0.00  0.00    +0.004 C 
ATOM     30  C   UNL     1      36.779 -25.634 -14.921  0.00  0.00    +0.004 C 
ATOM     31  C   UNL     1      38.303 -24.684 -12.579  0.00  0.00    +0.000 C 
ATOM     32  C   UNL     1      37.797 -26.531 -14.221  0.00  0.00    +0.000 C 
ATOM     33  C   UNL     1      37.958 -26.160 -12.751  0.00  0.00    +0.000 C 
ENDBRANCH  27  28
ENDBRANCH  26  27
ENDBRANCH   6  26
TORSDOF 6
ENDMDL
