MODEL 1
REMARK VINA RESULT:     -11.5      0.000      0.000
REMARK  Name = 10224181
REMARK  7 active torsions:
REMARK  status: ('A' for Active; 'I' for Inactive)
REMARK    1  A    between atoms: N_3  and  C_23
REMARK    2  A    between atoms: C_12  and  C_14
REMARK    3  A    between atoms: C_15  and  C_16
REMARK    4  A    between atoms: C_16  and  C_17
REMARK    5  A    between atoms: C_23  and  C_24
REMARK    6  A    between atoms: C_29  and  C_31
REMARK    7  A    between atoms: C_31  and  O_32
REMARK                            x       y       z     vdW  Elec       q    Type
REMARK                         _______ _______ _______ _____ _____    ______ ____
ROOT
ATOM      1  O   UNL     1      35.555 -16.318 -20.492  0.00  0.00    -0.267 OA
ATOM      2  O   UNL     1      36.293 -18.817 -24.341  0.00  0.00    -0.246 OA
ATOM      3  N   UNL     1      35.943 -17.593 -22.408  0.00  0.00    -0.244 N 
ATOM      4  N   UNL     1      35.011 -16.894 -24.492  0.00  0.00    -0.279 N 
ATOM      5  C   UNL     1      34.424 -15.761 -23.854  0.00  0.00    +0.069 A 
ATOM      6  C   UNL     1      34.607 -15.560 -22.485  0.00  0.00    +0.073 A 
ATOM      7  C   UNL     1      35.406 -16.512 -21.696  0.00  0.00    +0.266 A 
ATOM      8  C   UNL     1      35.783 -17.835 -23.791  0.00  0.00    +0.334 A 
ATOM      9  C   UNL     1      34.038 -14.450 -21.839  0.00  0.00    +0.014 C 
ATOM     10  C   UNL     1      33.654 -14.823 -24.565  0.00  0.00    +0.018 C 
ATOM     11  C   UNL     1      34.803 -17.081 -25.928  0.00  0.00    +0.135 C 
ATOM     12  C   UNL     1      33.279 -13.533 -22.559  0.00  0.00    +0.042 C 
ATOM     13  C   UNL     1      33.087 -13.719 -23.922  0.00  0.00    +0.010 C 
ENDROOT
BRANCH  12  14
ATOM     14  C   UNL     1      32.700 -12.406 -21.900  0.00  0.00    -0.064 C 
ATOM     15  C   UNL     1      32.214 -11.452 -21.346  0.00  0.00    -0.082 C 
BRANCH  15  16
ATOM     16  C   UNL     1      31.625 -10.289 -20.674  0.00  0.00    +0.103 C 
BRANCH  16  17
ATOM     17  C   UNL     1      32.041  -8.993 -21.322  0.00  0.00    -0.009 C 
ATOM     18  C   UNL     1      31.912  -8.844 -22.695  0.00  0.00    -0.003 C 
ATOM     19  C   UNL     1      32.545  -7.968 -20.535  0.00  0.00    -0.003 C 
ATOM     20  C   UNL     1      32.295  -7.645 -23.294  0.00  0.00    -0.000 C 
ATOM     21  C   UNL     1      32.929  -6.769 -21.134  0.00  0.00    -0.000 C 
ATOM     22  C   UNL     1      32.805  -6.607 -22.513  0.00  0.00    -0.000 C 
ENDBRANCH  16  17
ENDBRANCH  15  16
ENDBRANCH  12  14
BRANCH   3  23
ATOM     23  C   UNL     1      36.741 -18.555 -21.653  0.00  0.00    +0.140 C 
BRANCH  23  24
ATOM     24  C   UNL     1      35.886 -19.622 -21.024  0.00  0.00    +0.001 C 
ATOM     25  C   UNL     1      36.479 -20.592 -20.227  0.00  0.00    -0.002 C 
ATOM     26  C   UNL     1      34.516 -19.622 -21.249  0.00  0.00    -0.002 C 
ATOM     27  C   UNL     1      35.686 -21.581 -19.644  0.00  0.00    +0.006 C 
ATOM     28  C   UNL     1      33.724 -20.611 -20.666  0.00  0.00    +0.006 C 
ATOM     29  C   UNL     1      34.309 -21.590 -19.863  0.00  0.00    +0.075 C 
BRANCH  29  31
ATOM     30  O   UNL     1      32.474 -22.418 -18.571  0.00  0.00    -0.245 OA
ATOM     31  C   UNL     1      33.482 -22.621 -19.255  0.00  0.00    +0.338 C 
BRANCH  31  32
ATOM     32  O   UNL     1      33.939 -23.877 -19.516  0.00  0.00    -0.477 OA
ATOM     33  H   UNL     1      34.014 -24.501 -18.822  0.00  0.00    +0.295 HD
ENDBRANCH  31  32
ENDBRANCH  29  31
ENDBRANCH  23  24
ENDBRANCH   3  23
TORSDOF 7
ENDMDL
MODEL 2
REMARK VINA RESULT:     -11.3      5.393      9.436
REMARK  Name = 10224181
REMARK  7 active torsions:
REMARK  status: ('A' for Active; 'I' for Inactive)
REMARK    1  A    between atoms: N_3  and  C_23
REMARK    2  A    between atoms: C_12  and  C_14
REMARK    3  A    between atoms: C_15  and  C_16
REMARK    4  A    between atoms: C_16  and  C_17
REMARK    5  A    between atoms: C_23  and  C_24
REMARK    6  A    between atoms: C_29  and  C_31
REMARK    7  A    between atoms: C_31  and  O_32
REMARK                            x       y       z     vdW  Elec       q    Type
REMARK                         _______ _______ _______ _____ _____    ______ ____
ROOT
ATOM      1  O   UNL     1      32.449 -23.737 -17.635  0.00  0.00    -0.267 OA
ATOM      2  O   UNL     1      34.771 -24.605 -13.703  0.00  0.00    -0.246 OA
ATOM      3  N   UNL     1      33.591 -24.189 -15.651  0.00  0.00    -0.244 N 
ATOM      4  N   UNL     1      35.804 -23.345 -15.350  0.00  0.00    -0.279 N 
ATOM      5  C   UNL     1      35.753 -22.740 -16.641  0.00  0.00    +0.069 A 
ATOM      6  C   UNL     1      34.607 -22.872 -17.427  0.00  0.00    +0.073 A 
ATOM      7  C   UNL     1      33.449 -23.632 -16.928  0.00  0.00    +0.266 A 
ATOM      8  C   UNL     1      34.730 -24.080 -14.822  0.00  0.00    +0.334 A 
ATOM      9  C   UNL     1      34.537 -22.284 -18.700  0.00  0.00    +0.014 C 
ATOM     10  C   UNL     1      36.832 -22.004 -17.162  0.00  0.00    +0.018 C 
ATOM     11  C   UNL     1      37.017 -23.192 -14.548  0.00  0.00    +0.135 C 
ATOM     12  C   UNL     1      35.616 -21.560 -19.198  0.00  0.00    +0.042 C 
ATOM     13  C   UNL     1      36.763 -21.419 -18.428  0.00  0.00    +0.010 C 
ENDROOT
BRANCH  12  14
ATOM     14  C   UNL     1      35.543 -20.962 -20.494  0.00  0.00    -0.064 C 
ATOM     15  C   UNL     1      35.478 -20.461 -21.588  0.00  0.00    -0.082 C 
BRANCH  15  16
ATOM     16  C   UNL     1      35.398 -19.854 -22.921  0.00  0.00    +0.103 C 
BRANCH  16  17
ATOM     17  C   UNL     1      35.308 -18.350 -22.850  0.00  0.00    -0.009 C 
ATOM     18  C   UNL     1      35.248 -17.728 -21.612  0.00  0.00    -0.003 C 
ATOM     19  C   UNL     1      35.289 -17.613 -24.025  0.00  0.00    -0.003 C 
ATOM     20  C   UNL     1      35.167 -16.337 -21.547  0.00  0.00    -0.000 C 
ATOM     21  C   UNL     1      35.206 -16.222 -23.960  0.00  0.00    -0.000 C 
ATOM     22  C   UNL     1      35.145 -15.584 -22.722  0.00  0.00    -0.000 C 
ENDBRANCH  16  17
ENDBRANCH  15  16
ENDBRANCH  12  14
BRANCH   3  23
ATOM     23  C   UNL     1      32.458 -24.948 -15.127  0.00  0.00    +0.140 C 
BRANCH  23  24
ATOM     24  C   UNL     1      31.145 -24.279 -15.430  0.00  0.00    +0.001 C 
ATOM     25  C   UNL     1      30.177 -24.967 -16.149  0.00  0.00    -0.002 C 
ATOM     26  C   UNL     1      30.920 -22.983 -14.987  0.00  0.00    -0.002 C 
ATOM     27  C   UNL     1      28.960 -24.347 -16.430  0.00  0.00    +0.006 C 
ATOM     28  C   UNL     1      29.702 -22.363 -15.268  0.00  0.00    +0.006 C 
ATOM     29  C   UNL     1      28.722 -23.045 -15.990  0.00  0.00    +0.075 C 
BRANCH  29  31
ATOM     30  O   UNL     1      26.452 -22.427 -15.558  0.00  0.00    -0.245 OA
ATOM     31  C   UNL     1      27.452 -22.398 -16.282  0.00  0.00    +0.338 C 
BRANCH  31  32
ATOM     32  O   UNL     1      27.468 -21.734 -17.470  0.00  0.00    -0.477 OA
ATOM     33  H   UNL     1      27.365 -22.208 -18.272  0.00  0.00    +0.295 HD
ENDBRANCH  31  32
ENDBRANCH  29  31
ENDBRANCH  23  24
ENDBRANCH   3  23
TORSDOF 7
ENDMDL
MODEL 3
REMARK VINA RESULT:     -11.3      6.212     10.036
REMARK  Name = 10224181
REMARK  7 active torsions:
REMARK  status: ('A' for Active; 'I' for Inactive)
REMARK    1  A    between atoms: N_3  and  C_23
REMARK    2  A    between atoms: C_12  and  C_14
REMARK    3  A    between atoms: C_15  and  C_16
REMARK    4  A    between atoms: C_16  and  C_17
REMARK    5  A    between atoms: C_23  and  C_24
REMARK    6  A    between atoms: C_29  and  C_31
REMARK    7  A    between atoms: C_31  and  O_32
REMARK                            x       y       z     vdW  Elec       q    Type
REMARK                         _______ _______ _______ _____ _____    ______ ____
ROOT
ATOM      1  O   UNL     1      36.831 -22.835 -15.630  0.00  0.00    -0.267 OA
ATOM      2  O   UNL     1      32.941 -24.880 -14.117  0.00  0.00    -0.246 OA
ATOM      3  N   UNL     1      34.892 -23.870 -14.845  0.00  0.00    -0.244 N 
ATOM      4  N   UNL     1      32.912 -23.821 -16.177  0.00  0.00    -0.279 N 
ATOM      5  C   UNL     1      33.601 -23.078 -17.181  0.00  0.00    +0.069 A 
ATOM      6  C   UNL     1      34.942 -22.738 -16.998  0.00  0.00    +0.073 A 
ATOM      7  C   UNL     1      35.650 -23.144 -15.773  0.00  0.00    +0.266 A 
ATOM      8  C   UNL     1      33.535 -24.236 -14.989  0.00  0.00    +0.334 A 
ATOM      9  C   UNL     1      35.639 -22.008 -17.975  0.00  0.00    +0.014 C 
ATOM     10  C   UNL     1      32.970 -22.668 -18.369  0.00  0.00    +0.018 C 
ATOM     11  C   UNL     1      31.507 -24.163 -16.394  0.00  0.00    +0.135 C 
ATOM     12  C   UNL     1      34.996 -21.610 -19.144  0.00  0.00    +0.042 C 
ATOM     13  C   UNL     1      33.662 -21.941 -19.341  0.00  0.00    +0.010 C 
ENDROOT
BRANCH  12  14
ATOM     14  C   UNL     1      35.706 -20.868 -20.136  0.00  0.00    -0.064 C 
ATOM     15  C   UNL     1      36.308 -20.240 -20.971  0.00  0.00    -0.082 C 
BRANCH  15  16
ATOM     16  C   UNL     1      37.042 -19.474 -21.984  0.00  0.00    +0.103 C 
BRANCH  16  17
ATOM     17  C   UNL     1      36.121 -18.877 -23.016  0.00  0.00    -0.009 C 
ATOM     18  C   UNL     1      36.076 -17.500 -23.176  0.00  0.00    -0.003 C 
ATOM     19  C   UNL     1      35.332 -19.714 -23.792  0.00  0.00    -0.003 C 
ATOM     20  C   UNL     1      35.224 -16.948 -24.132  0.00  0.00    -0.000 C 
ATOM     21  C   UNL     1      34.480 -19.162 -24.748  0.00  0.00    -0.000 C 
ATOM     22  C   UNL     1      34.425 -17.779 -24.918  0.00  0.00    -0.000 C 
ENDBRANCH  16  17
ENDBRANCH  15  16
ENDBRANCH  12  14
BRANCH   3  23
ATOM     23  C   UNL     1      35.566 -24.288 -13.618  0.00  0.00    +0.140 C 
BRANCH  23  24
ATOM     24  C   UNL     1      36.924 -24.874 -13.896  0.00  0.00    +0.001 C 
ATOM     25  C   UNL     1      37.051 -25.891 -14.833  0.00  0.00    -0.002 C 
ATOM     26  C   UNL     1      38.031 -24.390 -13.213  0.00  0.00    -0.002 C 
ATOM     27  C   UNL     1      38.309 -26.434 -15.091  0.00  0.00    +0.006 C 
ATOM     28  C   UNL     1      39.290 -24.934 -13.471  0.00  0.00    +0.006 C 
ATOM     29  C   UNL     1      39.428 -25.956 -14.410  0.00  0.00    +0.075 C 
BRANCH  29  31
ATOM     30  O   UNL     1      41.469 -27.070 -13.844  0.00  0.00    -0.245 OA
ATOM     31  C   UNL     1      40.741 -26.522 -14.679  0.00  0.00    +0.338 C 
BRANCH  31  32
ATOM     32  O   UNL     1      41.109 -26.388 -15.983  0.00  0.00    -0.477 OA
ATOM     33  H   UNL     1      41.246 -27.149 -16.511  0.00  0.00    +0.295 HD
ENDBRANCH  31  32
ENDBRANCH  29  31
ENDBRANCH  23  24
ENDBRANCH   3  23
TORSDOF 7
ENDMDL
MODEL 4
REMARK VINA RESULT:     -10.5      7.277     10.919
REMARK  Name = 10224181
REMARK  7 active torsions:
REMARK  status: ('A' for Active; 'I' for Inactive)
REMARK    1  A    between atoms: N_3  and  C_23
REMARK    2  A    between atoms: C_12  and  C_14
REMARK    3  A    between atoms: C_15  and  C_16
REMARK    4  A    between atoms: C_16  and  C_17
REMARK    5  A    between atoms: C_23  and  C_24
REMARK    6  A    between atoms: C_29  and  C_31
REMARK    7  A    between atoms: C_31  and  O_32
REMARK                            x       y       z     vdW  Elec       q    Type
REMARK                         _______ _______ _______ _____ _____    ______ ____
ROOT
ATOM      1  O   UNL     1      36.251 -22.605 -15.136  0.00  0.00    -0.267 OA
ATOM      2  O   UNL     1      33.758 -25.230 -12.222  0.00  0.00    -0.246 OA
ATOM      3  N   UNL     1      35.023 -23.923 -13.653  0.00  0.00    -0.244 N 
ATOM      4  N   UNL     1      32.800 -24.579 -14.229  0.00  0.00    -0.279 N 
ATOM      5  C   UNL     1      32.909 -23.877 -15.465  0.00  0.00    +0.069 A 
ATOM      6  C   UNL     1      34.088 -23.199 -15.780  0.00  0.00    +0.073 A 
ATOM      7  C   UNL     1      35.222 -23.208 -14.841  0.00  0.00    +0.266 A 
ATOM      8  C   UNL     1      33.848 -24.622 -13.295  0.00  0.00    +0.334 A 
ATOM      9  C   UNL     1      34.215 -22.502 -16.993  0.00  0.00    +0.014 C 
ATOM     10  C   UNL     1      31.855 -23.839 -16.396  0.00  0.00    +0.018 C 
ATOM     11  C   UNL     1      31.553 -25.280 -13.923  0.00  0.00    +0.135 C 
ATOM     12  C   UNL     1      33.160 -22.477 -17.901  0.00  0.00    +0.042 C 
ATOM     13  C   UNL     1      31.981 -23.146 -17.602  0.00  0.00    +0.010 C 
ENDROOT
BRANCH  12  14
ATOM     14  C   UNL     1      33.292 -21.768 -19.134  0.00  0.00    -0.064 C 
ATOM     15  C   UNL     1      33.402 -21.166 -20.172  0.00  0.00    -0.082 C 
BRANCH  15  16
ATOM     16  C   UNL     1      33.535 -20.430 -21.434  0.00  0.00    +0.103 C 
BRANCH  16  17
ATOM     17  C   UNL     1      34.922 -19.870 -21.617  0.00  0.00    -0.009 C 
ATOM     18  C   UNL     1      35.912 -20.185 -20.697  0.00  0.00    -0.003 C 
ATOM     19  C   UNL     1      35.189 -19.049 -22.703  0.00  0.00    -0.003 C 
ATOM     20  C   UNL     1      37.195 -19.668 -20.866  0.00  0.00    -0.000 C 
ATOM     21  C   UNL     1      36.472 -18.531 -22.872  0.00  0.00    -0.000 C 
ATOM     22  C   UNL     1      37.476 -18.840 -21.954  0.00  0.00    -0.000 C 
ENDBRANCH  16  17
ENDBRANCH  15  16
ENDBRANCH  12  14
BRANCH   3  23
ATOM     23  C   UNL     1      36.130 -23.951 -12.701  0.00  0.00    +0.140 C 
BRANCH  23  24
ATOM     24  C   UNL     1      37.353 -24.608 -13.281  0.00  0.00    +0.001 C 
ATOM     25  C   UNL     1      38.609 -24.097 -12.983  0.00  0.00    -0.002 C 
ATOM     26  C   UNL     1      37.209 -25.716 -14.104  0.00  0.00    -0.002 C 
ATOM     27  C   UNL     1      39.743 -24.706 -13.520  0.00  0.00    +0.006 C 
ATOM     28  C   UNL     1      38.343 -26.325 -14.641  0.00  0.00    +0.006 C 
ATOM     29  C   UNL     1      39.610 -25.820 -14.349  0.00  0.00    +0.075 C 
BRANCH  29  31
ATOM     30  O   UNL     1      41.626 -27.106 -14.270  0.00  0.00    -0.245 OA
ATOM     31  C   UNL     1      40.793 -26.456 -14.909  0.00  0.00    +0.338 C 
BRANCH  31  32
ATOM     32  O   UNL     1      40.903 -26.260 -16.252  0.00  0.00    -0.477 OA
ATOM     33  H   UNL     1      41.748 -26.149 -16.641  0.00  0.00    +0.295 HD
ENDBRANCH  31  32
ENDBRANCH  29  31
ENDBRANCH  23  24
ENDBRANCH   3  23
TORSDOF 7
ENDMDL
MODEL 5
REMARK VINA RESULT:     -10.2      1.073      1.789
REMARK  Name = 10224181
REMARK  7 active torsions:
REMARK  status: ('A' for Active; 'I' for Inactive)
REMARK    1  A    between atoms: N_3  and  C_23
REMARK    2  A    between atoms: C_12  and  C_14
REMARK    3  A    between atoms: C_15  and  C_16
REMARK    4  A    between atoms: C_16  and  C_17
REMARK    5  A    between atoms: C_23  and  C_24
REMARK    6  A    between atoms: C_29  and  C_31
REMARK    7  A    between atoms: C_31  and  O_32
REMARK                            x       y       z     vdW  Elec       q    Type
REMARK                         _______ _______ _______ _____ _____    ______ ____
ROOT
ATOM      1  O   UNL     1      36.051 -16.176 -21.482  0.00  0.00    -0.267 OA
ATOM      2  O   UNL     1      35.649 -20.049 -24.020  0.00  0.00    -0.246 OA
ATOM      3  N   UNL     1      35.865 -18.136 -22.735  0.00  0.00    -0.244 N 
ATOM      4  N   UNL     1      34.687 -18.096 -24.812  0.00  0.00    -0.279 N 
ATOM      5  C   UNL     1      34.419 -16.706 -24.637  0.00  0.00    +0.069 A 
ATOM      6  C   UNL     1      34.883 -16.044 -23.499  0.00  0.00    +0.073 A 
ATOM      7  C   UNL     1      35.651 -16.776 -22.478  0.00  0.00    +0.266 A 
ATOM      8  C   UNL     1      35.414 -18.844 -23.872  0.00  0.00    +0.334 A 
ATOM      9  C   UNL     1      34.630 -14.676 -23.309  0.00  0.00    +0.014 C 
ATOM     10  C   UNL     1      33.691 -15.963 -25.584  0.00  0.00    +0.018 C 
ATOM     11  C   UNL     1      34.188 -18.765 -26.013  0.00  0.00    +0.135 C 
ATOM     12  C   UNL     1      33.907 -13.958 -24.258  0.00  0.00    +0.042 C 
ATOM     13  C   UNL     1      33.438 -14.602 -25.396  0.00  0.00    +0.010 C 
ENDROOT
BRANCH  12  14
ATOM     14  C   UNL     1      33.651 -12.567 -24.063  0.00  0.00    -0.064 C 
ATOM     15  C   UNL     1      33.433 -11.393 -23.902  0.00  0.00    -0.082 C 
BRANCH  15  16
ATOM     16  C   UNL     1      33.168  -9.962 -23.710  0.00  0.00    +0.103 C 
BRANCH  16  17
ATOM     17  C   UNL     1      32.684  -9.662 -22.314  0.00  0.00    -0.009 C 
ATOM     18  C   UNL     1      32.946  -8.420 -21.754  0.00  0.00    -0.003 C 
ATOM     19  C   UNL     1      31.983 -10.631 -21.612  0.00  0.00    -0.003 C 
ATOM     20  C   UNL     1      32.497  -8.142 -20.463  0.00  0.00    -0.000 C 
ATOM     21  C   UNL     1      31.535 -10.354 -20.321  0.00  0.00    -0.000 C 
ATOM     22  C   UNL     1      31.791  -9.109 -19.747  0.00  0.00    -0.000 C 
ENDBRANCH  16  17
ENDBRANCH  15  16
ENDBRANCH  12  14
BRANCH   3  23
ATOM     23  C   UNL     1      36.624 -18.889 -21.740  0.00  0.00    +0.140 C 
BRANCH  23  24
ATOM     24  C   UNL     1      35.760 -19.880 -21.007  0.00  0.00    +0.001 C 
ATOM     25  C   UNL     1      36.357 -20.878 -20.249  0.00  0.00    -0.002 C 
ATOM     26  C   UNL     1      34.378 -19.781 -21.099  0.00  0.00    -0.002 C 
ATOM     27  C   UNL     1      35.556 -21.796 -19.569  0.00  0.00    +0.006 C 
ATOM     28  C   UNL     1      33.578 -20.699 -20.419  0.00  0.00    +0.006 C 
ATOM     29  C   UNL     1      34.167 -21.707 -19.655  0.00  0.00    +0.075 C 
BRANCH  29  31
ATOM     30  O   UNL     1      32.286 -22.394 -18.346  0.00  0.00    -0.245 OA
ATOM     31  C   UNL     1      33.331 -22.664 -18.946  0.00  0.00    +0.338 C 
BRANCH  31  32
ATOM     32  O   UNL     1      33.826 -23.931 -19.005  0.00  0.00    -0.477 OA
ATOM     33  H   UNL     1      34.752 -24.070 -19.036  0.00  0.00    +0.295 HD
ENDBRANCH  31  32
ENDBRANCH  29  31
ENDBRANCH  23  24
ENDBRANCH   3  23
TORSDOF 7
ENDMDL
MODEL 6
REMARK VINA RESULT:      -9.8      7.089     10.822
REMARK  Name = 10224181
REMARK  7 active torsions:
REMARK  status: ('A' for Active; 'I' for Inactive)
REMARK    1  A    between atoms: N_3  and  C_23
REMARK    2  A    between atoms: C_12  and  C_14
REMARK    3  A    between atoms: C_15  and  C_16
REMARK    4  A    between atoms: C_16  and  C_17
REMARK    5  A    between atoms: C_23  and  C_24
REMARK    6  A    between atoms: C_29  and  C_31
REMARK    7  A    between atoms: C_31  and  O_32
REMARK                            x       y       z     vdW  Elec       q    Type
REMARK                         _______ _______ _______ _____ _____    ______ ____
ROOT
ATOM      1  O   UNL     1      32.012 -24.098 -17.604  0.00  0.00    -0.267 OA
ATOM      2  O   UNL     1      32.046 -25.447 -13.156  0.00  0.00    -0.246 OA
ATOM      3  N   UNL     1      32.002 -24.789 -15.375  0.00  0.00    -0.244 N 
ATOM      4  N   UNL     1      33.851 -24.242 -13.966  0.00  0.00    -0.279 N 
ATOM      5  C   UNL     1      34.485 -23.571 -15.053  0.00  0.00    +0.069 A 
ATOM      6  C   UNL     1      33.860 -23.519 -16.300  0.00  0.00    +0.073 A 
ATOM      7  C   UNL     1      32.546 -24.154 -16.498  0.00  0.00    +0.266 A 
ATOM      8  C   UNL     1      32.599 -24.865 -14.096  0.00  0.00    +0.334 A 
ATOM      9  C   UNL     1      34.468 -22.863 -17.383  0.00  0.00    +0.014 C 
ATOM     10  C   UNL     1      35.739 -22.949 -14.915  0.00  0.00    +0.018 C 
ATOM     11  C   UNL     1      34.528 -24.282 -12.671  0.00  0.00    +0.135 C 
ATOM     12  C   UNL     1      35.709 -22.253 -17.226  0.00  0.00    +0.042 C 
ATOM     13  C   UNL     1      36.344 -22.296 -15.991  0.00  0.00    +0.010 C 
ENDROOT
BRANCH  12  14
ATOM     14  C   UNL     1      36.326 -21.586 -18.328  0.00  0.00    -0.064 C 
ATOM     15  C   UNL     1      36.849 -21.023 -19.256  0.00  0.00    -0.082 C 
BRANCH  15  16
ATOM     16  C   UNL     1      37.489 -20.336 -20.384  0.00  0.00    +0.103 C 
BRANCH  16  17
ATOM     17  C   UNL     1      36.479 -19.839 -21.387  0.00  0.00    -0.009 C 
ATOM     18  C   UNL     1      36.896 -19.018 -22.425  0.00  0.00    -0.003 C 
ATOM     19  C   UNL     1      35.149 -20.210 -21.257  0.00  0.00    -0.003 C 
ATOM     20  C   UNL     1      35.962 -18.560 -23.353  0.00  0.00    -0.000 C 
ATOM     21  C   UNL     1      34.215 -19.751 -22.184  0.00  0.00    -0.000 C 
ATOM     22  C   UNL     1      34.621 -18.926 -23.233  0.00  0.00    -0.000 C 
ENDBRANCH  16  17
ENDBRANCH  15  16
ENDBRANCH  12  14
BRANCH   3  23
ATOM     23  C   UNL     1      30.699 -25.428 -15.539  0.00  0.00    +0.140 C 
BRANCH  23  24
ATOM     24  C   UNL     1      29.640 -24.444 -15.957  0.00  0.00    +0.001 C 
ATOM     25  C   UNL     1      28.919 -24.669 -17.122  0.00  0.00    -0.002 C 
ATOM     26  C   UNL     1      29.397 -23.326 -15.171  0.00  0.00    -0.002 C 
ATOM     27  C   UNL     1      27.937 -23.758 -17.509  0.00  0.00    +0.006 C 
ATOM     28  C   UNL     1      28.415 -22.414 -15.558  0.00  0.00    +0.006 C 
ATOM     29  C   UNL     1      27.685 -22.630 -16.728  0.00  0.00    +0.075 C 
BRANCH  29  31
ATOM     30  O   UNL     1      26.737 -20.911 -18.096  0.00  0.00    -0.245 OA
ATOM     31  C   UNL     1      26.661 -21.679 -17.131  0.00  0.00    +0.338 C 
BRANCH  31  32
ATOM     32  O   UNL     1      25.570 -21.713 -16.318  0.00  0.00    -0.477 OA
ATOM     33  H   UNL     1      25.620 -22.139 -15.485  0.00  0.00    +0.295 HD
ENDBRANCH  31  32
ENDBRANCH  29  31
ENDBRANCH  23  24
ENDBRANCH   3  23
TORSDOF 7
ENDMDL
MODEL 7
REMARK VINA RESULT:      -9.8      5.062      8.600
REMARK  Name = 10224181
REMARK  7 active torsions:
REMARK  status: ('A' for Active; 'I' for Inactive)
REMARK    1  A    between atoms: N_3  and  C_23
REMARK    2  A    between atoms: C_12  and  C_14
REMARK    3  A    between atoms: C_15  and  C_16
REMARK    4  A    between atoms: C_16  and  C_17
REMARK    5  A    between atoms: C_23  and  C_24
REMARK    6  A    between atoms: C_29  and  C_31
REMARK    7  A    between atoms: C_31  and  O_32
REMARK                            x       y       z     vdW  Elec       q    Type
REMARK                         _______ _______ _______ _____ _____    ______ ____
ROOT
ATOM      1  O   UNL     1      38.088 -21.934 -17.963  0.00  0.00    -0.267 OA
ATOM      2  O   UNL     1      35.183 -24.602 -15.504  0.00  0.00    -0.246 OA
ATOM      3  N   UNL     1      36.653 -23.283 -16.711  0.00  0.00    -0.244 N 
ATOM      4  N   UNL     1      34.333 -23.364 -17.268  0.00  0.00    -0.279 N 
ATOM      5  C   UNL     1      34.553 -22.446 -18.336  0.00  0.00    +0.069 A 
ATOM      6  C   UNL     1      35.836 -21.953 -18.578  0.00  0.00    +0.073 A 
ATOM      7  C   UNL     1      36.965 -22.379 -17.735  0.00  0.00    +0.266 A 
ATOM      8  C   UNL     1      35.370 -23.806 -16.431  0.00  0.00    +0.334 A 
ATOM      9  C   UNL     1      36.074 -21.049 -19.626  0.00  0.00    +0.014 C 
ATOM     10  C   UNL     1      33.508 -22.009 -19.170  0.00  0.00    +0.018 C 
ATOM     11  C   UNL     1      32.978 -23.864 -17.035  0.00  0.00    +0.135 C 
ATOM     12  C   UNL     1      35.026 -20.628 -20.440  0.00  0.00    +0.042 C 
ATOM     13  C   UNL     1      33.743 -21.109 -20.212  0.00  0.00    +0.010 C 
ENDROOT
BRANCH  12  14
ATOM     14  C   UNL     1      35.270 -19.708 -21.505  0.00  0.00    -0.064 C 
ATOM     15  C   UNL     1      35.473 -18.929 -22.402  0.00  0.00    -0.082 C 
BRANCH  15  16
ATOM     16  C   UNL     1      35.719 -17.978 -23.492  0.00  0.00    +0.103 C 
BRANCH  16  17
ATOM     17  C   UNL     1      35.294 -16.579 -23.126  0.00  0.00    -0.009 C 
ATOM     18  C   UNL     1      35.173 -16.230 -21.788  0.00  0.00    -0.003 C 
ATOM     19  C   UNL     1      35.032 -15.661 -24.132  0.00  0.00    -0.003 C 
ATOM     20  C   UNL     1      34.781 -14.936 -21.450  0.00  0.00    -0.000 C 
ATOM     21  C   UNL     1      34.639 -14.366 -23.794  0.00  0.00    -0.000 C 
ATOM     22  C   UNL     1      34.513 -14.003 -22.453  0.00  0.00    -0.000 C 
ENDBRANCH  16  17
ENDBRANCH  15  16
ENDBRANCH  12  14
BRANCH   3  23
ATOM     23  C   UNL     1      37.752 -23.725 -15.857  0.00  0.00    +0.140 C 
BRANCH  23  24
ATOM     24  C   UNL     1      37.294 -23.998 -14.449  0.00  0.00    +0.001 C 
ATOM     25  C   UNL     1      37.253 -25.306 -13.986  0.00  0.00    -0.002 C 
ATOM     26  C   UNL     1      36.921 -22.938 -13.634  0.00  0.00    -0.002 C 
ATOM     27  C   UNL     1      36.829 -25.559 -12.681  0.00  0.00    +0.006 C 
ATOM     28  C   UNL     1      36.497 -23.191 -12.330  0.00  0.00    +0.006 C 
ATOM     29  C   UNL     1      36.451 -24.502 -11.853  0.00  0.00    +0.075 C 
BRANCH  29  31
ATOM     30  O   UNL     1      35.180 -25.619 -10.162  0.00  0.00    -0.245 OA
ATOM     31  C   UNL     1      36.009 -24.765 -10.492  0.00  0.00    +0.338 C 
BRANCH  31  32
ATOM     32  O   UNL     1      36.614 -23.954  -9.582  0.00  0.00    -0.477 OA
ATOM     33  H   UNL     1      37.546 -23.973  -9.486  0.00  0.00    +0.295 HD
ENDBRANCH  31  32
ENDBRANCH  29  31
ENDBRANCH  23  24
ENDBRANCH   3  23
TORSDOF 7
ENDMDL
MODEL 8
REMARK VINA RESULT:      -9.7      4.020     11.138
REMARK  Name = 10224181
REMARK  7 active torsions:
REMARK  status: ('A' for Active; 'I' for Inactive)
REMARK    1  A    between atoms: N_3  and  C_23
REMARK    2  A    between atoms: C_12  and  C_14
REMARK    3  A    between atoms: C_15  and  C_16
REMARK    4  A    between atoms: C_16  and  C_17
REMARK    5  A    between atoms: C_23  and  C_24
REMARK    6  A    between atoms: C_29  and  C_31
REMARK    7  A    between atoms: C_31  and  O_32
REMARK                            x       y       z     vdW  Elec       q    Type
REMARK                         _______ _______ _______ _____ _____    ______ ____
ROOT
ATOM      1  O   UNL     1      37.830 -19.579 -20.739  0.00  0.00    -0.267 OA
ATOM      2  O   UNL     1      33.870 -19.210 -23.143  0.00  0.00    -0.246 OA
ATOM      3  N   UNL     1      35.856 -19.375 -21.965  0.00  0.00    -0.244 N 
ATOM      4  N   UNL     1      33.907 -20.561 -21.261  0.00  0.00    -0.279 N 
ATOM      5  C   UNL     1      34.632 -21.106 -20.160  0.00  0.00    +0.069 A 
ATOM      6  C   UNL     1      35.975 -20.773 -19.977  0.00  0.00    +0.073 A 
ATOM      7  C   UNL     1      36.647 -19.860 -20.916  0.00  0.00    +0.266 A 
ATOM      8  C   UNL     1      34.495 -19.685 -22.188  0.00  0.00    +0.334 A 
ATOM      9  C   UNL     1      36.706 -21.298 -18.899  0.00  0.00    +0.014 C 
ATOM     10  C   UNL     1      34.035 -21.982 -19.235  0.00  0.00    +0.018 C 
ATOM     11  C   UNL     1      32.501 -20.927 -21.430  0.00  0.00    +0.135 C 
ATOM     12  C   UNL     1      36.097 -22.164 -17.995  0.00  0.00    +0.042 C 
ATOM     13  C   UNL     1      34.761 -22.505 -18.163  0.00  0.00    +0.010 C 
ENDROOT
BRANCH  12  14
ATOM     14  C   UNL     1      36.842 -22.697 -16.899  0.00  0.00    -0.064 C 
ATOM     15  C   UNL     1      37.467 -23.149 -15.973  0.00  0.00    -0.082 C 
BRANCH  15  16
ATOM     16  C   UNL     1      38.226 -23.700 -14.844  0.00  0.00    +0.103 C 
BRANCH  16  17
ATOM     17  C   UNL     1      37.360 -23.896 -13.626  0.00  0.00    -0.009 C 
ATOM     18  C   UNL     1      37.837 -23.514 -12.381  0.00  0.00    -0.003 C 
ATOM     19  C   UNL     1      36.098 -24.455 -13.769  0.00  0.00    -0.003 C 
ATOM     20  C   UNL     1      37.035 -23.694 -11.254  0.00  0.00    -0.000 C 
ATOM     21  C   UNL     1      35.297 -24.636 -12.643  0.00  0.00    -0.000 C 
ATOM     22  C   UNL     1      35.765 -24.256 -11.385  0.00  0.00    -0.000 C 
ENDBRANCH  16  17
ENDBRANCH  15  16
ENDBRANCH  12  14
BRANCH   3  23
ATOM     23  C   UNL     1      36.494 -18.466 -22.914  0.00  0.00    +0.140 C 
BRANCH  23  24
ATOM     24  C   UNL     1      35.809 -17.127 -22.955  0.00  0.00    +0.001 C 
ATOM     25  C   UNL     1      35.535 -16.537 -24.182  0.00  0.00    -0.002 C 
ATOM     26  C   UNL     1      35.459 -16.500 -21.767  0.00  0.00    -0.002 C 
ATOM     27  C   UNL     1      34.900 -15.296 -24.221  0.00  0.00    +0.006 C 
ATOM     28  C   UNL     1      34.823 -15.260 -21.806  0.00  0.00    +0.006 C 
ATOM     29  C   UNL     1      34.544 -14.657 -23.033  0.00  0.00    +0.075 C 
BRANCH  29  31
ATOM     30  O   UNL     1      32.816 -13.087 -22.511  0.00  0.00    -0.245 OA
ATOM     31  C   UNL     1      33.881 -13.362 -23.073  0.00  0.00    +0.338 C 
BRANCH  31  32
ATOM     32  O   UNL     1      34.565 -12.449 -23.814  0.00  0.00    -0.477 OA
ATOM     33  H   UNL     1      34.308 -12.276 -24.698  0.00  0.00    +0.295 HD
ENDBRANCH  31  32
ENDBRANCH  29  31
ENDBRANCH  23  24
ENDBRANCH   3  23
TORSDOF 7
ENDMDL
MODEL 9
REMARK VINA RESULT:      -9.4      3.776      7.299
REMARK  Name = 10224181
REMARK  7 active torsions:
REMARK  status: ('A' for Active; 'I' for Inactive)
REMARK    1  A    between atoms: N_3  and  C_23
REMARK    2  A    between atoms: C_12  and  C_14
REMARK    3  A    between atoms: C_15  and  C_16
REMARK    4  A    between atoms: C_16  and  C_17
REMARK    5  A    between atoms: C_23  and  C_24
REMARK    6  A    between atoms: C_29  and  C_31
REMARK    7  A    between atoms: C_31  and  O_32
REMARK                            x       y       z     vdW  Elec       q    Type
REMARK                         _______ _______ _______ _____ _____    ______ ____
ROOT
ATOM      1  O   UNL     1      33.076 -22.295 -20.361  0.00  0.00    -0.267 OA
ATOM      2  O   UNL     1      35.763 -23.578 -16.792  0.00  0.00    -0.246 OA
ATOM      3  N   UNL     1      34.404 -22.960 -18.562  0.00  0.00    -0.244 N 
ATOM      4  N   UNL     1      36.492 -21.869 -18.176  0.00  0.00    -0.279 N 
ATOM      5  C   UNL     1      36.268 -21.031 -19.308  0.00  0.00    +0.069 A 
ATOM      6  C   UNL     1      35.100 -21.173 -20.059  0.00  0.00    +0.073 A 
ATOM      7  C   UNL     1      34.098 -22.185 -19.687  0.00  0.00    +0.266 A 
ATOM      8  C   UNL     1      35.572 -22.850 -17.773  0.00  0.00    +0.334 A 
ATOM      9  C   UNL     1      34.860 -20.357 -21.177  0.00  0.00    +0.014 C 
ATOM     10  C   UNL     1      37.195 -20.049 -19.703  0.00  0.00    +0.018 C 
ATOM     11  C   UNL     1      37.725 -21.699 -17.407  0.00  0.00    +0.135 C 
ATOM     12  C   UNL     1      35.790 -19.391 -21.552  0.00  0.00    +0.042 C 
ATOM     13  C   UNL     1      36.957 -19.237 -20.815  0.00  0.00    +0.010 C 
ENDROOT
BRANCH  12  14
ATOM     14  C   UNL     1      35.544 -18.563 -22.690  0.00  0.00    -0.064 C 
ATOM     15  C   UNL     1      35.339 -17.860 -23.647  0.00  0.00    -0.082 C 
BRANCH  15  16
ATOM     16  C   UNL     1      35.090 -17.003 -24.811  0.00  0.00    +0.103 C 
BRANCH  16  17
ATOM     17  C   UNL     1      34.673 -15.612 -24.408  0.00  0.00    -0.009 C 
ATOM     18  C   UNL     1      35.053 -15.118 -23.168  0.00  0.00    -0.003 C 
ATOM     19  C   UNL     1      33.916 -14.846 -25.282  0.00  0.00    -0.003 C 
ATOM     20  C   UNL     1      34.668 -13.830 -22.796  0.00  0.00    -0.000 C 
ATOM     21  C   UNL     1      33.529 -13.559 -24.909  0.00  0.00    -0.000 C 
ATOM     22  C   UNL     1      33.905 -13.051 -23.666  0.00  0.00    -0.000 C 
ENDBRANCH  16  17
ENDBRANCH  15  16
ENDBRANCH  12  14
BRANCH   3  23
ATOM     23  C   UNL     1      33.429 -23.973 -18.166  0.00  0.00    +0.140 C 
BRANCH  23  24
ATOM     24  C   UNL     1      32.969 -23.785 -16.746  0.00  0.00    +0.001 C 
ATOM     25  C   UNL     1      31.952 -22.880 -16.471  0.00  0.00    -0.002 C 
ATOM     26  C   UNL     1      33.566 -24.518 -15.731  0.00  0.00    -0.002 C 
ATOM     27  C   UNL     1      31.525 -22.706 -15.155  0.00  0.00    +0.006 C 
ATOM     28  C   UNL     1      33.139 -24.344 -14.414  0.00  0.00    +0.006 C 
ATOM     29  C   UNL     1      32.119 -23.437 -14.126  0.00  0.00    +0.075 C 
BRANCH  29  31
ATOM     30  O   UNL     1      30.574 -23.601 -12.306  0.00  0.00    -0.245 OA
ATOM     31  C   UNL     1      31.673 -23.256 -12.753  0.00  0.00    +0.338 C 
BRANCH  31  32
ATOM     32  O   UNL     1      32.612 -22.648 -11.977  0.00  0.00    -0.477 OA
ATOM     33  H   UNL     1      32.687 -22.874 -11.071  0.00  0.00    +0.295 HD
ENDBRANCH  31  32
ENDBRANCH  29  31
ENDBRANCH  23  24
ENDBRANCH   3  23
TORSDOF 7
ENDMDL
