MODEL 1
REMARK VINA RESULT:     -12.7      0.000      0.000
REMARK  Name = 24780387
REMARK  3 active torsions:
REMARK  status: ('A' for Active; 'I' for Inactive)
REMARK    1  A    between atoms: N_3  and  C_25
REMARK    2  A    between atoms: C_18  and  O_23
REMARK    3  A    between atoms: C_25  and  N_26
REMARK                            x       y       z     vdW  Elec       q    Type
REMARK                         _______ _______ _______ _____ _____    ______ ____
ROOT
ATOM      1  O   UNL     1      32.754 -25.033 -12.994  0.00  0.00    -0.270 OA
ATOM      2  O   UNL     1      36.263 -23.528 -15.597  0.00  0.00    -0.270 OA
ATOM      3  N   UNL     1      34.778 -24.409 -14.017  0.00  0.00    -0.244 N 
ATOM      4  N   UNL     1      32.306 -22.117 -18.748  0.00  0.00    -0.353 N 
ATOM      5  C   UNL     1      31.549 -23.846 -15.515  0.00  0.00    -0.020 A 
ATOM      6  C   UNL     1      31.273 -23.224 -16.741  0.00  0.00    -0.010 A 
ATOM      7  C   UNL     1      32.852 -23.970 -15.113  0.00  0.00    +0.054 A 
ATOM      8  C   UNL     1      30.287 -24.240 -14.819  0.00  0.00    +0.027 C 
ATOM      9  C   UNL     1      29.789 -23.142 -16.968  0.00  0.00    +0.028 C 
ATOM     10  C   UNL     1      32.329 -22.754 -17.535  0.00  0.00    +0.052 A 
ATOM     11  C   UNL     1      33.900 -23.507 -15.908  0.00  0.00    +0.059 A 
ATOM     12  C   UNL     1      29.280 -24.199 -15.978  0.00  0.00    +0.009 C 
ATOM     13  C   UNL     1      33.677 -22.882 -17.149  0.00  0.00    +0.024 A 
ATOM     14  C   UNL     1      33.415 -24.548 -13.894  0.00  0.00    +0.253 C 
ATOM     15  C   UNL     1      35.146 -23.795 -15.196  0.00  0.00    +0.253 C 
ATOM     16  C   UNL     1      34.466 -22.299 -18.198  0.00  0.00    +0.051 A 
ATOM     17  C   UNL     1      33.581 -21.834 -19.176  0.00  0.00    +0.060 A 
ATOM     18  C   UNL     1      35.847 -22.113 -18.427  0.00  0.00    +0.140 C 
ATOM     19  C   UNL     1      34.002 -21.201 -20.352  0.00  0.00    +0.017 C 
ATOM     20  C   UNL     1      36.285 -21.483 -19.599  0.00  0.00    +0.037 C 
ATOM     21  C   UNL     1      35.373 -21.033 -20.548  0.00  0.00    +0.005 C 
ATOM     22  H   UNL     1      31.487 -21.893 -19.248  0.00  0.00    +0.166 HD
ENDROOT
BRANCH  18  23
ATOM     23  O   UNL     1      36.845 -22.514 -17.584  0.00  0.00    -0.471 OA
ATOM     24  C   UNL     1      37.763 -21.514 -17.152  0.00  0.00    +0.252 C 
ENDBRANCH  18  23
BRANCH   3  25
ATOM     25  C   UNL     1      35.736 -24.853 -13.022  0.00  0.00    +0.028 C 
BRANCH  25  26
ATOM     26  N   UNL     1      37.029 -25.068 -13.667  0.00  0.00    +0.396 N 
ATOM     27  N   UNL     1      39.635 -26.304 -13.865  0.00  0.00    +0.383 N 
ATOM     28  C   UNL     1      38.128 -24.678 -12.774  0.00  0.00    -0.098 C 
ATOM     29  C   UNL     1      37.179 -26.468 -14.083  0.00  0.00    -0.098 C 
ATOM     30  C   UNL     1      39.486 -24.905 -13.448  0.00  0.00    -0.101 C 
ATOM     31  C   UNL     1      38.536 -26.694 -14.758  0.00  0.00    -0.101 C 
ATOM     32  C   UNL     1      40.929 -26.517 -14.512  0.00  0.00    -0.101 C 
ATOM     33  H   UNL     1      37.068 -24.479 -14.499  0.00  0.00    -0.077 HD
ATOM     34  H   UNL     1      39.598 -26.893 -13.034  0.00  0.00    -0.080 HD
ENDBRANCH  25  26
ENDBRANCH   3  25
TORSDOF 3
ENDMDL
MODEL 2
REMARK VINA RESULT:     -11.3      2.211      6.589
REMARK  Name = 24780387
REMARK  3 active torsions:
REMARK  status: ('A' for Active; 'I' for Inactive)
REMARK    1  A    between atoms: N_3  and  C_25
REMARK    2  A    between atoms: C_18  and  O_23
REMARK    3  A    between atoms: C_25  and  N_26
REMARK                            x       y       z     vdW  Elec       q    Type
REMARK                         _______ _______ _______ _____ _____    ______ ____
ROOT
ATOM      1  O   UNL     1      32.786 -22.397 -19.285  0.00  0.00    -0.270 OA
ATOM      2  O   UNL     1      36.890 -22.896 -17.221  0.00  0.00    -0.270 OA
ATOM      3  N   UNL     1      35.030 -22.553 -18.601  0.00  0.00    -0.244 N 
ATOM      4  N   UNL     1      33.819 -24.012 -13.109  0.00  0.00    -0.353 N 
ATOM      5  C   UNL     1      32.244 -23.128 -16.389  0.00  0.00    -0.020 A 
ATOM      6  C   UNL     1      32.289 -23.493 -15.035  0.00  0.00    -0.010 A 
ATOM      7  C   UNL     1      33.420 -22.952 -17.067  0.00  0.00    +0.054 A 
ATOM      8  C   UNL     1      30.833 -23.039 -16.872  0.00  0.00    +0.027 C 
ATOM      9  C   UNL     1      30.899 -23.687 -14.496  0.00  0.00    +0.028 C 
ATOM     10  C   UNL     1      33.529 -23.658 -14.401  0.00  0.00    +0.052 A 
ATOM     11  C   UNL     1      34.651 -23.110 -16.431  0.00  0.00    +0.059 A 
ATOM     12  C   UNL     1      30.067 -22.937 -15.545  0.00  0.00    +0.009 C 
ATOM     13  C   UNL     1      34.750 -23.468 -15.074  0.00  0.00    +0.024 A 
ATOM     14  C   UNL     1      33.663 -22.596 -18.464  0.00  0.00    +0.253 C 
ATOM     15  C   UNL     1      35.692 -22.849 -17.426  0.00  0.00    +0.253 C 
ATOM     16  C   UNL     1      35.793 -23.716 -14.117  0.00  0.00    +0.051 A 
ATOM     17  C   UNL     1      35.178 -24.051 -12.907  0.00  0.00    +0.060 A 
ATOM     18  C   UNL     1      37.205 -23.693 -14.146  0.00  0.00    +0.140 C 
ATOM     19  C   UNL     1      35.893 -24.360 -11.743  0.00  0.00    +0.017 C 
ATOM     20  C   UNL     1      37.935 -23.998 -12.991  0.00  0.00    +0.037 C 
ATOM     21  C   UNL     1      37.286 -24.327 -11.806  0.00  0.00    +0.005 C 
ATOM     22  H   UNL     1      33.146 -24.210 -12.418  0.00  0.00    +0.166 HD
ENDROOT
BRANCH  18  23
ATOM     23  O   UNL     1      37.964 -23.379 -15.239  0.00  0.00    -0.471 OA
ATOM     24  C   UNL     1      39.101 -24.199 -15.490  0.00  0.00    +0.252 C 
ENDBRANCH  18  23
BRANCH   3  25
ATOM     25  C   UNL     1      35.717 -22.235 -19.838  0.00  0.00    +0.028 C 
BRANCH  25  26
ATOM     26  N   UNL     1      35.613 -20.799 -20.087  0.00  0.00    +0.396 N 
ATOM     27  N   UNL     1      35.808 -18.455 -21.768  0.00  0.00    +0.383 N 
ATOM     28  C   UNL     1      36.917 -20.240 -20.468  0.00  0.00    -0.098 C 
ATOM     29  C   UNL     1      34.613 -20.520 -21.125  0.00  0.00    -0.098 C 
ATOM     30  C   UNL     1      36.809 -18.734 -20.732  0.00  0.00    -0.101 C 
ATOM     31  C   UNL     1      34.505 -19.014 -21.387  0.00  0.00    -0.101 C 
ATOM     32  C   UNL     1      35.704 -17.018 -22.015  0.00  0.00    -0.101 C 
ATOM     33  H   UNL     1      35.313 -20.350 -19.222  0.00  0.00    -0.077 HD
ATOM     34  H   UNL     1      36.108 -18.902 -22.634  0.00  0.00    -0.080 HD
ENDBRANCH  25  26
ENDBRANCH   3  25
TORSDOF 3
ENDMDL
MODEL 3
REMARK VINA RESULT:     -10.8      2.413      6.601
REMARK  Name = 24780387
REMARK  3 active torsions:
REMARK  status: ('A' for Active; 'I' for Inactive)
REMARK    1  A    between atoms: N_3  and  C_25
REMARK    2  A    between atoms: C_18  and  O_23
REMARK    3  A    between atoms: C_25  and  N_26
REMARK                            x       y       z     vdW  Elec       q    Type
REMARK                         _______ _______ _______ _____ _____    ______ ____
ROOT
ATOM      1  O   UNL     1      32.449 -25.343 -12.949  0.00  0.00    -0.270 OA
ATOM      2  O   UNL     1      32.359 -23.683 -17.260  0.00  0.00    -0.270 OA
ATOM      3  N   UNL     1      32.018 -24.638 -15.150  0.00  0.00    -0.244 N 
ATOM      4  N   UNL     1      37.283 -22.344 -16.023  0.00  0.00    -0.353 N 
ATOM      5  C   UNL     1      35.162 -24.089 -13.478  0.00  0.00    -0.020 A 
ATOM      6  C   UNL     1      36.309 -23.470 -13.997  0.00  0.00    -0.010 A 
ATOM      7  C   UNL     1      34.054 -24.204 -14.273  0.00  0.00    +0.054 A 
ATOM      8  C   UNL     1      35.400 -24.573 -12.085  0.00  0.00    +0.027 C 
ATOM      9  C   UNL     1      37.422 -23.494 -12.987  0.00  0.00    +0.028 C 
ATOM     10  C   UNL     1      36.297 -22.972 -15.307  0.00  0.00    +0.052 A 
ATOM     11  C   UNL     1      34.043 -23.701 -15.574  0.00  0.00    +0.059 A 
ATOM     12  C   UNL     1      36.643 -23.761 -11.693  0.00  0.00    +0.009 C 
ATOM     13  C   UNL     1      35.165 -23.066 -16.139  0.00  0.00    +0.024 A 
ATOM     14  C   UNL     1      32.752 -24.810 -14.000  0.00  0.00    +0.253 C 
ATOM     15  C   UNL     1      32.723 -23.983 -16.139  0.00  0.00    +0.253 C 
ATOM     16  C   UNL     1      35.517 -22.452 -17.389  0.00  0.00    +0.051 A 
ATOM     17  C   UNL     1      36.841 -22.015 -17.281  0.00  0.00    +0.060 A 
ATOM     18  C   UNL     1      34.851 -22.219 -18.612  0.00  0.00    +0.140 C 
ATOM     19  C   UNL     1      37.521 -21.366 -18.319  0.00  0.00    +0.017 C 
ATOM     20  C   UNL     1      35.517 -21.570 -19.661  0.00  0.00    +0.037 C 
ATOM     21  C   UNL     1      36.834 -21.150 -19.514  0.00  0.00    +0.005 C 
ATOM     22  H   UNL     1      38.187 -22.153 -15.681  0.00  0.00    +0.166 HD
ENDROOT
BRANCH  18  23
ATOM     23  O   UNL     1      33.559 -22.570 -18.884  0.00  0.00    -0.471 OA
ATOM     24  C   UNL     1      32.799 -21.667 -19.681  0.00  0.00    +0.252 C 
ENDBRANCH  18  23
BRANCH   3  25
ATOM     25  C   UNL     1      30.651 -25.094 -15.322  0.00  0.00    +0.028 C 
BRANCH  25  26
ATOM     26  N   UNL     1      29.882 -24.053 -15.998  0.00  0.00    +0.396 N 
ATOM     27  N   UNL     1      27.421 -22.687 -16.659  0.00  0.00    +0.383 N 
ATOM     28  C   UNL     1      28.906 -24.643 -16.924  0.00  0.00    -0.098 C 
ATOM     29  C   UNL     1      29.204 -23.188 -15.024  0.00  0.00    -0.098 C 
ATOM     30  C   UNL     1      28.097 -23.552 -17.633  0.00  0.00    -0.101 C 
ATOM     31  C   UNL     1      28.396 -22.096 -15.734  0.00  0.00    -0.101 C 
ATOM     32  C   UNL     1      26.652 -21.645 -17.338  0.00  0.00    -0.101 C 
ATOM     33  H   UNL     1      30.531 -23.481 -16.539  0.00  0.00    -0.077 HD
ATOM     34  H   UNL     1      26.770 -23.257 -16.120  0.00  0.00    -0.080 HD
ENDBRANCH  25  26
ENDBRANCH   3  25
TORSDOF 3
ENDMDL
