MODEL 1
REMARK VINA RESULT:     -11.3      0.000      0.000
REMARK  Name = 11653652
REMARK  5 active torsions:
REMARK  status: ('A' for Active; 'I' for Inactive)
REMARK    1  A    between atoms: N_1  and  C_19
REMARK    2  A    between atoms: C_4  and  C_7
REMARK    3  A    between atoms: C_5  and  C_27
REMARK    4  A    between atoms: N_6  and  C_13
REMARK    5  A    between atoms: N_6  and  O_16
REMARK                            x       y       z     vdW  Elec       q    Type
REMARK                         _______ _______ _______ _____ _____    ______ ____
ROOT
ATOM      1  N   UNL     1      33.932 -22.380 -18.572  0.00  0.00    -0.212 N 
ATOM      2  N   UNL     1      32.638 -22.660 -18.342  0.00  0.00    -0.178 NA
ATOM      3  C   UNL     1      34.762 -22.723 -17.544  0.00  0.00    +0.085 C 
ATOM      4  C   UNL     1      33.952 -23.263 -16.579  0.00  0.00    +0.032 C 
ATOM      5  C   UNL     1      32.657 -23.200 -17.120  0.00  0.00    +0.100 C 
ENDROOT
BRANCH   4   6
ATOM      6  C   UNL     1      34.442 -23.756 -15.322  0.00  0.00    -0.015 C 
ATOM      7  C   UNL     1      36.132 -24.865 -14.042  0.00  0.00    -0.016 C 
ATOM      8  C   UNL     1      37.419 -25.576 -13.758  0.00  0.00    -0.002 C 
ATOM      9  C   UNL     1      35.350 -24.687 -12.906  0.00  0.00    +0.016 C 
ATOM     10  C   UNL     1      37.374 -25.847 -12.245  0.00  0.00    +0.021 C 
ATOM     11  C   UNL     1      35.683 -24.398 -15.266  0.00  0.00    +0.053 C 
ATOM     12  C   UNL     1      36.062 -25.268 -11.786  0.00  0.00    +0.107 C 
ATOM     13  C   UNL     1      33.666 -23.587 -14.162  0.00  0.00    -0.004 C 
ATOM     14  C   UNL     1      34.121 -24.057 -12.930  0.00  0.00    +0.001 C 
BRANCH  12  15
ATOM     15  N   UNL     1      35.673 -25.309 -10.558  0.00  0.00    -0.135 NA
BRANCH  15  16
ATOM     16  O   UNL     1      36.379 -24.342  -9.838  0.00  0.00    -0.265 OA
ATOM     17  H   UNL     1      35.952 -23.862  -9.156  0.00  0.00    +0.247 HD
ENDBRANCH  15  16
ENDBRANCH  12  15
ENDBRANCH   4   6
BRANCH   1  19
ATOM     18  N   UNL     1      35.149 -19.509 -21.512  0.00  0.00    +0.384 N 
ATOM     19  C   UNL     1      34.328 -21.762 -19.842  0.00  0.00    +0.092 C 
ATOM     20  C   UNL     1      33.334 -20.690 -20.316  0.00  0.00    -0.002 C 
ATOM     21  C   UNL     1      35.755 -21.194 -19.805  0.00  0.00    -0.002 C 
ATOM     22  C   UNL     1      33.797 -20.058 -21.627  0.00  0.00    -0.080 C 
ATOM     23  C   UNL     1      36.118 -20.542 -21.139  0.00  0.00    -0.080 C 
ATOM     24  H   UNL     1      35.150 -18.780 -20.799  0.00  0.00    -0.085 HD
ATOM     25  H   UNL     1      35.419 -19.131 -22.419  0.00  0.00    -0.085 HD
ENDBRANCH   1  19
BRANCH   5  27
ATOM     26  N   UNL     1      29.056 -24.497 -15.317  0.00  0.00    -0.242 NA
ATOM     27  C   UNL     1      31.430 -23.642 -16.506  0.00  0.00    +0.022 C 
ATOM     28  C   UNL     1      31.321 -24.942 -16.035  0.00  0.00    +0.022 C 
ATOM     29  C   UNL     1      30.361 -22.765 -16.387  0.00  0.00    +0.022 C 
ATOM     30  C   UNL     1      30.121 -25.318 -15.453  0.00  0.00    +0.099 C 
ATOM     31  C   UNL     1      29.204 -23.238 -15.790  0.00  0.00    +0.099 C 
ENDBRANCH   5  27
TORSDOF 5
ENDMDL
MODEL 2
REMARK VINA RESULT:     -10.1      1.119      1.174
REMARK  Name = 11653652
REMARK  5 active torsions:
REMARK  status: ('A' for Active; 'I' for Inactive)
REMARK    1  A    between atoms: N_1  and  C_19
REMARK    2  A    between atoms: C_4  and  C_7
REMARK    3  A    between atoms: C_5  and  C_27
REMARK    4  A    between atoms: N_6  and  C_13
REMARK    5  A    between atoms: N_6  and  O_16
REMARK                            x       y       z     vdW  Elec       q    Type
REMARK                         _______ _______ _______ _____ _____    ______ ____
ROOT
ATOM      1  N   UNL     1      34.415 -22.260 -18.731  0.00  0.00    -0.212 N 
ATOM      2  N   UNL     1      33.178 -22.568 -18.304  0.00  0.00    -0.178 NA
ATOM      3  C   UNL     1      35.402 -22.600 -17.853  0.00  0.00    +0.085 C 
ATOM      4  C   UNL     1      34.765 -23.168 -16.781  0.00  0.00    +0.032 C 
ATOM      5  C   UNL     1      33.400 -23.123 -17.109  0.00  0.00    +0.100 C 
ENDROOT
BRANCH   4   6
ATOM      6  C   UNL     1      35.456 -23.667 -15.624  0.00  0.00    -0.015 C 
ATOM      7  C   UNL     1      36.560 -25.452 -14.474  0.00  0.00    -0.016 C 
ATOM      8  C   UNL     1      37.110 -26.825 -14.240  0.00  0.00    -0.002 C 
ATOM      9  C   UNL     1      36.773 -24.593 -13.401  0.00  0.00    +0.016 C 
ATOM     10  C   UNL     1      37.728 -26.747 -12.834  0.00  0.00    +0.021 C 
ATOM     11  C   UNL     1      35.897 -24.994 -15.601  0.00  0.00    +0.053 C 
ATOM     12  C   UNL     1      37.480 -25.333 -12.378  0.00  0.00    +0.107 C 
ATOM     13  C   UNL     1      35.681 -22.815 -14.529  0.00  0.00    -0.004 C 
ATOM     14  C   UNL     1      36.350 -23.277 -13.396  0.00  0.00    +0.001 C 
BRANCH  12  15
ATOM     15  N   UNL     1      37.863 -24.894 -11.228  0.00  0.00    -0.135 NA
BRANCH  15  16
ATOM     16  O   UNL     1      36.728 -24.599 -10.468  0.00  0.00    -0.265 OA
ATOM     17  H   UNL     1      36.229 -23.828 -10.652  0.00  0.00    +0.247 HD
ENDBRANCH  15  16
ENDBRANCH  12  15
ENDBRANCH   4   6
BRANCH   1  19
ATOM     18  N   UNL     1      34.966 -19.311 -21.792  0.00  0.00    +0.384 N 
ATOM     19  C   UNL     1      34.594 -21.619 -20.038  0.00  0.00    +0.092 C 
ATOM     20  C   UNL     1      33.440 -20.669 -20.396  0.00  0.00    -0.002 C 
ATOM     21  C   UNL     1      35.944 -20.897 -20.164  0.00  0.00    -0.002 C 
ATOM     22  C   UNL     1      33.679 -20.007 -21.752  0.00  0.00    -0.080 C 
ATOM     23  C   UNL     1      36.079 -20.226 -21.531  0.00  0.00    -0.080 C 
ATOM     24  H   UNL     1      34.967 -18.577 -21.083  0.00  0.00    -0.085 HD
ATOM     25  H   UNL     1      35.088 -18.917 -22.723  0.00  0.00    -0.085 HD
ENDBRANCH   1  19
BRANCH   5  27
ATOM     26  N   UNL     1      30.153 -24.512 -14.779  0.00  0.00    -0.242 NA
ATOM     27  C   UNL     1      32.294 -23.596 -16.315  0.00  0.00    +0.022 C 
ATOM     28  C   UNL     1      32.520 -24.475 -15.266  0.00  0.00    +0.022 C 
ATOM     29  C   UNL     1      31.004 -23.172 -16.603  0.00  0.00    +0.022 C 
ATOM     30  C   UNL     1      31.424 -24.900 -14.533  0.00  0.00    +0.099 C 
ATOM     31  C   UNL     1      29.976 -23.655 -15.811  0.00  0.00    +0.099 C 
ENDBRANCH   5  27
TORSDOF 5
ENDMDL
MODEL 3
REMARK VINA RESULT:     -10.0      1.460      1.871
REMARK  Name = 11653652
REMARK  5 active torsions:
REMARK  status: ('A' for Active; 'I' for Inactive)
REMARK    1  A    between atoms: N_1  and  C_19
REMARK    2  A    between atoms: C_4  and  C_7
REMARK    3  A    between atoms: C_5  and  C_27
REMARK    4  A    between atoms: N_6  and  C_13
REMARK    5  A    between atoms: N_6  and  O_16
REMARK                            x       y       z     vdW  Elec       q    Type
REMARK                         _______ _______ _______ _____ _____    ______ ____
ROOT
ATOM      1  N   UNL     1      34.199 -22.323 -18.682  0.00  0.00    -0.212 N 
ATOM      2  N   UNL     1      33.012 -22.570 -18.103  0.00  0.00    -0.178 NA
ATOM      3  C   UNL     1      35.270 -22.735 -17.944  0.00  0.00    +0.085 C 
ATOM      4  C   UNL     1      34.745 -23.289 -16.806  0.00  0.00    +0.032 C 
ATOM      5  C   UNL     1      33.353 -23.162 -16.954  0.00  0.00    +0.100 C 
ENDROOT
BRANCH   4   6
ATOM      6  C   UNL     1      35.548 -23.850 -15.756  0.00  0.00    -0.015 C 
ATOM      7  C   UNL     1      36.896 -23.572 -13.798  0.00  0.00    -0.016 C 
ATOM      8  C   UNL     1      37.600 -22.861 -12.684  0.00  0.00    -0.002 C 
ATOM      9  C   UNL     1      37.078 -24.950 -13.761  0.00  0.00    +0.016 C 
ATOM     10  C   UNL     1      38.286 -23.987 -11.893  0.00  0.00    +0.021 C 
ATOM     11  C   UNL     1      36.124 -23.007 -14.800  0.00  0.00    +0.053 C 
ATOM     12  C   UNL     1      37.917 -25.253 -12.621  0.00  0.00    +0.107 C 
ATOM     13  C   UNL     1      35.746 -25.241 -15.701  0.00  0.00    -0.004 C 
ATOM     14  C   UNL     1      36.522 -25.808 -14.691  0.00  0.00    +0.001 C 
BRANCH  12  15
ATOM     15  N   UNL     1      38.319 -26.417 -12.241  0.00  0.00    -0.135 NA
BRANCH  15  16
ATOM     16  O   UNL     1      37.234 -27.099 -11.683  0.00  0.00    -0.265 OA
ATOM     17  H   UNL     1      37.168 -28.029 -11.774  0.00  0.00    +0.247 HD
ENDBRANCH  15  16
ENDBRANCH  12  15
ENDBRANCH   4   6
BRANCH   1  19
ATOM     18  N   UNL     1      34.437 -19.335 -21.746  0.00  0.00    +0.384 N 
ATOM     19  C   UNL     1      34.246 -21.665 -19.992  0.00  0.00    +0.092 C 
ATOM     20  C   UNL     1      33.060 -20.714 -20.222  0.00  0.00    -0.002 C 
ATOM     21  C   UNL     1      35.576 -20.938 -20.244  0.00  0.00    -0.002 C 
ATOM     22  C   UNL     1      33.162 -20.035 -21.587  0.00  0.00    -0.080 C 
ATOM     23  C   UNL     1      35.572 -20.249 -21.609  0.00  0.00    -0.080 C 
ATOM     24  H   UNL     1      34.508 -18.610 -21.032  0.00  0.00    -0.085 HD
ATOM     25  H   UNL     1      34.465 -18.929 -22.681  0.00  0.00    -0.085 HD
ENDBRANCH   1  19
BRANCH   5  27
ATOM     26  N   UNL     1      30.357 -24.416 -14.243  0.00  0.00    -0.242 NA
ATOM     27  C   UNL     1      32.333 -23.589 -16.031  0.00  0.00    +0.022 C 
ATOM     28  C   UNL     1      32.458 -23.302 -14.679  0.00  0.00    +0.022 C 
ATOM     29  C   UNL     1      31.227 -24.287 -16.495  0.00  0.00    +0.022 C 
ATOM     30  C   UNL     1      31.450 -23.734 -13.832  0.00  0.00    +0.099 C 
ATOM     31  C   UNL     1      30.274 -24.676 -15.567  0.00  0.00    +0.099 C 
ENDBRANCH   5  27
TORSDOF 5
ENDMDL
MODEL 4
REMARK VINA RESULT:      -9.5      3.386      8.005
REMARK  Name = 11653652
REMARK  5 active torsions:
REMARK  status: ('A' for Active; 'I' for Inactive)
REMARK    1  A    between atoms: N_1  and  C_19
REMARK    2  A    between atoms: C_4  and  C_7
REMARK    3  A    between atoms: C_5  and  C_27
REMARK    4  A    between atoms: N_6  and  C_13
REMARK    5  A    between atoms: N_6  and  O_16
REMARK                            x       y       z     vdW  Elec       q    Type
REMARK                         _______ _______ _______ _____ _____    ______ ____
ROOT
ATOM      1  N   UNL     1      32.321 -23.780 -16.779  0.00  0.00    -0.212 N 
ATOM      2  N   UNL     1      33.360 -24.096 -15.990  0.00  0.00    -0.178 NA
ATOM      3  C   UNL     1      32.653 -22.990 -17.841  0.00  0.00    +0.085 C 
ATOM      4  C   UNL     1      34.003 -22.776 -17.734  0.00  0.00    +0.032 C 
ATOM      5  C   UNL     1      34.388 -23.478 -16.579  0.00  0.00    +0.100 C 
ENDROOT
BRANCH   4   6
ATOM      6  C   UNL     1      34.754 -21.985 -18.668  0.00  0.00    -0.015 C 
ATOM      7  C   UNL     1      34.842 -20.598 -20.617  0.00  0.00    -0.016 C 
ATOM      8  C   UNL     1      34.343 -19.846 -21.812  0.00  0.00    -0.002 C 
ATOM      9  C   UNL     1      36.216 -20.479 -20.437  0.00  0.00    +0.016 C 
ATOM     10  C   UNL     1      35.607 -19.203 -22.406  0.00  0.00    +0.021 C 
ATOM     11  C   UNL     1      34.095 -21.354 -19.729  0.00  0.00    +0.053 C 
ATOM     12  C   UNL     1      36.728 -19.640 -21.500  0.00  0.00    +0.107 C 
ATOM     13  C   UNL     1      36.144 -21.853 -18.505  0.00  0.00    -0.004 C 
ATOM     14  C   UNL     1      36.894 -21.089 -19.399  0.00  0.00    +0.001 C 
BRANCH  12  15
ATOM     15  N   UNL     1      37.954 -19.290 -21.689  0.00  0.00    -0.135 NA
BRANCH  15  16
ATOM     16  O   UNL     1      38.012 -18.482 -22.828  0.00  0.00    -0.265 OA
ATOM     17  H   UNL     1      37.224 -18.256 -23.282  0.00  0.00    +0.247 HD
ENDBRANCH  15  16
ENDBRANCH  12  15
ENDBRANCH   4   6
BRANCH   1  19
ATOM     18  N   UNL     1      28.556 -24.413 -14.832  0.00  0.00    +0.384 N 
ATOM     19  C   UNL     1      30.982 -24.285 -16.455  0.00  0.00    +0.092 C 
ATOM     20  C   UNL     1      30.936 -25.024 -15.109  0.00  0.00    -0.002 C 
ATOM     21  C   UNL     1      29.907 -23.188 -16.503  0.00  0.00    -0.002 C 
ATOM     22  C   UNL     1      29.521 -25.512 -14.801  0.00  0.00    -0.080 C 
ATOM     23  C   UNL     1      28.534 -23.752 -16.138  0.00  0.00    -0.080 C 
ATOM     24  H   UNL     1      28.810 -23.728 -14.119  0.00  0.00    -0.085 HD
ATOM     25  H   UNL     1      27.628 -24.796 -14.652  0.00  0.00    -0.085 HD
ENDBRANCH   1  19
BRANCH   5  27
ATOM     26  N   UNL     1      38.273 -23.775 -14.931  0.00  0.00    -0.242 NA
ATOM     27  C   UNL     1      35.711 -23.579 -16.018  0.00  0.00    +0.022 C 
ATOM     28  C   UNL     1      36.450 -22.430 -15.776  0.00  0.00    +0.022 C 
ATOM     29  C   UNL     1      36.244 -24.826 -15.721  0.00  0.00    +0.022 C 
ATOM     30  C   UNL     1      37.717 -22.580 -15.235  0.00  0.00    +0.099 C 
ATOM     31  C   UNL     1      37.520 -24.869 -15.183  0.00  0.00    +0.099 C 
ENDBRANCH   5  27
TORSDOF 5
ENDMDL
MODEL 5
REMARK VINA RESULT:      -9.3     12.198     16.169
REMARK  Name = 11653652
REMARK  5 active torsions:
REMARK  status: ('A' for Active; 'I' for Inactive)
REMARK    1  A    between atoms: N_1  and  C_19
REMARK    2  A    between atoms: C_4  and  C_7
REMARK    3  A    between atoms: C_5  and  C_27
REMARK    4  A    between atoms: N_6  and  C_13
REMARK    5  A    between atoms: N_6  and  O_16
REMARK                            x       y       z     vdW  Elec       q    Type
REMARK                         _______ _______ _______ _____ _____    ______ ____
ROOT
ATOM      1  N   UNL     1      33.793 -12.734 -23.765  0.00  0.00    -0.212 N 
ATOM      2  N   UNL     1      33.234 -12.848 -22.549  0.00  0.00    -0.178 NA
ATOM      3  C   UNL     1      33.720 -11.477 -24.291  0.00  0.00    +0.085 C 
ATOM      4  C   UNL     1      33.069 -10.720 -23.352  0.00  0.00    +0.032 C 
ATOM      5  C   UNL     1      32.793 -11.611 -22.301  0.00  0.00    +0.100 C 
ENDROOT
BRANCH   4   6
ATOM      6  C   UNL     1      32.788  -9.321 -23.521  0.00  0.00    -0.015 C 
ATOM      7  C   UNL     1      33.499  -7.117 -24.123  0.00  0.00    -0.016 C 
ATOM      8  C   UNL     1      34.421  -6.032 -24.585  0.00  0.00    -0.002 C 
ATOM      9  C   UNL     1      32.220  -6.655 -23.833  0.00  0.00    +0.016 C 
ATOM     10  C   UNL     1      33.552  -4.764 -24.559  0.00  0.00    +0.021 C 
ATOM     11  C   UNL     1      33.795  -8.462 -23.970  0.00  0.00    +0.053 C 
ATOM     12  C   UNL     1      32.201  -5.229 -24.082  0.00  0.00    +0.107 C 
ATOM     13  C   UNL     1      31.501  -8.833 -23.232  0.00  0.00    -0.004 C 
ATOM     14  C   UNL     1      31.204  -7.480 -23.389  0.00  0.00    +0.001 C 
BRANCH  12  15
ATOM     15  N   UNL     1      31.202  -4.429 -23.932  0.00  0.00    -0.135 NA
BRANCH  15  16
ATOM     16  O   UNL     1      31.148  -4.034 -22.593  0.00  0.00    -0.265 OA
ATOM     17  H   UNL     1      31.517  -4.581 -21.929  0.00  0.00    +0.247 HD
ENDBRANCH  15  16
ENDBRANCH  12  15
ENDBRANCH   4   6
BRANCH   1  19
ATOM     18  N   UNL     1      34.549 -16.753 -25.046  0.00  0.00    +0.384 N 
ATOM     19  C   UNL     1      34.405 -13.908 -24.396  0.00  0.00    +0.092 C 
ATOM     20  C   UNL     1      34.867 -14.959 -23.374  0.00  0.00    -0.002 C 
ATOM     21  C   UNL     1      33.499 -14.551 -25.457  0.00  0.00    -0.002 C 
ATOM     22  C   UNL     1      35.477 -16.171 -24.075  0.00  0.00    -0.080 C 
ATOM     23  C   UNL     1      34.166 -15.782 -26.072  0.00  0.00    -0.080 C 
ATOM     24  H   UNL     1      33.711 -17.066 -24.556  0.00  0.00    -0.085 HD
ATOM     25  H   UNL     1      35.015 -17.535 -25.505  0.00  0.00    -0.085 HD
ENDBRANCH   1  19
BRANCH   5  27
ATOM     26  N   UNL     1      30.810 -10.754 -18.663  0.00  0.00    -0.242 NA
ATOM     27  C   UNL     1      32.117 -11.319 -21.062  0.00  0.00    +0.022 C 
ATOM     28  C   UNL     1      32.848 -10.920 -19.952  0.00  0.00    +0.022 C 
ATOM     29  C   UNL     1      30.737 -11.438 -20.981  0.00  0.00    +0.022 C 
ATOM     30  C   UNL     1      32.153 -10.651 -18.785  0.00  0.00    +0.099 C 
ATOM     31  C   UNL     1      30.136 -11.146 -19.768  0.00  0.00    +0.099 C 
ENDBRANCH   5  27
TORSDOF 5
ENDMDL
MODEL 6
REMARK VINA RESULT:      -9.2      2.311      5.234
REMARK  Name = 11653652
REMARK  5 active torsions:
REMARK  status: ('A' for Active; 'I' for Inactive)
REMARK    1  A    between atoms: N_1  and  C_19
REMARK    2  A    between atoms: C_4  and  C_7
REMARK    3  A    between atoms: C_5  and  C_27
REMARK    4  A    between atoms: N_6  and  C_13
REMARK    5  A    between atoms: N_6  and  O_16
REMARK                            x       y       z     vdW  Elec       q    Type
REMARK                         _______ _______ _______ _____ _____    ______ ____
ROOT
ATOM      1  N   UNL     1      35.729 -21.490 -19.375  0.00  0.00    -0.212 N 
ATOM      2  N   UNL     1      36.693 -21.745 -18.475  0.00  0.00    -0.178 NA
ATOM      3  C   UNL     1      34.493 -21.930 -19.000  0.00  0.00    +0.085 C 
ATOM      4  C   UNL     1      34.664 -22.512 -17.771  0.00  0.00    +0.032 C 
ATOM      5  C   UNL     1      36.035 -22.371 -17.495  0.00  0.00    +0.100 C 
ENDROOT
BRANCH   4   6
ATOM      6  C   UNL     1      33.593 -23.106 -17.021  0.00  0.00    -0.015 C 
ATOM      7  C   UNL     1      31.256 -23.320 -16.551  0.00  0.00    -0.016 C 
ATOM      8  C   UNL     1      29.785 -23.068 -16.671  0.00  0.00    -0.002 C 
ATOM      9  C   UNL     1      31.567 -24.258 -15.572  0.00  0.00    +0.016 C 
ATOM     10  C   UNL     1      29.158 -23.991 -15.612  0.00  0.00    +0.021 C 
ATOM     11  C   UNL     1      32.271 -22.734 -17.289  0.00  0.00    +0.053 C 
ATOM     12  C   UNL     1      30.324 -24.696 -14.971  0.00  0.00    +0.107 C 
ATOM     13  C   UNL     1      33.885 -24.055 -16.027  0.00  0.00    -0.004 C 
ATOM     14  C   UNL     1      32.862 -24.646 -15.286  0.00  0.00    +0.001 C 
BRANCH  12  15
ATOM     15  N   UNL     1      30.182 -25.558 -14.025  0.00  0.00    -0.135 NA
BRANCH  15  16
ATOM     16  O   UNL     1      30.599 -24.972 -12.827  0.00  0.00    -0.265 OA
ATOM     17  H   UNL     1      30.844 -25.512 -12.102  0.00  0.00    +0.247 HD
ENDBRANCH  15  16
ENDBRANCH  12  15
ENDBRANCH   4   6
BRANCH   1  19
ATOM     18  N   UNL     1      36.243 -18.433 -22.335  0.00  0.00    +0.384 N 
ATOM     19  C   UNL     1      36.064 -20.794 -20.622  0.00  0.00    +0.092 C 
ATOM     20  C   UNL     1      34.832 -20.189 -21.314  0.00  0.00    -0.002 C 
ATOM     21  C   UNL     1      37.152 -19.727 -20.431  0.00  0.00    -0.002 C 
ATOM     22  C   UNL     1      35.230 -19.456 -22.594  0.00  0.00    -0.080 C 
ATOM     23  C   UNL     1      37.454 -19.013 -21.749  0.00  0.00    -0.080 C 
ATOM     24  H   UNL     1      35.860 -17.744 -21.688  0.00  0.00    -0.085 HD
ATOM     25  H   UNL     1      36.494 -17.999 -23.222  0.00  0.00    -0.085 HD
ENDBRANCH   1  19
BRANCH   5  27
ATOM     26  N   UNL     1      38.107 -23.680 -14.046  0.00  0.00    -0.242 NA
ATOM     27  C   UNL     1      36.741 -22.817 -16.320  0.00  0.00    +0.022 C 
ATOM     28  C   UNL     1      37.984 -23.419 -16.447  0.00  0.00    +0.022 C 
ATOM     29  C   UNL     1      36.175 -22.643 -15.065  0.00  0.00    +0.022 C 
ATOM     30  C   UNL     1      38.622 -23.831 -15.288  0.00  0.00    +0.099 C 
ATOM     31  C   UNL     1      36.893 -23.089 -13.968  0.00  0.00    +0.099 C 
ENDBRANCH   5  27
TORSDOF 5
ENDMDL
MODEL 7
REMARK VINA RESULT:      -9.0     11.779     15.639
REMARK  Name = 11653652
REMARK  5 active torsions:
REMARK  status: ('A' for Active; 'I' for Inactive)
REMARK    1  A    between atoms: N_1  and  C_19
REMARK    2  A    between atoms: C_4  and  C_7
REMARK    3  A    between atoms: C_5  and  C_27
REMARK    4  A    between atoms: N_6  and  C_13
REMARK    5  A    between atoms: N_6  and  O_16
REMARK                            x       y       z     vdW  Elec       q    Type
REMARK                         _______ _______ _______ _____ _____    ______ ____
ROOT
ATOM      1  N   UNL     1      33.524  -7.712 -23.791  0.00  0.00    -0.212 N 
ATOM      2  N   UNL     1      32.847  -7.988 -22.664  0.00  0.00    -0.178 NA
ATOM      3  C   UNL     1      33.958  -8.819 -24.460  0.00  0.00    +0.085 C 
ATOM      4  C   UNL     1      33.534  -9.890 -23.716  0.00  0.00    +0.032 C 
ATOM      5  C   UNL     1      32.856  -9.323 -22.624  0.00  0.00    +0.100 C 
ENDROOT
BRANCH   4   6
ATOM      6  C   UNL     1      33.789 -11.256 -24.081  0.00  0.00    -0.015 C 
ATOM      7  C   UNL     1      34.363 -13.497 -23.468  0.00  0.00    -0.016 C 
ATOM      8  C   UNL     1      34.732 -14.644 -22.579  0.00  0.00    -0.002 C 
ATOM      9  C   UNL     1      34.270 -13.859 -24.808  0.00  0.00    +0.016 C 
ATOM     10  C   UNL     1      34.871 -15.836 -23.541  0.00  0.00    +0.021 C 
ATOM     11  C   UNL     1      34.121 -12.186 -23.091  0.00  0.00    +0.053 C 
ATOM     12  C   UNL     1      34.570 -15.271 -24.905  0.00  0.00    +0.107 C 
ATOM     13  C   UNL     1      33.700 -11.642 -25.430  0.00  0.00    -0.004 C 
ATOM     14  C   UNL     1      33.942 -12.962 -25.808  0.00  0.00    +0.001 C 
BRANCH  12  15
ATOM     15  N   UNL     1      34.591 -15.988 -25.976  0.00  0.00    -0.135 NA
BRANCH  15  16
ATOM     16  O   UNL     1      33.276 -16.322 -26.310  0.00  0.00    -0.265 OA
ATOM     17  H   UNL     1      32.896 -15.993 -27.100  0.00  0.00    +0.247 HD
ENDBRANCH  15  16
ENDBRANCH  12  15
ENDBRANCH   4   6
BRANCH   1  19
ATOM     18  N   UNL     1      33.436  -4.043 -26.004  0.00  0.00    +0.384 N 
ATOM     19  C   UNL     1      33.731  -6.316 -24.192  0.00  0.00    +0.092 C 
ATOM     20  C   UNL     1      34.557  -6.185 -25.481  0.00  0.00    -0.002 C 
ATOM     21  C   UNL     1      32.414  -5.534 -24.314  0.00  0.00    -0.002 C 
ATOM     22  C   UNL     1      34.728  -4.718 -25.873  0.00  0.00    -0.080 C 
ATOM     23  C   UNL     1      32.675  -4.093 -24.755  0.00  0.00    -0.080 C 
ATOM     24  H   UNL     1      32.896  -4.500 -26.739  0.00  0.00    -0.085 HD
ATOM     25  H   UNL     1      33.608  -3.065 -26.235  0.00  0.00    -0.085 HD
ENDBRANCH   1  19
BRANCH   5  27
ATOM     26  N   UNL     1      30.970 -11.364 -19.433  0.00  0.00    -0.242 NA
ATOM     27  C   UNL     1      32.214 -10.019 -21.537  0.00  0.00    +0.022 C 
ATOM     28  C   UNL     1      31.194 -10.922 -21.799  0.00  0.00    +0.022 C 
ATOM     29  C   UNL     1      32.616  -9.782 -20.230  0.00  0.00    +0.022 C 
ATOM     30  C   UNL     1      30.609 -11.565 -20.721  0.00  0.00    +0.099 C 
ATOM     31  C   UNL     1      31.967 -10.475 -19.221  0.00  0.00    +0.099 C 
ENDBRANCH   5  27
TORSDOF 5
ENDMDL
MODEL 8
REMARK VINA RESULT:      -8.7     11.945     15.849
REMARK  Name = 11653652
REMARK  5 active torsions:
REMARK  status: ('A' for Active; 'I' for Inactive)
REMARK    1  A    between atoms: N_1  and  C_19
REMARK    2  A    between atoms: C_4  and  C_7
REMARK    3  A    between atoms: C_5  and  C_27
REMARK    4  A    between atoms: N_6  and  C_13
REMARK    5  A    between atoms: N_6  and  O_16
REMARK                            x       y       z     vdW  Elec       q    Type
REMARK                         _______ _______ _______ _____ _____    ______ ____
ROOT
ATOM      1  N   UNL     1      33.454 -13.573 -23.473  0.00  0.00    -0.212 N 
ATOM      2  N   UNL     1      32.830 -13.441 -22.291  0.00  0.00    -0.178 NA
ATOM      3  C   UNL     1      33.716 -12.387 -24.095  0.00  0.00    +0.085 C 
ATOM      4  C   UNL     1      33.228 -11.416 -23.259  0.00  0.00    +0.032 C 
ATOM      5  C   UNL     1      32.694 -12.118 -22.165  0.00  0.00    +0.100 C 
ENDROOT
BRANCH   4   6
ATOM      6  C   UNL     1      33.306 -10.011 -23.549  0.00  0.00    -0.015 C 
ATOM      7  C   UNL     1      32.277  -7.854 -23.667  0.00  0.00    -0.016 C 
ATOM      8  C   UNL     1      31.200  -6.820 -23.557  0.00  0.00    -0.002 C 
ATOM      9  C   UNL     1      33.486  -7.331 -24.111  0.00  0.00    +0.016 C 
ATOM     10  C   UNL     1      31.883  -5.516 -24.001  0.00  0.00    +0.021 C 
ATOM     11  C   UNL     1      32.176  -9.205 -23.379  0.00  0.00    +0.053 C 
ATOM     12  C   UNL     1      33.299  -5.912 -24.329  0.00  0.00    +0.107 C 
ATOM     13  C   UNL     1      34.520  -9.463 -24.001  0.00  0.00    -0.004 C 
ATOM     14  C   UNL     1      34.620  -8.102 -24.288  0.00  0.00    +0.001 C 
BRANCH  12  15
ATOM     15  N   UNL     1      34.180  -5.068 -24.743  0.00  0.00    -0.135 NA
BRANCH  15  16
ATOM     16  O   UNL     1      33.646  -4.367 -25.827  0.00  0.00    -0.265 OA
ATOM     17  H   UNL     1      34.070  -3.591 -26.137  0.00  0.00    +0.247 HD
ENDBRANCH  15  16
ENDBRANCH  12  15
ENDBRANCH   4   6
BRANCH   1  19
ATOM     18  N   UNL     1      35.465 -16.823 -25.413  0.00  0.00    +0.384 N 
ATOM     19  C   UNL     1      33.788 -14.911 -23.974  0.00  0.00    +0.092 C 
ATOM     20  C   UNL     1      33.820 -14.979 -25.510  0.00  0.00    -0.002 C 
ATOM     21  C   UNL     1      35.098 -15.455 -23.384  0.00  0.00    -0.002 C 
ATOM     22  C   UNL     1      34.193 -16.381 -25.986  0.00  0.00    -0.080 C 
ATOM     23  C   UNL     1      35.418 -16.839 -23.949  0.00  0.00    -0.080 C 
ATOM     24  H   UNL     1      36.203 -16.186 -25.714  0.00  0.00    -0.085 HD
ATOM     25  H   UNL     1      35.650 -17.772 -25.736  0.00  0.00    -0.085 HD
ENDBRANCH   1  19
BRANCH   5  27
ATOM     26  N   UNL     1      30.819 -10.492 -18.739  0.00  0.00    -0.242 NA
ATOM     27  C   UNL     1      32.055 -11.564 -20.999  0.00  0.00    +0.022 C 
ATOM     28  C   UNL     1      30.671 -11.536 -20.915  0.00  0.00    +0.022 C 
ATOM     29  C   UNL     1      32.827 -11.060 -19.961  0.00  0.00    +0.022 C 
ATOM     30  C   UNL     1      30.105 -10.993 -19.773  0.00  0.00    +0.099 C 
ATOM     31  C   UNL     1      32.165 -10.538 -18.861  0.00  0.00    +0.099 C 
ENDBRANCH   5  27
TORSDOF 5
ENDMDL
MODEL 9
REMARK VINA RESULT:      -8.6      8.915     12.970
REMARK  Name = 11653652
REMARK  5 active torsions:
REMARK  status: ('A' for Active; 'I' for Inactive)
REMARK    1  A    between atoms: N_1  and  C_19
REMARK    2  A    between atoms: C_4  and  C_7
REMARK    3  A    between atoms: C_5  and  C_27
REMARK    4  A    between atoms: N_6  and  C_13
REMARK    5  A    between atoms: N_6  and  O_16
REMARK                            x       y       z     vdW  Elec       q    Type
REMARK                         _______ _______ _______ _____ _____    ______ ____
ROOT
ATOM      1  N   UNL     1      32.755 -11.292 -22.300  0.00  0.00    -0.212 N 
ATOM      2  N   UNL     1      32.841 -11.342 -23.640  0.00  0.00    -0.178 NA
ATOM      3  C   UNL     1      33.245 -12.400 -21.673  0.00  0.00    +0.085 C 
ATOM      4  C   UNL     1      33.680 -13.229 -22.674  0.00  0.00    +0.032 C 
ATOM      5  C   UNL     1      33.409 -12.531 -23.863  0.00  0.00    +0.100 C 
ENDROOT
BRANCH   4   6
ATOM      6  C   UNL     1      34.273 -14.515 -22.433  0.00  0.00    -0.015 C 
ATOM      7  C   UNL     1      35.191 -16.566 -23.257  0.00  0.00    -0.016 C 
ATOM      8  C   UNL     1      35.633 -17.589 -24.257  0.00  0.00    -0.002 C 
ATOM      9  C   UNL     1      35.404 -16.967 -21.943  0.00  0.00    +0.016 C 
ATOM     10  C   UNL     1      36.179 -18.742 -23.400  0.00  0.00    +0.021 C 
ATOM     11  C   UNL     1      34.622 -15.330 -23.515  0.00  0.00    +0.053 C 
ATOM     12  C   UNL     1      36.004 -18.284 -21.976  0.00  0.00    +0.107 C 
ATOM     13  C   UNL     1      34.497 -14.939 -21.112  0.00  0.00    -0.004 C 
ATOM     14  C   UNL     1      35.071 -16.184 -20.854  0.00  0.00    +0.001 C 
BRANCH  12  15
ATOM     15  N   UNL     1      36.354 -19.003 -20.965  0.00  0.00    -0.135 NA
BRANCH  15  16
ATOM     16  O   UNL     1      37.695 -18.737 -20.677  0.00  0.00    -0.265 OA
ATOM     17  H   UNL     1      38.266 -19.435 -20.423  0.00  0.00    +0.247 HD
ENDBRANCH  15  16
ENDBRANCH  12  15
ENDBRANCH   4   6
BRANCH   1  19
ATOM     18  N   UNL     1      32.308  -7.671 -20.050  0.00  0.00    +0.384 N 
ATOM     19  C   UNL     1      32.172 -10.111 -21.653  0.00  0.00    +0.092 C 
ATOM     20  C   UNL     1      32.312 -10.144 -20.122  0.00  0.00    -0.002 C 
ATOM     21  C   UNL     1      32.725  -8.793 -22.216  0.00  0.00    -0.002 C 
ATOM     22  C   UNL     1      31.714  -8.887 -19.493  0.00  0.00    -0.080 C 
ATOM     23  C   UNL     1      32.109  -7.592 -21.499  0.00  0.00    -0.080 C 
ATOM     24  H   UNL     1      33.309  -7.671 -19.853  0.00  0.00    -0.085 HD
ATOM     25  H   UNL     1      31.853  -6.866 -19.621  0.00  0.00    -0.085 HD
ENDBRANCH   1  19
BRANCH   5  27
ATOM     26  N   UNL     1      34.190 -13.801 -27.822  0.00  0.00    -0.242 NA
ATOM     27  C   UNL     1      33.675 -12.963 -25.211  0.00  0.00    +0.022 C 
ATOM     28  C   UNL     1      33.250 -14.215 -25.634  0.00  0.00    +0.022 C 
ATOM     29  C   UNL     1      34.356 -12.127 -26.085  0.00  0.00    +0.022 C 
ATOM     30  C   UNL     1      33.530 -14.584 -26.939  0.00  0.00    +0.099 C 
ATOM     31  C   UNL     1      34.587 -12.590 -27.370  0.00  0.00    +0.099 C 
ENDBRANCH   5  27
TORSDOF 5
ENDMDL
