MODEL 1
REMARK VINA RESULT:     -12.2      0.000      0.000
REMARK  Name = 66555680
REMARK  4 active torsions:
REMARK  status: ('A' for Active; 'I' for Inactive)
REMARK    1  A    between atoms: N_1  and  C_8
REMARK    2  A    between atoms: C_3  and  C_22
REMARK    3  A    between atoms: C_4  and  N_18
REMARK    4  A    between atoms: C_22  and  C_24
REMARK                            x       y       z     vdW  Elec       q    Type
REMARK                         _______ _______ _______ _____ _____    ______ ____
ROOT
ATOM      1  N   UNL     1      34.605 -15.394 -23.198  0.00  0.00    -0.177 N 
ATOM      2  N   UNL     1      34.731 -15.816 -24.468  0.00  0.00    -0.171 NA
ATOM      3  C   UNL     1      35.711 -17.268 -23.002  0.00  0.00    +0.090 C 
ATOM      4  C   UNL     1      35.175 -16.228 -22.281  0.00  0.00    +0.122 C 
ATOM      5  C   UNL     1      35.406 -16.962 -24.342  0.00  0.00    +0.124 C 
ENDROOT
BRANCH   1   8
ATOM      6  N   UNL     1      33.552 -10.640 -23.941  0.00  0.00    -0.318 N 
ATOM      7  N   UNL     1      32.051 -10.554 -22.303  0.00  0.00    -0.318 N 
ATOM      8  C   UNL     1      33.936 -14.197 -22.936  0.00  0.00    +0.077 C 
ATOM      9  C   UNL     1      33.525 -11.901 -23.402  0.00  0.00    +0.060 C 
ATOM     10  C   UNL     1      34.223 -13.068 -23.710  0.00  0.00    +0.032 C 
ATOM     11  C   UNL     1      32.581 -11.821 -22.383  0.00  0.00    +0.059 C 
ATOM     12  C   UNL     1      32.994 -14.148 -21.906  0.00  0.00    +0.018 C 
ATOM     13  C   UNL     1      32.305 -12.965 -21.614  0.00  0.00    +0.017 C 
ATOM     14  C   UNL     1      32.655  -9.872 -23.251  0.00  0.00    +0.144 C 
ATOM     15  C   UNL     1      32.444  -8.452 -23.588  0.00  0.00    +0.044 C 
ATOM     16  H   UNL     1      34.116 -10.341 -24.690  0.00  0.00    +0.148 HD
ATOM     17  H   UNL     1      31.369 -10.227 -21.673  0.00  0.00    +0.148 HD
ENDBRANCH   1   8
BRANCH   4  18
ATOM     18  N   UNL     1      35.147 -15.965 -20.957  0.00  0.00    -0.344 N 
ATOM     19  H   UNL     1      34.490 -15.328 -20.595  0.00  0.00    +0.144 HD
ATOM     20  H   UNL     1      35.784 -16.411 -20.353  0.00  0.00    +0.144 HD
ENDBRANCH   4  18
BRANCH   3  22
ATOM     21  O   UNL     1      37.649 -18.562 -22.801  0.00  0.00    -0.285 OA
ATOM     22  C   UNL     1      36.452 -18.457 -22.444  0.00  0.00    +0.213 C 
BRANCH  22  24
ATOM     23  N   UNL     1      36.553 -20.147 -20.649  0.00  0.00    -0.310 N 
ATOM     24  C   UNL     1      35.852 -19.413 -21.568  0.00  0.00    +0.088 C 
ATOM     25  C   UNL     1      35.702 -20.980 -19.958  0.00  0.00    +0.048 C 
ATOM     26  C   UNL     1      34.416 -20.763 -20.460  0.00  0.00    +0.015 C 
ATOM     27  C   UNL     1      34.527 -19.772 -21.476  0.00  0.00    +0.019 C 
ATOM     28  C   UNL     1      35.968 -21.899 -18.938  0.00  0.00    +0.015 C 
ATOM     29  C   UNL     1      33.344 -21.498 -19.918  0.00  0.00    +0.001 C 
ATOM     30  C   UNL     1      34.888 -22.616 -18.416  0.00  0.00    +0.001 C 
ATOM     31  C   UNL     1      33.595 -22.420 -18.897  0.00  0.00    +0.000 C 
ATOM     32  H   UNL     1      37.525 -20.088 -20.504  0.00  0.00    +0.152 HD
ENDBRANCH  22  24
ENDBRANCH   3  22
TORSDOF 4
ENDMDL
MODEL 2
REMARK VINA RESULT:     -11.8      1.024      1.714
REMARK  Name = 66555680
REMARK  4 active torsions:
REMARK  status: ('A' for Active; 'I' for Inactive)
REMARK    1  A    between atoms: N_1  and  C_8
REMARK    2  A    between atoms: C_3  and  C_22
REMARK    3  A    between atoms: C_4  and  N_18
REMARK    4  A    between atoms: C_22  and  C_24
REMARK                            x       y       z     vdW  Elec       q    Type
REMARK                         _______ _______ _______ _____ _____    ______ ____
ROOT
ATOM      1  N   UNL     1      34.616 -15.446 -23.088  0.00  0.00    -0.177 N 
ATOM      2  N   UNL     1      34.737 -15.804 -24.378  0.00  0.00    -0.171 NA
ATOM      3  C   UNL     1      35.717 -17.330 -22.989  0.00  0.00    +0.090 C 
ATOM      4  C   UNL     1      35.186 -16.326 -22.215  0.00  0.00    +0.122 C 
ATOM      5  C   UNL     1      35.410 -16.956 -24.310  0.00  0.00    +0.124 C 
ENDROOT
BRANCH   1   8
ATOM      6  N   UNL     1      31.958 -12.501 -20.167  0.00  0.00    -0.318 N 
ATOM      7  N   UNL     1      31.924 -10.824 -21.625  0.00  0.00    -0.318 N 
ATOM      8  C   UNL     1      33.951 -14.262 -22.764  0.00  0.00    +0.077 C 
ATOM      9  C   UNL     1      32.666 -12.946 -21.254  0.00  0.00    +0.060 C 
ATOM     10  C   UNL     1      33.315 -14.151 -21.523  0.00  0.00    +0.032 C 
ATOM     11  C   UNL     1      32.630 -11.881 -22.150  0.00  0.00    +0.059 C 
ATOM     12  C   UNL     1      33.932 -13.211 -23.683  0.00  0.00    +0.018 C 
ATOM     13  C   UNL     1      33.274 -12.010 -23.393  0.00  0.00    +0.017 C 
ATOM     14  C   UNL     1      31.536 -11.229 -20.437  0.00  0.00    +0.144 C 
ATOM     15  C   UNL     1      30.741 -10.463 -19.459  0.00  0.00    +0.044 C 
ATOM     16  H   UNL     1      31.786 -13.007 -19.340  0.00  0.00    +0.148 HD
ATOM     17  H   UNL     1      31.746  -9.952 -22.048  0.00  0.00    +0.148 HD
ENDBRANCH   1   8
BRANCH   4  18
ATOM     18  N   UNL     1      35.161 -16.130 -20.879  0.00  0.00    -0.344 N 
ATOM     19  H   UNL     1      35.862 -16.523 -20.310  0.00  0.00    +0.144 HD
ATOM     20  H   UNL     1      34.442 -15.595 -20.474  0.00  0.00    +0.144 HD
ENDBRANCH   4  18
BRANCH   3  22
ATOM     21  O   UNL     1      37.622 -18.686 -22.932  0.00  0.00    -0.285 OA
ATOM     22  C   UNL     1      36.456 -18.548 -22.493  0.00  0.00    +0.213 C 
BRANCH  22  24
ATOM     23  N   UNL     1      36.611 -20.175 -20.645  0.00  0.00    -0.310 N 
ATOM     24  C   UNL     1      35.887 -19.494 -21.586  0.00  0.00    +0.088 C 
ATOM     25  C   UNL     1      35.787 -21.012 -19.926  0.00  0.00    +0.048 C 
ATOM     26  C   UNL     1      34.496 -20.852 -20.433  0.00  0.00    +0.015 C 
ATOM     27  C   UNL     1      34.574 -19.891 -21.480  0.00  0.00    +0.019 C 
ATOM     28  C   UNL     1      36.083 -21.888 -18.876  0.00  0.00    +0.015 C 
ATOM     29  C   UNL     1      33.447 -21.602 -19.866  0.00  0.00    +0.001 C 
ATOM     30  C   UNL     1      35.027 -22.622 -18.330  0.00  0.00    +0.001 C 
ATOM     31  C   UNL     1      33.728 -22.483 -18.816  0.00  0.00    +0.000 C 
ATOM     32  H   UNL     1      37.581 -20.080 -20.502  0.00  0.00    +0.152 HD
ENDBRANCH  22  24
ENDBRANCH   3  22
TORSDOF 4
ENDMDL
MODEL 3
REMARK VINA RESULT:     -11.7      2.883      5.585
REMARK  Name = 66555680
REMARK  4 active torsions:
REMARK  status: ('A' for Active; 'I' for Inactive)
REMARK    1  A    between atoms: N_1  and  C_8
REMARK    2  A    between atoms: C_3  and  C_22
REMARK    3  A    between atoms: C_4  and  N_18
REMARK    4  A    between atoms: C_22  and  C_24
REMARK                            x       y       z     vdW  Elec       q    Type
REMARK                         _______ _______ _______ _____ _____    ______ ____
ROOT
ATOM      1  N   UNL     1      35.564 -19.768 -21.068  0.00  0.00    -0.177 N 
ATOM      2  N   UNL     1      36.777 -20.044 -20.560  0.00  0.00    -0.171 NA
ATOM      3  C   UNL     1      35.185 -21.465 -19.746  0.00  0.00    +0.090 C 
ATOM      4  C   UNL     1      34.575 -20.590 -20.612  0.00  0.00    +0.122 C 
ATOM      5  C   UNL     1      36.539 -21.082 -19.753  0.00  0.00    +0.124 C 
ENDROOT
BRANCH   1   8
ATOM      6  N   UNL     1      34.844 -15.061 -22.329  0.00  0.00    -0.318 N 
ATOM      7  N   UNL     1      34.975 -15.462 -24.512  0.00  0.00    -0.318 N 
ATOM      8  C   UNL     1      35.422 -18.715 -21.974  0.00  0.00    +0.077 C 
ATOM      9  C   UNL     1      35.065 -16.410 -22.441  0.00  0.00    +0.060 C 
ATOM     10  C   UNL     1      35.199 -17.421 -21.490  0.00  0.00    +0.032 C 
ATOM     11  C   UNL     1      35.143 -16.635 -23.813  0.00  0.00    +0.059 C 
ATOM     12  C   UNL     1      35.505 -18.972 -23.344  0.00  0.00    +0.018 C 
ATOM     13  C   UNL     1      35.367 -17.941 -24.281  0.00  0.00    +0.017 C 
ATOM     14  C   UNL     1      34.799 -14.539 -23.592  0.00  0.00    +0.144 C 
ATOM     15  C   UNL     1      34.574 -13.100 -23.818  0.00  0.00    +0.044 C 
ATOM     16  H   UNL     1      34.738 -14.559 -21.489  0.00  0.00    +0.148 HD
ATOM     17  H   UNL     1      34.985 -15.339 -25.489  0.00  0.00    +0.148 HD
ENDBRANCH   1   8
BRANCH   4  18
ATOM     18  N   UNL     1      33.292 -20.462 -21.014  0.00  0.00    -0.344 N 
ATOM     19  H   UNL     1      32.559 -20.738 -20.418  0.00  0.00    +0.144 HD
ATOM     20  H   UNL     1      33.090 -20.092 -21.904  0.00  0.00    +0.144 HD
ENDBRANCH   4  18
BRANCH   3  22
ATOM     21  O   UNL     1      33.650 -23.225 -19.610  0.00  0.00    -0.285 OA
ATOM     22  C   UNL     1      34.516 -22.577 -18.977  0.00  0.00    +0.213 C 
BRANCH  22  24
ATOM     23  N   UNL     1      33.965 -23.516 -16.763  0.00  0.00    -0.310 N 
ATOM     24  C   UNL     1      34.831 -22.889 -17.619  0.00  0.00    +0.088 C 
ATOM     25  C   UNL     1      34.552 -23.677 -15.527  0.00  0.00    +0.048 C 
ATOM     26  C   UNL     1      35.835 -23.131 -15.608  0.00  0.00    +0.015 C 
ATOM     27  C   UNL     1      35.997 -22.638 -16.934  0.00  0.00    +0.019 C 
ATOM     28  C   UNL     1      34.051 -24.257 -14.357  0.00  0.00    +0.015 C 
ATOM     29  C   UNL     1      36.660 -23.166 -14.467  0.00  0.00    +0.001 C 
ATOM     30  C   UNL     1      34.887 -24.280 -13.238  0.00  0.00    +0.001 C 
ATOM     31  C   UNL     1      36.172 -23.743 -13.289  0.00  0.00    +0.000 C 
ATOM     32  H   UNL     1      33.055 -23.809 -16.996  0.00  0.00    +0.152 HD
ENDBRANCH  22  24
ENDBRANCH   3  22
TORSDOF 4
ENDMDL
MODEL 4
REMARK VINA RESULT:     -11.6      1.931      8.682
REMARK  Name = 66555680
REMARK  4 active torsions:
REMARK  status: ('A' for Active; 'I' for Inactive)
REMARK    1  A    between atoms: N_1  and  C_8
REMARK    2  A    between atoms: C_3  and  C_22
REMARK    3  A    between atoms: C_4  and  N_18
REMARK    4  A    between atoms: C_22  and  C_24
REMARK                            x       y       z     vdW  Elec       q    Type
REMARK                         _______ _______ _______ _____ _____    ______ ____
ROOT
ATOM      1  N   UNL     1      35.027 -19.055 -22.393  0.00  0.00    -0.177 N 
ATOM      2  N   UNL     1      34.793 -19.469 -23.650  0.00  0.00    -0.171 NA
ATOM      3  C   UNL     1      35.132 -17.212 -23.560  0.00  0.00    +0.090 C 
ATOM      4  C   UNL     1      35.236 -17.711 -22.285  0.00  0.00    +0.122 C 
ATOM      5  C   UNL     1      34.859 -18.338 -24.359  0.00  0.00    +0.124 C 
ENDROOT
BRANCH   1   8
ATOM      6  N   UNL     1      32.923 -22.012 -19.062  0.00  0.00    -0.318 N 
ATOM      7  N   UNL     1      34.861 -22.754 -18.265  0.00  0.00    -0.318 N 
ATOM      8  C   UNL     1      35.035 -19.988 -21.354  0.00  0.00    +0.077 C 
ATOM      9  C   UNL     1      33.889 -21.370 -19.793  0.00  0.00    +0.060 C 
ATOM     10  C   UNL     1      33.820 -20.440 -20.830  0.00  0.00    +0.032 C 
ATOM     11  C   UNL     1      35.089 -21.850 -19.276  0.00  0.00    +0.059 C 
ATOM     12  C   UNL     1      36.255 -20.451 -20.856  0.00  0.00    +0.018 C 
ATOM     13  C   UNL     1      36.301 -21.385 -19.814  0.00  0.00    +0.017 C 
ATOM     14  C   UNL     1      33.552 -22.828 -18.163  0.00  0.00    +0.144 C 
ATOM     15  C   UNL     1      32.786 -23.663 -17.220  0.00  0.00    +0.044 C 
ATOM     16  H   UNL     1      31.950 -21.906 -19.167  0.00  0.00    +0.148 HD
ATOM     17  H   UNL     1      35.531 -23.241 -17.732  0.00  0.00    +0.148 HD
ENDBRANCH   1   8
BRANCH   4  18
ATOM     18  N   UNL     1      35.487 -17.117 -21.098  0.00  0.00    -0.344 N 
ATOM     19  H   UNL     1      34.933 -17.331 -20.313  0.00  0.00    +0.144 HD
ATOM     20  H   UNL     1      36.223 -16.469 -21.018  0.00  0.00    +0.144 HD
ENDBRANCH   4  18
BRANCH   3  22
ATOM     21  O   UNL     1      36.169 -15.545 -24.832  0.00  0.00    -0.285 OA
ATOM     22  C   UNL     1      35.284 -15.769 -23.973  0.00  0.00    +0.213 C 
BRANCH  22  24
ATOM     23  N   UNL     1      33.841 -14.786 -22.230  0.00  0.00    -0.310 N 
ATOM     24  C   UNL     1      34.488 -14.712 -23.434  0.00  0.00    +0.088 C 
ATOM     25  C   UNL     1      33.157 -13.616 -21.986  0.00  0.00    +0.048 C 
ATOM     26  C   UNL     1      33.381 -12.773 -23.077  0.00  0.00    +0.015 C 
ATOM     27  C   UNL     1      34.222 -13.479 -23.983  0.00  0.00    +0.019 C 
ATOM     28  C   UNL     1      32.366 -13.242 -20.894  0.00  0.00    +0.015 C 
ATOM     29  C   UNL     1      32.788 -11.496 -23.081  0.00  0.00    +0.001 C 
ATOM     30  C   UNL     1      31.788 -11.970 -20.920  0.00  0.00    +0.001 C 
ATOM     31  C   UNL     1      31.994 -11.109 -21.996  0.00  0.00    +0.000 C 
ATOM     32  H   UNL     1      33.862 -15.563 -21.625  0.00  0.00    +0.152 HD
ENDBRANCH  22  24
ENDBRANCH   3  22
TORSDOF 4
ENDMDL
MODEL 5
REMARK VINA RESULT:     -11.5      2.803      5.516
REMARK  Name = 66555680
REMARK  4 active torsions:
REMARK  status: ('A' for Active; 'I' for Inactive)
REMARK    1  A    between atoms: N_1  and  C_8
REMARK    2  A    between atoms: C_3  and  C_22
REMARK    3  A    between atoms: C_4  and  N_18
REMARK    4  A    between atoms: C_22  and  C_24
REMARK                            x       y       z     vdW  Elec       q    Type
REMARK                         _______ _______ _______ _____ _____    ______ ____
ROOT
ATOM      1  N   UNL     1      35.497 -19.868 -21.031  0.00  0.00    -0.177 N 
ATOM      2  N   UNL     1      36.639 -20.139 -20.377  0.00  0.00    -0.171 NA
ATOM      3  C   UNL     1      35.054 -21.736 -19.990  0.00  0.00    +0.090 C 
ATOM      4  C   UNL     1      34.515 -20.794 -20.832  0.00  0.00    +0.122 C 
ATOM      5  C   UNL     1      36.362 -21.282 -19.743  0.00  0.00    +0.124 C 
ENDROOT
BRANCH   1   8
ATOM      6  N   UNL     1      34.720 -15.068 -21.816  0.00  0.00    -0.318 N 
ATOM      7  N   UNL     1      35.114 -15.200 -24.000  0.00  0.00    -0.318 N 
ATOM      8  C   UNL     1      35.413 -18.719 -21.820  0.00  0.00    +0.077 C 
ATOM      9  C   UNL     1      35.010 -16.386 -22.057  0.00  0.00    +0.060 C 
ATOM     10  C   UNL     1      35.080 -17.500 -21.220  0.00  0.00    +0.032 C 
ATOM     11  C   UNL     1      35.253 -16.442 -23.426  0.00  0.00    +0.059 C 
ATOM     12  C   UNL     1      35.661 -18.807 -23.191  0.00  0.00    +0.018 C 
ATOM     13  C   UNL     1      35.585 -17.675 -24.012  0.00  0.00    +0.017 C 
ATOM     14  C   UNL     1      34.795 -14.400 -23.007  0.00  0.00    +0.144 C 
ATOM     15  C   UNL     1      34.534 -12.951 -23.089  0.00  0.00    +0.044 C 
ATOM     16  H   UNL     1      34.498 -14.673 -20.942  0.00  0.00    +0.148 HD
ATOM     17  H   UNL     1      35.229 -14.960 -24.948  0.00  0.00    +0.148 HD
ENDBRANCH   1   8
BRANCH   4  18
ATOM     18  N   UNL     1      33.299 -20.687 -21.410  0.00  0.00    -0.344 N 
ATOM     19  H   UNL     1      32.486 -20.872 -20.887  0.00  0.00    +0.144 HD
ATOM     20  H   UNL     1      33.225 -20.423 -22.356  0.00  0.00    +0.144 HD
ENDBRANCH   4  18
BRANCH   3  22
ATOM     21  O   UNL     1      34.466 -23.992 -20.189  0.00  0.00    -0.285 OA
ATOM     22  C   UNL     1      34.363 -22.971 -19.468  0.00  0.00    +0.213 C 
BRANCH  22  24
ATOM     23  N   UNL     1      32.281 -22.804 -18.154  0.00  0.00    -0.310 N 
ATOM     24  C   UNL     1      33.633 -23.001 -18.240  0.00  0.00    +0.088 C 
ATOM     25  C   UNL     1      31.871 -22.890 -16.842  0.00  0.00    +0.048 C 
ATOM     26  C   UNL     1      33.007 -23.152 -16.073  0.00  0.00    +0.015 C 
ATOM     27  C   UNL     1      34.112 -23.219 -16.969  0.00  0.00    +0.019 C 
ATOM     28  C   UNL     1      30.595 -22.759 -16.284  0.00  0.00    +0.015 C 
ATOM     29  C   UNL     1      32.865 -23.290 -14.679  0.00  0.00    +0.001 C 
ATOM     30  C   UNL     1      30.478 -22.900 -14.899  0.00  0.00    +0.001 C 
ATOM     31  C   UNL     1      31.595 -23.161 -14.106  0.00  0.00    +0.000 C 
ATOM     32  H   UNL     1      31.688 -22.625 -18.919  0.00  0.00    +0.152 HD
ENDBRANCH  22  24
ENDBRANCH   3  22
TORSDOF 4
ENDMDL
MODEL 6
REMARK VINA RESULT:     -11.1      2.775     10.274
REMARK  Name = 66555680
REMARK  4 active torsions:
REMARK  status: ('A' for Active; 'I' for Inactive)
REMARK    1  A    between atoms: N_1  and  C_8
REMARK    2  A    between atoms: C_3  and  C_22
REMARK    3  A    between atoms: C_4  and  N_18
REMARK    4  A    between atoms: C_22  and  C_24
REMARK                            x       y       z     vdW  Elec       q    Type
REMARK                         _______ _______ _______ _____ _____    ______ ____
ROOT
ATOM      1  N   UNL     1      34.156 -13.637 -23.619  0.00  0.00    -0.177 N 
ATOM      2  N   UNL     1      34.615 -12.855 -24.611  0.00  0.00    -0.171 NA
ATOM      3  C   UNL     1      33.169 -11.723 -23.252  0.00  0.00    +0.090 C 
ATOM      4  C   UNL     1      33.286 -13.007 -22.777  0.00  0.00    +0.122 C 
ATOM      5  C   UNL     1      34.009 -11.687 -24.381  0.00  0.00    +0.124 C 
ENDROOT
BRANCH   1   8
ATOM      6  N   UNL     1      35.769 -17.643 -21.250  0.00  0.00    -0.318 N 
ATOM      7  N   UNL     1      35.883 -18.880 -23.093  0.00  0.00    -0.318 N 
ATOM      8  C   UNL     1      34.585 -14.963 -23.536  0.00  0.00    +0.077 C 
ATOM      9  C   UNL     1      35.359 -16.822 -22.268  0.00  0.00    +0.060 C 
ATOM     10  C   UNL     1      34.937 -15.492 -22.290  0.00  0.00    +0.032 C 
ATOM     11  C   UNL     1      35.439 -17.617 -23.407  0.00  0.00    +0.059 C 
ATOM     12  C   UNL     1      34.655 -15.736 -24.697  0.00  0.00    +0.018 C 
ATOM     13  C   UNL     1      35.081 -17.069 -24.651  0.00  0.00    +0.017 C 
ATOM     14  C   UNL     1      36.071 -18.861 -21.792  0.00  0.00    +0.144 C 
ATOM     15  C   UNL     1      36.547 -19.976 -20.953  0.00  0.00    +0.044 C 
ATOM     16  H   UNL     1      35.834 -17.399 -20.298  0.00  0.00    +0.148 HD
ATOM     17  H   UNL     1      36.029 -19.635 -23.708  0.00  0.00    +0.148 HD
ENDBRANCH   1   8
BRANCH   4  18
ATOM     18  N   UNL     1      32.724 -13.636 -21.723  0.00  0.00    -0.344 N 
ATOM     19  H   UNL     1      33.266 -13.851 -20.930  0.00  0.00    +0.144 HD
ATOM     20  H   UNL     1      31.771 -13.882 -21.748  0.00  0.00    +0.144 HD
ENDBRANCH   4  18
BRANCH   3  22
ATOM     21  O   UNL     1      31.518 -10.983 -21.769  0.00  0.00    -0.285 OA
ATOM     22  C   UNL     1      32.318 -10.625 -22.665  0.00  0.00    +0.213 C 
BRANCH  22  24
ATOM     23  N   UNL     1      33.556  -8.664 -23.510  0.00  0.00    -0.310 N 
ATOM     24  C   UNL     1      32.399  -9.262 -23.086  0.00  0.00    +0.088 C 
ATOM     25  C   UNL     1      33.316  -7.351 -23.846  0.00  0.00    +0.048 C 
ATOM     26  C   UNL     1      31.958  -7.111 -23.626  0.00  0.00    +0.015 C 
ATOM     27  C   UNL     1      31.392  -8.326 -23.146  0.00  0.00    +0.019 C 
ATOM     28  C   UNL     1      34.188  -6.366 -24.323  0.00  0.00    +0.015 C 
ATOM     29  C   UNL     1      31.444  -5.828 -23.896  0.00  0.00    +0.001 C 
ATOM     30  C   UNL     1      33.656  -5.101 -24.584  0.00  0.00    +0.001 C 
ATOM     31  C   UNL     1      32.304  -4.834 -24.374  0.00  0.00    +0.000 C 
ATOM     32  H   UNL     1      34.432  -9.109 -23.566  0.00  0.00    +0.152 HD
ENDBRANCH  22  24
ENDBRANCH   3  22
TORSDOF 4
ENDMDL
MODEL 7
REMARK VINA RESULT:     -11.0      2.935      5.471
REMARK  Name = 66555680
REMARK  4 active torsions:
REMARK  status: ('A' for Active; 'I' for Inactive)
REMARK    1  A    between atoms: N_1  and  C_8
REMARK    2  A    between atoms: C_3  and  C_22
REMARK    3  A    between atoms: C_4  and  N_18
REMARK    4  A    between atoms: C_22  and  C_24
REMARK                            x       y       z     vdW  Elec       q    Type
REMARK                         _______ _______ _______ _____ _____    ______ ____
ROOT
ATOM      1  N   UNL     1      32.626 -10.737 -22.715  0.00  0.00    -0.177 N 
ATOM      2  N   UNL     1      31.927 -11.685 -22.068  0.00  0.00    -0.171 NA
ATOM      3  C   UNL     1      33.341 -12.596 -23.614  0.00  0.00    +0.090 C 
ATOM      4  C   UNL     1      33.487 -11.230 -23.652  0.00  0.00    +0.122 C 
ATOM      5  C   UNL     1      32.369 -12.818 -22.621  0.00  0.00    +0.124 C 
ENDROOT
BRANCH   1   8
ATOM      6  N   UNL     1      31.405  -6.069 -23.703  0.00  0.00    -0.318 N 
ATOM      7  N   UNL     1      31.767  -5.368 -21.624  0.00  0.00    -0.318 N 
ATOM      8  C   UNL     1      32.422  -9.394 -22.393  0.00  0.00    +0.077 C 
ATOM      9  C   UNL     1      31.808  -7.179 -23.007  0.00  0.00    +0.060 C 
ATOM     10  C   UNL     1      31.993  -8.509 -23.387  0.00  0.00    +0.032 C 
ATOM     11  C   UNL     1      32.028  -6.716 -21.713  0.00  0.00    +0.059 C 
ATOM     12  C   UNL     1      32.652  -8.959 -21.086  0.00  0.00    +0.018 C 
ATOM     13  C   UNL     1      32.459  -7.620 -20.727  0.00  0.00    +0.017 C 
ATOM     14  C   UNL     1      31.396  -5.013 -22.834  0.00  0.00    +0.144 C 
ATOM     15  C   UNL     1      31.004  -3.661 -23.275  0.00  0.00    +0.044 C 
ATOM     16  H   UNL     1      31.163  -6.037 -24.657  0.00  0.00    +0.148 HD
ATOM     17  H   UNL     1      31.842  -4.794 -20.828  0.00  0.00    +0.148 HD
ENDBRANCH   1   8
BRANCH   4  18
ATOM     18  N   UNL     1      34.271 -10.425 -24.400  0.00  0.00    -0.344 N 
ATOM     19  H   UNL     1      33.866  -9.814 -25.057  0.00  0.00    +0.144 HD
ATOM     20  H   UNL     1      35.249 -10.449 -24.289  0.00  0.00    +0.144 HD
ENDBRANCH   4  18
BRANCH   3  22
ATOM     21  O   UNL     1      34.302 -13.246 -25.645  0.00  0.00    -0.285 OA
ATOM     22  C   UNL     1      34.078 -13.600 -24.463  0.00  0.00    +0.213 C 
BRANCH  22  24
ATOM     23  N   UNL     1      34.531 -16.009 -24.745  0.00  0.00    -0.310 N 
ATOM     24  C   UNL     1      34.503 -14.875 -23.978  0.00  0.00    +0.088 C 
ATOM     25  C   UNL     1      34.983 -17.075 -23.999  0.00  0.00    +0.048 C 
ATOM     26  C   UNL     1      35.250 -16.595 -22.715  0.00  0.00    +0.015 C 
ATOM     27  C   UNL     1      34.942 -15.205 -22.717  0.00  0.00    +0.019 C 
ATOM     28  C   UNL     1      35.174 -18.413 -24.359  0.00  0.00    +0.015 C 
ATOM     29  C   UNL     1      35.732 -17.491 -21.742  0.00  0.00    +0.001 C 
ATOM     30  C   UNL     1      35.653 -19.284 -23.378  0.00  0.00    +0.001 C 
ATOM     31  C   UNL     1      35.928 -18.833 -22.088  0.00  0.00    +0.000 C 
ATOM     32  H   UNL     1      34.266 -16.056 -25.692  0.00  0.00    +0.152 HD
ENDBRANCH  22  24
ENDBRANCH   3  22
TORSDOF 4
ENDMDL
MODEL 8
REMARK VINA RESULT:     -11.0      3.530     10.909
REMARK  Name = 66555680
REMARK  4 active torsions:
REMARK  status: ('A' for Active; 'I' for Inactive)
REMARK    1  A    between atoms: N_1  and  C_8
REMARK    2  A    between atoms: C_3  and  C_22
REMARK    3  A    between atoms: C_4  and  N_18
REMARK    4  A    between atoms: C_22  and  C_24
REMARK                            x       y       z     vdW  Elec       q    Type
REMARK                         _______ _______ _______ _____ _____    ______ ____
ROOT
ATOM      1  N   UNL     1      33.844 -12.229 -24.054  0.00  0.00    -0.177 N 
ATOM      2  N   UNL     1      34.597 -11.302 -24.670  0.00  0.00    -0.171 NA
ATOM      3  C   UNL     1      33.080 -10.345 -23.256  0.00  0.00    +0.090 C 
ATOM      4  C   UNL     1      32.920 -11.708 -23.196  0.00  0.00    +0.122 C 
ATOM      5  C   UNL     1      34.126 -10.153 -24.178  0.00  0.00    +0.124 C 
ENDROOT
BRANCH   1   8
ATOM      6  N   UNL     1      35.528 -16.751 -23.061  0.00  0.00    -0.318 N 
ATOM      7  N   UNL     1      34.791 -17.615 -24.972  0.00  0.00    -0.318 N 
ATOM      8  C   UNL     1      34.059 -13.581 -24.329  0.00  0.00    +0.077 C 
ATOM      9  C   UNL     1      34.922 -15.714 -23.724  0.00  0.00    +0.060 C 
ATOM     10  C   UNL     1      34.736 -14.371 -23.395  0.00  0.00    +0.032 C 
ATOM     11  C   UNL     1      34.471 -16.279 -24.913  0.00  0.00    +0.059 C 
ATOM     12  C   UNL     1      33.595 -14.120 -25.531  0.00  0.00    +0.018 C 
ATOM     13  C   UNL     1      33.793 -15.471 -25.841  0.00  0.00    +0.017 C 
ATOM     14  C   UNL     1      35.423 -17.865 -23.847  0.00  0.00    +0.144 C 
ATOM     15  C   UNL     1      35.979 -19.161 -23.416  0.00  0.00    +0.044 C 
ATOM     16  H   UNL     1      35.959 -16.702 -22.178  0.00  0.00    +0.148 HD
ATOM     17  H   UNL     1      34.591 -18.248 -25.700  0.00  0.00    +0.148 HD
ENDBRANCH   1   8
BRANCH   4  18
ATOM     18  N   UNL     1      32.076 -12.490 -22.489  0.00  0.00    -0.344 N 
ATOM     19  H   UNL     1      31.342 -12.083 -21.975  0.00  0.00    +0.144 HD
ATOM     20  H   UNL     1      32.195 -13.467 -22.488  0.00  0.00    +0.144 HD
ENDBRANCH   4  18
BRANCH   3  22
ATOM     21  O   UNL     1      31.731  -9.733 -21.446  0.00  0.00    -0.285 OA
ATOM     22  C   UNL     1      32.291  -9.315 -22.486  0.00  0.00    +0.213 C 
BRANCH  22  24
ATOM     23  N   UNL     1      32.890  -7.403 -23.926  0.00  0.00    -0.310 N 
ATOM     24  C   UNL     1      32.173  -7.952 -22.896  0.00  0.00    +0.088 C 
ATOM     25  C   UNL     1      32.559  -6.075 -24.079  0.00  0.00    +0.048 C 
ATOM     26  C   UNL     1      31.599  -5.776 -23.110  0.00  0.00    +0.015 C 
ATOM     27  C   UNL     1      31.365  -6.970 -22.371  0.00  0.00    +0.019 C 
ATOM     28  C   UNL     1      33.032  -5.125 -24.991  0.00  0.00    +0.015 C 
ATOM     29  C   UNL     1      31.083  -4.467 -23.048  0.00  0.00    +0.001 C 
ATOM     30  C   UNL     1      32.506  -3.833 -24.911  0.00  0.00    +0.001 C 
ATOM     31  C   UNL     1      31.546  -3.507 -23.954  0.00  0.00    +0.000 C 
ATOM     32  H   UNL     1      33.547  -7.887 -24.476  0.00  0.00    +0.152 HD
ENDBRANCH  22  24
ENDBRANCH   3  22
TORSDOF 4
ENDMDL
MODEL 9
REMARK VINA RESULT:     -10.9      2.725      9.766
REMARK  Name = 66555680
REMARK  4 active torsions:
REMARK  status: ('A' for Active; 'I' for Inactive)
REMARK    1  A    between atoms: N_1  and  C_8
REMARK    2  A    between atoms: C_3  and  C_22
REMARK    3  A    between atoms: C_4  and  N_18
REMARK    4  A    between atoms: C_22  and  C_24
REMARK                            x       y       z     vdW  Elec       q    Type
REMARK                         _______ _______ _______ _____ _____    ______ ____
ROOT
ATOM      1  N   UNL     1      34.752 -21.174 -19.842  0.00  0.00    -0.177 N 
ATOM      2  N   UNL     1      33.649 -20.996 -20.590  0.00  0.00    -0.171 NA
ATOM      3  C   UNL     1      35.404 -19.764 -21.378  0.00  0.00    +0.090 C 
ATOM      4  C   UNL     1      35.831 -20.458 -20.271  0.00  0.00    +0.122 C 
ATOM      5  C   UNL     1      34.055 -20.134 -21.527  0.00  0.00    +0.124 C 
ENDROOT
BRANCH   1   8
ATOM      6  N   UNL     1      36.617 -23.410 -15.869  0.00  0.00    -0.318 N 
ATOM      7  N   UNL     1      34.751 -24.537 -15.432  0.00  0.00    -0.318 N 
ATOM      8  C   UNL     1      34.704 -22.032 -18.742  0.00  0.00    +0.077 C 
ATOM      9  C   UNL     1      35.730 -23.041 -16.847  0.00  0.00    +0.060 C 
ATOM     10  C   UNL     1      35.835 -22.169 -17.930  0.00  0.00    +0.032 C 
ATOM     11  C   UNL     1      34.573 -23.758 -16.553  0.00  0.00    +0.059 C 
ATOM     12  C   UNL     1      33.530 -22.739 -18.472  0.00  0.00    +0.018 C 
ATOM     13  C   UNL     1      33.446 -23.609 -17.378  0.00  0.00    +0.017 C 
ATOM     14  C   UNL     1      35.987 -24.304 -15.048  0.00  0.00    +0.144 C 
ATOM     15  C   UNL     1      36.676 -24.895 -13.887  0.00  0.00    +0.044 C 
ATOM     16  H   UNL     1      37.543 -23.087 -15.774  0.00  0.00    +0.148 HD
ATOM     17  H   UNL     1      34.097 -25.139 -15.010  0.00  0.00    +0.148 HD
ENDBRANCH   1   8
BRANCH   4  18
ATOM     18  N   UNL     1      37.025 -20.512 -19.642  0.00  0.00    -0.344 N 
ATOM     19  H   UNL     1      37.858 -20.538 -20.167  0.00  0.00    +0.144 HD
ATOM     20  H   UNL     1      37.063 -20.526 -18.659  0.00  0.00    +0.144 HD
ENDBRANCH   4  18
BRANCH   3  22
ATOM     21  O   UNL     1      37.469 -19.008 -22.175  0.00  0.00    -0.285 OA
ATOM     22  C   UNL     1      36.230 -18.824 -22.220  0.00  0.00    +0.213 C 
BRANCH  22  24
ATOM     23  N   UNL     1      35.489 -16.499 -22.586  0.00  0.00    -0.310 N 
ATOM     24  C   UNL     1      35.662 -17.786 -23.020  0.00  0.00    +0.088 C 
ATOM     25  C   UNL     1      34.920 -15.735 -23.580  0.00  0.00    +0.048 C 
ATOM     26  C   UNL     1      34.727 -16.571 -24.682  0.00  0.00    +0.015 C 
ATOM     27  C   UNL     1      35.200 -17.863 -24.314  0.00  0.00    +0.019 C 
ATOM     28  C   UNL     1      34.564 -14.382 -23.588  0.00  0.00    +0.015 C 
ATOM     29  C   UNL     1      34.152 -16.033 -25.849  0.00  0.00    +0.001 C 
ATOM     30  C   UNL     1      33.996 -13.870 -24.758  0.00  0.00    +0.001 C 
ATOM     31  C   UNL     1      33.792 -14.681 -25.872  0.00  0.00    +0.000 C 
ATOM     32  H   UNL     1      35.736 -16.168 -21.692  0.00  0.00    +0.152 HD
ENDBRANCH  22  24
ENDBRANCH   3  22
TORSDOF 4
ENDMDL
