MODEL 1
REMARK VINA RESULT:     -11.1      0.000      0.000
REMARK  Name = 25052630
REMARK  6 active torsions:
REMARK  status: ('A' for Active; 'I' for Inactive)
REMARK    1  A    between atoms: N_2  and  C_11
REMARK    2  A    between atoms: C_4  and  C_20
REMARK    3  A    between atoms: C_20  and  C_21
REMARK    4  A    between atoms: C_21  and  N_22
REMARK    5  A    between atoms: N_22  and  C_25
REMARK    6  A    between atoms: C_25  and  C_26
REMARK                            x       y       z     vdW  Elec       q    Type
REMARK                         _______ _______ _______ _____ _____    ______ ____
ROOT
ATOM      1  S   UNL     1      37.478 -26.918 -13.847  0.00  0.00    -0.018 S 
ATOM      2  N   UNL     1      36.706 -24.564 -15.153  0.00  0.00    -0.270 N 
ATOM      3  N   UNL     1      38.914 -24.998 -15.147  0.00  0.00    -0.294 N 
ATOM      4  C   UNL     1      37.385 -23.553 -15.830  0.00  0.00    +0.043 C 
ATOM      5  C   UNL     1      37.673 -25.510 -14.703  0.00  0.00    +0.142 C 
ATOM      6  C   UNL     1      38.699 -23.824 -15.818  0.00  0.00    +0.074 C 
ATOM      7  H   UNL     1      39.792 -25.418 -14.997  0.00  0.00    +0.154 HD
ENDROOT
BRANCH   2  11
ATOM      8  F   UNL     1      30.871 -23.920 -12.805  0.00  0.00    -0.201 F 
ATOM      9  F   UNL     1      29.997 -22.534 -17.240  0.00  0.00    -0.204 F 
ATOM     10  O   UNL     1      33.476 -24.249 -13.342  0.00  0.00    -0.472 OA
ATOM     11  C   UNL     1      35.278 -24.599 -14.969  0.00  0.00    +0.127 C 
ATOM     12  C   UNL     1      34.565 -23.756 -16.023  0.00  0.00    +0.054 C 
ATOM     13  C   UNL     1      34.879 -24.096 -13.586  0.00  0.00    +0.226 C 
ATOM     14  C   UNL     1      33.118 -23.574 -15.662  0.00  0.00    +0.018 C 
ATOM     15  C   UNL     1      32.665 -23.817 -14.359  0.00  0.00    +0.162 C 
ATOM     16  C   UNL     1      32.207 -23.131 -16.631  0.00  0.00    +0.029 C 
ATOM     17  C   UNL     1      31.313 -23.656 -14.041  0.00  0.00    +0.176 C 
ATOM     18  C   UNL     1      30.860 -22.959 -16.307  0.00  0.00    +0.142 C 
ATOM     19  C   UNL     1      30.414 -23.225 -15.015  0.00  0.00    +0.062 C 
ENDBRANCH   2  11
BRANCH   4  20
ATOM     20  C   UNL     1      36.697 -22.390 -16.441  0.00  0.00    +0.019 C 
BRANCH  20  21
ATOM     21  C   UNL     1      37.693 -21.324 -16.898  0.00  0.00    -0.075 C 
BRANCH  21  22
ATOM     22  N   UNL     1      37.241 -20.698 -18.135  0.00  0.00    +0.387 N 
ATOM     23  H   UNL     1      38.015 -20.178 -18.547  0.00  0.00    -0.084 HD
ATOM     24  H   UNL     1      36.466 -20.072 -17.919  0.00  0.00    -0.084 HD
BRANCH  22  25
ATOM     25  C   UNL     1      36.779 -21.700 -19.085  0.00  0.00    -0.054 C 
BRANCH  25  26
ATOM     26  C   UNL     1      35.497 -21.287 -19.756  0.00  0.00    -0.044 C 
ATOM     27  C   UNL     1      34.283 -21.837 -19.341  0.00  0.00    -0.006 C 
ATOM     28  C   UNL     1      35.521 -20.354 -20.792  0.00  0.00    -0.006 C 
ATOM     29  C   UNL     1      33.095 -21.454 -19.962  0.00  0.00    -0.000 C 
ATOM     30  C   UNL     1      34.331 -19.971 -21.414  0.00  0.00    -0.000 C 
ATOM     31  C   UNL     1      33.119 -20.521 -20.998  0.00  0.00    -0.000 C 
ENDBRANCH  25  26
ENDBRANCH  22  25
ENDBRANCH  21  22
ENDBRANCH  20  21
ENDBRANCH   4  20
TORSDOF 6
ENDMDL
MODEL 2
REMARK VINA RESULT:     -10.9      8.550     12.098
REMARK  Name = 25052630
REMARK  6 active torsions:
REMARK  status: ('A' for Active; 'I' for Inactive)
REMARK    1  A    between atoms: N_2  and  C_11
REMARK    2  A    between atoms: C_4  and  C_20
REMARK    3  A    between atoms: C_20  and  C_21
REMARK    4  A    between atoms: C_21  and  N_22
REMARK    5  A    between atoms: N_22  and  C_25
REMARK    6  A    between atoms: C_25  and  C_26
REMARK                            x       y       z     vdW  Elec       q    Type
REMARK                         _______ _______ _______ _____ _____    ______ ____
ROOT
ATOM      1  S   UNL     1      33.395 -13.921 -27.050  0.00  0.00    -0.018 S 
ATOM      2  N   UNL     1      34.340 -14.669 -24.523  0.00  0.00    -0.270 N 
ATOM      3  N   UNL     1      34.447 -16.256 -26.114  0.00  0.00    -0.294 N 
ATOM      4  C   UNL     1      34.884 -15.834 -23.986  0.00  0.00    +0.043 C 
ATOM      5  C   UNL     1      34.050 -14.917 -25.896  0.00  0.00    +0.142 C 
ATOM      6  C   UNL     1      34.942 -16.772 -24.945  0.00  0.00    +0.074 C 
ATOM      7  H   UNL     1      34.379 -16.741 -26.968  0.00  0.00    +0.154 HD
ENDROOT
BRANCH   2  11
ATOM      8  F   UNL     1      33.242  -8.661 -22.887  0.00  0.00    -0.201 F 
ATOM      9  F   UNL     1      30.405 -10.771 -19.747  0.00  0.00    -0.204 F 
ATOM     10  O   UNL     1      33.928 -11.018 -23.962  0.00  0.00    -0.472 OA
ATOM     11  C   UNL     1      34.129 -13.456 -23.776  0.00  0.00    +0.127 C 
ATOM     12  C   UNL     1      32.872 -13.549 -22.914  0.00  0.00    +0.054 C 
ATOM     13  C   UNL     1      34.005 -12.246 -24.695  0.00  0.00    +0.226 C 
ATOM     14  C   UNL     1      32.512 -12.199 -22.361  0.00  0.00    +0.018 C 
ATOM     15  C   UNL     1      33.044 -11.028 -22.915  0.00  0.00    +0.162 C 
ATOM     16  C   UNL     1      31.611 -12.102 -21.292  0.00  0.00    +0.029 C 
ATOM     17  C   UNL     1      32.708  -9.781 -22.381  0.00  0.00    +0.176 C 
ATOM     18  C   UNL     1      31.268 -10.854 -20.769  0.00  0.00    +0.142 C 
ATOM     19  C   UNL     1      31.820  -9.695 -21.310  0.00  0.00    +0.062 C 
ENDBRANCH   2  11
BRANCH   4  20
ATOM     20  C   UNL     1      35.310 -15.948 -22.570  0.00  0.00    +0.019 C 
BRANCH  20  21
ATOM     21  C   UNL     1      36.052 -17.259 -22.310  0.00  0.00    -0.075 C 
BRANCH  21  22
ATOM     22  N   UNL     1      35.318 -18.081 -21.355  0.00  0.00    +0.387 N 
ATOM     23  H   UNL     1      34.440 -17.618 -21.121  0.00  0.00    -0.084 HD
ATOM     24  H   UNL     1      35.891 -18.200 -20.520  0.00  0.00    -0.084 HD
BRANCH  22  25
ATOM     25  C   UNL     1      35.031 -19.394 -21.914  0.00  0.00    -0.054 C 
BRANCH  25  26
ATOM     26  C   UNL     1      34.874 -20.439 -20.842  0.00  0.00    -0.044 C 
ATOM     27  C   UNL     1      33.599 -20.857 -20.457  0.00  0.00    -0.006 C 
ATOM     28  C   UNL     1      36.002 -20.990 -20.235  0.00  0.00    -0.006 C 
ATOM     29  C   UNL     1      33.454 -21.825 -19.464  0.00  0.00    -0.000 C 
ATOM     30  C   UNL     1      35.855 -21.959 -19.241  0.00  0.00    -0.000 C 
ATOM     31  C   UNL     1      34.581 -22.376 -18.856  0.00  0.00    -0.000 C 
ENDBRANCH  25  26
ENDBRANCH  22  25
ENDBRANCH  21  22
ENDBRANCH  20  21
ENDBRANCH   4  20
TORSDOF 6
ENDMDL
MODEL 3
REMARK VINA RESULT:     -10.0      1.736      2.274
REMARK  Name = 25052630
REMARK  6 active torsions:
REMARK  status: ('A' for Active; 'I' for Inactive)
REMARK    1  A    between atoms: N_2  and  C_11
REMARK    2  A    between atoms: C_4  and  C_20
REMARK    3  A    between atoms: C_20  and  C_21
REMARK    4  A    between atoms: C_21  and  N_22
REMARK    5  A    between atoms: N_22  and  C_25
REMARK    6  A    between atoms: C_25  and  C_26
REMARK                            x       y       z     vdW  Elec       q    Type
REMARK                         _______ _______ _______ _____ _____    ______ ____
ROOT
ATOM      1  S   UNL     1      35.435 -24.632 -12.121  0.00  0.00    -0.018 S 
ATOM      2  N   UNL     1      35.290 -23.762 -14.778  0.00  0.00    -0.270 N 
ATOM      3  N   UNL     1      37.197 -23.268 -13.692  0.00  0.00    -0.294 N 
ATOM      4  C   UNL     1      36.148 -23.068 -15.629  0.00  0.00    +0.043 C 
ATOM      5  C   UNL     1      35.946 -23.904 -13.521  0.00  0.00    +0.142 C 
ATOM      6  C   UNL     1      37.280 -22.780 -14.969  0.00  0.00    +0.074 C 
ATOM      7  H   UNL     1      37.897 -23.188 -13.003  0.00  0.00    +0.154 HD
ENDROOT
BRANCH   2  11
ATOM      8  F   UNL     1      29.475 -26.244 -14.694  0.00  0.00    -0.201 F 
ATOM      9  F   UNL     1      28.564 -22.416 -17.315  0.00  0.00    -0.204 F 
ATOM     10  O   UNL     1      32.038 -25.518 -14.391  0.00  0.00    -0.472 OA
ATOM     11  C   UNL     1      33.981 -24.231 -15.154  0.00  0.00    +0.127 C 
ATOM     12  C   UNL     1      33.100 -23.081 -15.636  0.00  0.00    +0.054 C 
ATOM     13  C   UNL     1      33.282 -24.932 -13.994  0.00  0.00    +0.226 C 
ATOM     14  C   UNL     1      31.671 -23.528 -15.760  0.00  0.00    +0.018 C 
ATOM     15  C   UNL     1      31.225 -24.698 -15.131  0.00  0.00    +0.162 C 
ATOM     16  C   UNL     1      30.759 -22.756 -16.491  0.00  0.00    +0.029 C 
ATOM     17  C   UNL     1      29.896 -25.108 -15.266  0.00  0.00    +0.176 C 
ATOM     18  C   UNL     1      29.429 -23.161 -16.614  0.00  0.00    +0.142 C 
ATOM     19  C   UNL     1      28.999 -24.338 -16.005  0.00  0.00    +0.062 C 
ENDBRANCH   2  11
BRANCH   4  20
ATOM     20  C   UNL     1      35.797 -22.736 -17.032  0.00  0.00    +0.019 C 
BRANCH  20  21
ATOM     21  C   UNL     1      36.815 -21.780 -17.653  0.00  0.00    -0.075 C 
BRANCH  21  22
ATOM     22  N   UNL     1      36.812 -21.903 -19.106  0.00  0.00    +0.387 N 
ATOM     23  H   UNL     1      36.928 -22.884 -19.358  0.00  0.00    -0.084 HD
ATOM     24  H   UNL     1      37.578 -21.346 -19.482  0.00  0.00    -0.084 HD
BRANCH  22  25
ATOM     25  C   UNL     1      35.560 -21.412 -19.666  0.00  0.00    -0.054 C 
BRANCH  25  26
ATOM     26  C   UNL     1      35.792 -20.398 -20.755  0.00  0.00    -0.044 C 
ATOM     27  C   UNL     1      34.761 -20.077 -21.639  0.00  0.00    -0.006 C 
ATOM     28  C   UNL     1      37.035 -19.779 -20.877  0.00  0.00    -0.006 C 
ATOM     29  C   UNL     1      34.976 -19.138 -22.647  0.00  0.00    -0.000 C 
ATOM     30  C   UNL     1      37.249 -18.838 -21.886  0.00  0.00    -0.000 C 
ATOM     31  C   UNL     1      36.219 -18.518 -22.771  0.00  0.00    -0.000 C 
ENDBRANCH  25  26
ENDBRANCH  22  25
ENDBRANCH  21  22
ENDBRANCH  20  21
ENDBRANCH   4  20
TORSDOF 6
ENDMDL
MODEL 4
REMARK VINA RESULT:      -9.9      3.342      5.337
REMARK  Name = 25052630
REMARK  6 active torsions:
REMARK  status: ('A' for Active; 'I' for Inactive)
REMARK    1  A    between atoms: N_2  and  C_11
REMARK    2  A    between atoms: C_4  and  C_20
REMARK    3  A    between atoms: C_20  and  C_21
REMARK    4  A    between atoms: C_21  and  N_22
REMARK    5  A    between atoms: N_22  and  C_25
REMARK    6  A    between atoms: C_25  and  C_26
REMARK                            x       y       z     vdW  Elec       q    Type
REMARK                         _______ _______ _______ _____ _____    ______ ____
ROOT
ATOM      1  S   UNL     1      31.751 -24.999 -13.572  0.00  0.00    -0.018 S 
ATOM      2  N   UNL     1      33.363 -23.820 -15.534  0.00  0.00    -0.270 N 
ATOM      3  N   UNL     1      31.179 -24.000 -16.045  0.00  0.00    -0.294 N 
ATOM      4  C   UNL     1      33.134 -23.295 -16.804  0.00  0.00    +0.043 C 
ATOM      5  C   UNL     1      32.115 -24.282 -15.023  0.00  0.00    +0.142 C 
ATOM      6  C   UNL     1      31.828 -23.409 -17.095  0.00  0.00    +0.074 C 
ATOM      7  H   UNL     1      30.215 -24.198 -16.007  0.00  0.00    +0.154 HD
ENDROOT
BRANCH   2  11
ATOM      8  F   UNL     1      38.038 -24.469 -11.326  0.00  0.00    -0.201 F 
ATOM      9  F   UNL     1      40.049 -26.727 -14.960  0.00  0.00    -0.204 F 
ATOM     10  O   UNL     1      35.798 -24.043 -12.735  0.00  0.00    -0.472 OA
ATOM     11  C   UNL     1      34.655 -23.864 -14.898  0.00  0.00    +0.127 C 
ATOM     12  C   UNL     1      35.539 -24.943 -15.517  0.00  0.00    +0.054 C 
ATOM     13  C   UNL     1      34.533 -24.128 -13.401  0.00  0.00    +0.226 C 
ATOM     14  C   UNL     1      36.764 -25.167 -14.676  0.00  0.00    +0.018 C 
ATOM     15  C   UNL     1      36.818 -24.720 -13.349  0.00  0.00    +0.162 C 
ATOM     16  C   UNL     1      37.862 -25.854 -15.211  0.00  0.00    +0.029 C 
ATOM     17  C   UNL     1      37.970 -24.925 -12.584  0.00  0.00    +0.176 C 
ATOM     18  C   UNL     1      39.005 -26.068 -14.440  0.00  0.00    +0.142 C 
ATOM     19  C   UNL     1      39.060 -25.600 -13.130  0.00  0.00    +0.062 C 
ENDBRANCH   2  11
BRANCH   4  20
ATOM     20  C   UNL     1      34.210 -22.716 -17.644  0.00  0.00    +0.019 C 
BRANCH  20  21
ATOM     21  C   UNL     1      33.881 -22.825 -19.133  0.00  0.00    -0.075 C 
BRANCH  21  22
ATOM     22  N   UNL     1      34.117 -21.551 -19.803  0.00  0.00    +0.387 N 
ATOM     23  H   UNL     1      33.673 -20.805 -19.268  0.00  0.00    -0.084 HD
ATOM     24  H   UNL     1      33.722 -21.599 -20.742  0.00  0.00    -0.084 HD
BRANCH  22  25
ATOM     25  C   UNL     1      35.543 -21.279 -19.912  0.00  0.00    -0.054 C 
BRANCH  25  26
ATOM     26  C   UNL     1      35.840 -20.262 -20.982  0.00  0.00    -0.044 C 
ATOM     27  C   UNL     1      34.880 -19.968 -21.950  0.00  0.00    -0.006 C 
ATOM     28  C   UNL     1      37.074 -19.613 -21.003  0.00  0.00    -0.006 C 
ATOM     29  C   UNL     1      35.155 -19.026 -22.941  0.00  0.00    -0.000 C 
ATOM     30  C   UNL     1      37.349 -18.671 -21.995  0.00  0.00    -0.000 C 
ATOM     31  C   UNL     1      36.389 -18.377 -22.964  0.00  0.00    -0.000 C 
ENDBRANCH  25  26
ENDBRANCH  22  25
ENDBRANCH  21  22
ENDBRANCH  20  21
ENDBRANCH   4  20
TORSDOF 6
ENDMDL
MODEL 5
REMARK VINA RESULT:      -9.8      1.753      2.914
REMARK  Name = 25052630
REMARK  6 active torsions:
REMARK  status: ('A' for Active; 'I' for Inactive)
REMARK    1  A    between atoms: N_2  and  C_11
REMARK    2  A    between atoms: C_4  and  C_20
REMARK    3  A    between atoms: C_20  and  C_21
REMARK    4  A    between atoms: C_21  and  N_22
REMARK    5  A    between atoms: N_22  and  C_25
REMARK    6  A    between atoms: C_25  and  C_26
REMARK                            x       y       z     vdW  Elec       q    Type
REMARK                         _______ _______ _______ _____ _____    ______ ____
ROOT
ATOM      1  S   UNL     1      36.902 -25.341 -14.431  0.00  0.00    -0.018 S 
ATOM      2  N   UNL     1      36.525 -23.126 -16.101  0.00  0.00    -0.270 N 
ATOM      3  N   UNL     1      38.638 -23.884 -15.948  0.00  0.00    -0.294 N 
ATOM      4  C   UNL     1      37.363 -22.345 -16.895  0.00  0.00    +0.043 C 
ATOM      5  C   UNL     1      37.327 -24.127 -15.480  0.00  0.00    +0.142 C 
ATOM      6  C   UNL     1      38.618 -22.808 -16.795  0.00  0.00    +0.074 C 
ATOM      7  H   UNL     1      39.438 -24.405 -15.705  0.00  0.00    +0.154 HD
ENDROOT
BRANCH   2  11
ATOM      8  F   UNL     1      30.290 -22.957 -17.134  0.00  0.00    -0.201 F 
ATOM      9  F   UNL     1      30.216 -24.456 -12.650  0.00  0.00    -0.204 F 
ATOM     10  O   UNL     1      32.970 -22.965 -17.170  0.00  0.00    -0.472 OA
ATOM     11  C   UNL     1      35.107 -22.914 -15.968  0.00  0.00    +0.127 C 
ATOM     12  C   UNL     1      34.535 -23.720 -14.804  0.00  0.00    +0.054 C 
ATOM     13  C   UNL     1      34.361 -23.295 -17.242  0.00  0.00    +0.226 C 
ATOM     14  C   UNL     1      33.033 -23.711 -14.845  0.00  0.00    +0.018 C 
ATOM     15  C   UNL     1      32.346 -23.350 -16.012  0.00  0.00    +0.162 C 
ATOM     16  C   UNL     1      32.302 -24.093 -13.713  0.00  0.00    +0.029 C 
ATOM     17  C   UNL     1      30.949 -23.334 -16.030  0.00  0.00    +0.176 C 
ATOM     18  C   UNL     1      30.906 -24.089 -13.738  0.00  0.00    +0.142 C 
ATOM     19  C   UNL     1      30.231 -23.706 -14.894  0.00  0.00    +0.062 C 
ENDBRANCH   2  11
BRANCH   4  20
ATOM     20  C   UNL     1      36.873 -21.198 -17.698  0.00  0.00    +0.019 C 
BRANCH  20  21
ATOM     21  C   UNL     1      36.725 -21.568 -19.174  0.00  0.00    -0.075 C 
BRANCH  21  22
ATOM     22  N   UNL     1      36.568 -20.369 -19.989  0.00  0.00    +0.387 N 
ATOM     23  H   UNL     1      37.386 -20.265 -20.590  0.00  0.00    -0.084 HD
ATOM     24  H   UNL     1      36.477 -19.564 -19.370  0.00  0.00    -0.084 HD
BRANCH  22  25
ATOM     25  C   UNL     1      35.374 -20.457 -20.817  0.00  0.00    -0.054 C 
BRANCH  25  26
ATOM     26  C   UNL     1      35.370 -19.420 -21.908  0.00  0.00    -0.044 C 
ATOM     27  C   UNL     1      34.932 -19.757 -23.190  0.00  0.00    -0.006 C 
ATOM     28  C   UNL     1      35.801 -18.122 -21.638  0.00  0.00    -0.006 C 
ATOM     29  C   UNL     1      34.927 -18.796 -24.200  0.00  0.00    -0.000 C 
ATOM     30  C   UNL     1      35.796 -17.160 -22.649  0.00  0.00    -0.000 C 
ATOM     31  C   UNL     1      35.359 -17.498 -23.930  0.00  0.00    -0.000 C 
ENDBRANCH  25  26
ENDBRANCH  22  25
ENDBRANCH  21  22
ENDBRANCH  20  21
ENDBRANCH   4  20
TORSDOF 6
ENDMDL
MODEL 6
REMARK VINA RESULT:      -9.8      1.473      2.324
REMARK  Name = 25052630
REMARK  6 active torsions:
REMARK  status: ('A' for Active; 'I' for Inactive)
REMARK    1  A    between atoms: N_2  and  C_11
REMARK    2  A    between atoms: C_4  and  C_20
REMARK    3  A    between atoms: C_20  and  C_21
REMARK    4  A    between atoms: C_21  and  N_22
REMARK    5  A    between atoms: N_22  and  C_25
REMARK    6  A    between atoms: C_25  and  C_26
REMARK                            x       y       z     vdW  Elec       q    Type
REMARK                         _______ _______ _______ _____ _____    ______ ____
ROOT
ATOM      1  S   UNL     1      35.665 -24.971 -11.892  0.00  0.00    -0.018 S 
ATOM      2  N   UNL     1      35.798 -23.782 -14.423  0.00  0.00    -0.270 N 
ATOM      3  N   UNL     1      37.768 -24.410 -13.536  0.00  0.00    -0.294 N 
ATOM      4  C   UNL     1      36.830 -23.472 -15.306  0.00  0.00    +0.043 C 
ATOM      5  C   UNL     1      36.379 -24.390 -13.272  0.00  0.00    +0.142 C 
ATOM      6  C   UNL     1      37.998 -23.851 -14.764  0.00  0.00    +0.074 C 
ATOM      7  H   UNL     1      38.459 -24.768 -12.932  0.00  0.00    +0.154 HD
ENDROOT
BRANCH   2  11
ATOM      8  F   UNL     1      30.285 -22.465 -17.225  0.00  0.00    -0.201 F 
ATOM      9  F   UNL     1      28.816 -25.958 -14.397  0.00  0.00    -0.204 F 
ATOM     10  O   UNL     1      32.812 -22.739 -16.374  0.00  0.00    -0.472 OA
ATOM     11  C   UNL     1      34.406 -23.514 -14.679  0.00  0.00    +0.127 C 
ATOM     12  C   UNL     1      33.538 -24.722 -14.335  0.00  0.00    +0.054 C 
ATOM     13  C   UNL     1      34.167 -23.137 -16.137  0.00  0.00    +0.226 C 
ATOM     14  C   UNL     1      32.143 -24.534 -14.859  0.00  0.00    +0.018 C 
ATOM     15  C   UNL     1      31.865 -23.575 -15.842  0.00  0.00    +0.162 C 
ATOM     16  C   UNL     1      31.103 -25.344 -14.381  0.00  0.00    +0.029 C 
ATOM     17  C   UNL     1      30.559 -23.404 -16.310  0.00  0.00    +0.176 C 
ATOM     18  C   UNL     1      29.803 -25.179 -14.860  0.00  0.00    +0.142 C 
ATOM     19  C   UNL     1      29.531 -24.207 -15.820  0.00  0.00    +0.062 C 
ENDBRANCH   2  11
BRANCH   4  20
ATOM     20  C   UNL     1      36.600 -22.824 -16.620  0.00  0.00    +0.019 C 
BRANCH  20  21
ATOM     21  C   UNL     1      37.622 -21.719 -16.889  0.00  0.00    -0.075 C 
BRANCH  21  22
ATOM     22  N   UNL     1      37.233 -20.935 -18.056  0.00  0.00    +0.387 N 
ATOM     23  H   UNL     1      38.029 -20.378 -18.364  0.00  0.00    -0.084 HD
ATOM     24  H   UNL     1      36.454 -20.330 -17.797  0.00  0.00    -0.084 HD
BRANCH  22  25
ATOM     25  C   UNL     1      36.807 -21.803 -19.145  0.00  0.00    -0.054 C 
BRANCH  25  26
ATOM     26  C   UNL     1      35.576 -21.275 -19.834  0.00  0.00    -0.044 C 
ATOM     27  C   UNL     1      35.697 -20.311 -20.836  0.00  0.00    -0.006 C 
ATOM     28  C   UNL     1      34.317 -21.751 -19.472  0.00  0.00    -0.006 C 
ATOM     29  C   UNL     1      34.558 -19.824 -21.475  0.00  0.00    -0.000 C 
ATOM     30  C   UNL     1      33.177 -21.262 -20.112  0.00  0.00    -0.000 C 
ATOM     31  C   UNL     1      33.298 -20.299 -21.113  0.00  0.00    -0.000 C 
ENDBRANCH  25  26
ENDBRANCH  22  25
ENDBRANCH  21  22
ENDBRANCH  20  21
ENDBRANCH   4  20
TORSDOF 6
ENDMDL
MODEL 7
REMARK VINA RESULT:      -9.7      3.549      5.516
REMARK  Name = 25052630
REMARK  6 active torsions:
REMARK  status: ('A' for Active; 'I' for Inactive)
REMARK    1  A    between atoms: N_2  and  C_11
REMARK    2  A    between atoms: C_4  and  C_20
REMARK    3  A    between atoms: C_20  and  C_21
REMARK    4  A    between atoms: C_21  and  N_22
REMARK    5  A    between atoms: N_22  and  C_25
REMARK    6  A    between atoms: C_25  and  C_26
REMARK                            x       y       z     vdW  Elec       q    Type
REMARK                         _______ _______ _______ _____ _____    ______ ____
ROOT
ATOM      1  S   UNL     1      31.116 -24.731 -13.544  0.00  0.00    -0.018 S 
ATOM      2  N   UNL     1      33.027 -24.024 -15.463  0.00  0.00    -0.270 N 
ATOM      3  N   UNL     1      30.945 -23.255 -15.830  0.00  0.00    -0.294 N 
ATOM      4  C   UNL     1      33.003 -23.280 -16.641  0.00  0.00    +0.043 C 
ATOM      5  C   UNL     1      31.709 -24.022 -14.921  0.00  0.00    +0.142 C 
ATOM      6  C   UNL     1      31.756 -22.827 -16.847  0.00  0.00    +0.074 C 
ATOM      7  H   UNL     1      29.984 -23.059 -15.746  0.00  0.00    +0.154 HD
ENDROOT
BRANCH   2  11
ATOM      8  F   UNL     1      38.547 -27.052 -14.875  0.00  0.00    -0.201 F 
ATOM      9  F   UNL     1      39.259 -23.666 -11.652  0.00  0.00    -0.204 F 
ATOM     10  O   UNL     1      36.148 -26.041 -15.514  0.00  0.00    -0.472 OA
ATOM     11  C   UNL     1      34.205 -24.662 -14.933  0.00  0.00    +0.127 C 
ATOM     12  C   UNL     1      35.070 -23.671 -14.159  0.00  0.00    +0.054 C 
ATOM     13  C   UNL     1      35.047 -25.291 -16.038  0.00  0.00    +0.226 C 
ATOM     14  C   UNL     1      36.412 -24.271 -13.852  0.00  0.00    +0.018 C 
ATOM     15  C   UNL     1      36.873 -25.399 -14.544  0.00  0.00    +0.162 C 
ATOM     16  C   UNL     1      37.232 -23.685 -12.878  0.00  0.00    +0.029 C 
ATOM     17  C   UNL     1      38.119 -25.953 -14.238  0.00  0.00    +0.176 C 
ATOM     18  C   UNL     1      38.482 -24.234 -12.584  0.00  0.00    +0.142 C 
ATOM     19  C   UNL     1      38.922 -25.369 -13.260  0.00  0.00    +0.062 C 
ENDBRANCH   2  11
BRANCH   4  20
ATOM     20  C   UNL     1      34.205 -23.063 -17.482  0.00  0.00    +0.019 C 
BRANCH  20  21
ATOM     21  C   UNL     1      33.843 -22.964 -18.964  0.00  0.00    -0.075 C 
BRANCH  21  22
ATOM     22  N   UNL     1      34.812 -22.136 -19.673  0.00  0.00    +0.387 N 
ATOM     23  H   UNL     1      35.240 -22.687 -20.417  0.00  0.00    -0.084 HD
ATOM     24  H   UNL     1      35.519 -21.822 -19.010  0.00  0.00    -0.084 HD
BRANCH  22  25
ATOM     25  C   UNL     1      34.167 -20.967 -20.255  0.00  0.00    -0.054 C 
BRANCH  25  26
ATOM     26  C   UNL     1      35.118 -20.168 -21.106  0.00  0.00    -0.044 C 
ATOM     27  C   UNL     1      34.704 -19.681 -22.347  0.00  0.00    -0.006 C 
ATOM     28  C   UNL     1      36.411 -19.911 -20.653  0.00  0.00    -0.006 C 
ATOM     29  C   UNL     1      35.584 -18.940 -23.134  0.00  0.00    -0.000 C 
ATOM     30  C   UNL     1      37.292 -19.169 -21.441  0.00  0.00    -0.000 C 
ATOM     31  C   UNL     1      36.878 -18.684 -22.682  0.00  0.00    -0.000 C 
ENDBRANCH  25  26
ENDBRANCH  22  25
ENDBRANCH  21  22
ENDBRANCH  20  21
ENDBRANCH   4  20
TORSDOF 6
ENDMDL
MODEL 8
REMARK VINA RESULT:      -9.7     10.920     14.596
REMARK  Name = 25052630
REMARK  6 active torsions:
REMARK  status: ('A' for Active; 'I' for Inactive)
REMARK    1  A    between atoms: N_2  and  C_11
REMARK    2  A    between atoms: C_4  and  C_20
REMARK    3  A    between atoms: C_20  and  C_21
REMARK    4  A    between atoms: C_21  and  N_22
REMARK    5  A    between atoms: N_22  and  C_25
REMARK    6  A    between atoms: C_25  and  C_26
REMARK                            x       y       z     vdW  Elec       q    Type
REMARK                         _______ _______ _______ _____ _____    ______ ____
ROOT
ATOM      1  S   UNL     1      31.601 -11.442 -19.979  0.00  0.00    -0.018 S 
ATOM      2  N   UNL     1      32.705 -11.922 -22.507  0.00  0.00    -0.270 N 
ATOM      3  N   UNL     1      32.764 -13.654 -21.071  0.00  0.00    -0.294 N 
ATOM      4  C   UNL     1      33.308 -13.019 -23.119  0.00  0.00    +0.043 C 
ATOM      5  C   UNL     1      32.345 -12.308 -21.183  0.00  0.00    +0.142 C 
ATOM      6  C   UNL     1      33.336 -14.043 -22.253  0.00  0.00    +0.074 C 
ATOM      7  H   UNL     1      32.661 -14.220 -20.272  0.00  0.00    +0.154 HD
ENDROOT
BRANCH   2  11
ATOM      8  F   UNL     1      30.723  -6.088 -23.927  0.00  0.00    -0.201 F 
ATOM      9  F   UNL     1      35.342  -5.475 -24.737  0.00  0.00    -0.204 F 
ATOM     10  O   UNL     1      31.121  -8.623 -23.151  0.00  0.00    -0.472 OA
ATOM     11  C   UNL     1      32.507 -10.646 -23.145  0.00  0.00    +0.127 C 
ATOM     12  C   UNL     1      33.797  -9.829 -23.158  0.00  0.00    +0.054 C 
ATOM     13  C   UNL     1      31.420  -9.834 -22.449  0.00  0.00    +0.226 C 
ATOM     14  C   UNL     1      33.518  -8.411 -23.569  0.00  0.00    +0.018 C 
ATOM     15  C   UNL     1      32.217  -7.893 -23.532  0.00  0.00    +0.162 C 
ATOM     16  C   UNL     1      34.573  -7.580 -23.971  0.00  0.00    +0.029 C 
ATOM     17  C   UNL     1      31.971  -6.576 -23.929  0.00  0.00    +0.176 C 
ATOM     18  C   UNL     1      34.326  -6.261 -24.354  0.00  0.00    +0.142 C 
ATOM     19  C   UNL     1      33.027  -5.761 -24.338  0.00  0.00    +0.062 C 
ENDBRANCH   2  11
BRANCH   4  20
ATOM     20  C   UNL     1      33.815 -12.986 -24.513  0.00  0.00    +0.019 C 
BRANCH  20  21
ATOM     21  C   UNL     1      33.635 -14.336 -25.208  0.00  0.00    -0.075 C 
BRANCH  21  22
ATOM     22  N   UNL     1      34.881 -15.093 -25.185  0.00  0.00    +0.387 N 
ATOM     23  H   UNL     1      35.287 -15.039 -24.251  0.00  0.00    -0.084 HD
ATOM     24  H   UNL     1      35.518 -14.694 -25.874  0.00  0.00    -0.084 HD
BRANCH  22  25
ATOM     25  C   UNL     1      34.645 -16.490 -25.522  0.00  0.00    -0.054 C 
BRANCH  25  26
ATOM     26  C   UNL     1      34.977 -17.407 -24.376  0.00  0.00    -0.044 C 
ATOM     27  C   UNL     1      34.698 -18.772 -24.471  0.00  0.00    -0.006 C 
ATOM     28  C   UNL     1      35.566 -16.895 -23.220  0.00  0.00    -0.006 C 
ATOM     29  C   UNL     1      35.006 -19.622 -23.410  0.00  0.00    -0.000 C 
ATOM     30  C   UNL     1      35.874 -17.747 -22.158  0.00  0.00    -0.000 C 
ATOM     31  C   UNL     1      35.594 -19.110 -22.253  0.00  0.00    -0.000 C 
ENDBRANCH  25  26
ENDBRANCH  22  25
ENDBRANCH  21  22
ENDBRANCH  20  21
ENDBRANCH   4  20
TORSDOF 6
ENDMDL
MODEL 9
REMARK VINA RESULT:      -9.6      1.803      2.626
REMARK  Name = 25052630
REMARK  6 active torsions:
REMARK  status: ('A' for Active; 'I' for Inactive)
REMARK    1  A    between atoms: N_2  and  C_11
REMARK    2  A    between atoms: C_4  and  C_20
REMARK    3  A    between atoms: C_20  and  C_21
REMARK    4  A    between atoms: C_21  and  N_22
REMARK    5  A    between atoms: N_22  and  C_25
REMARK    6  A    between atoms: C_25  and  C_26
REMARK                            x       y       z     vdW  Elec       q    Type
REMARK                         _______ _______ _______ _____ _____    ______ ____
ROOT
ATOM      1  S   UNL     1      37.354 -24.453 -14.173  0.00  0.00    -0.018 S 
ATOM      2  N   UNL     1      35.965 -23.342 -16.335  0.00  0.00    -0.270 N 
ATOM      3  N   UNL     1      38.150 -22.818 -16.205  0.00  0.00    -0.294 N 
ATOM      4  C   UNL     1      36.312 -22.508 -17.397  0.00  0.00    +0.043 C 
ATOM      5  C   UNL     1      37.137 -23.557 -15.552  0.00  0.00    +0.142 C 
ATOM      6  C   UNL     1      37.616 -22.204 -17.307  0.00  0.00    +0.074 C 
ATOM      7  H   UNL     1      39.089 -22.755 -15.915  0.00  0.00    +0.154 HD
ENDROOT
BRANCH   2  11
ATOM      8  F   UNL     1      30.614 -25.389 -13.660  0.00  0.00    -0.201 F 
ATOM      9  F   UNL     1      28.715 -22.771 -17.110  0.00  0.00    -0.204 F 
ATOM     10  O   UNL     1      33.096 -24.702 -14.404  0.00  0.00    -0.472 OA
ATOM     11  C   UNL     1      34.642 -23.865 -16.115  0.00  0.00    +0.127 C 
ATOM     12  C   UNL     1      33.578 -22.942 -16.704  0.00  0.00    +0.054 C 
ATOM     13  C   UNL     1      34.356 -24.060 -14.630  0.00  0.00    +0.226 C 
ATOM     14  C   UNL     1      32.210 -23.348 -16.234  0.00  0.00    +0.018 C 
ATOM     15  C   UNL     1      32.049 -24.184 -15.121  0.00  0.00    +0.162 C 
ATOM     16  C   UNL     1      31.073 -22.867 -16.897  0.00  0.00    +0.029 C 
ATOM     17  C   UNL     1      30.770 -24.563 -14.703  0.00  0.00    +0.176 C 
ATOM     18  C   UNL     1      29.796 -23.237 -16.470  0.00  0.00    +0.142 C 
ATOM     19  C   UNL     1      29.646 -24.087 -15.377  0.00  0.00    +0.062 C 
ENDBRANCH   2  11
BRANCH   4  20
ATOM     20  C   UNL     1      35.339 -22.067 -18.426  0.00  0.00    +0.019 C 
BRANCH  20  21
ATOM     21  C   UNL     1      35.985 -21.982 -19.809  0.00  0.00    -0.075 C 
BRANCH  21  22
ATOM     22  N   UNL     1      36.066 -20.594 -20.251  0.00  0.00    +0.387 N 
ATOM     23  H   UNL     1      36.808 -20.508 -20.945  0.00  0.00    -0.084 HD
ATOM     24  H   UNL     1      36.264 -20.006 -19.442  0.00  0.00    -0.084 HD
BRANCH  22  25
ATOM     25  C   UNL     1      34.807 -20.164 -20.842  0.00  0.00    -0.054 C 
BRANCH  25  26
ATOM     26  C   UNL     1      35.021 -19.195 -21.974  0.00  0.00    -0.044 C 
ATOM     27  C   UNL     1      35.474 -17.902 -21.708  0.00  0.00    -0.006 C 
ATOM     28  C   UNL     1      34.768 -19.589 -23.287  0.00  0.00    -0.006 C 
ATOM     29  C   UNL     1      35.674 -17.004 -22.756  0.00  0.00    -0.000 C 
ATOM     30  C   UNL     1      34.968 -18.689 -24.336  0.00  0.00    -0.000 C 
ATOM     31  C   UNL     1      35.420 -17.397 -24.070  0.00  0.00    -0.000 C 
ENDBRANCH  25  26
ENDBRANCH  22  25
ENDBRANCH  21  22
ENDBRANCH  20  21
ENDBRANCH   4  20
TORSDOF 6
ENDMDL
