MODEL 1
REMARK VINA RESULT:     -11.4      0.000      0.000
REMARK  Name = 11689883
REMARK  5 active torsions:
REMARK  status: ('A' for Active; 'I' for Inactive)
REMARK    1  A    between atoms: C_2  and  C_21
REMARK    2  A    between atoms: C_5  and  N_9
REMARK    3  A    between atoms: N_10  and  C_15
REMARK    4  A    between atoms: C_21  and  N_23
REMARK    5  A    between atoms: C_29  and  O_31
REMARK                            x       y       z     vdW  Elec       q    Type
REMARK                         _______ _______ _______ _____ _____    ______ ____
ROOT
ATOM      1  F   UNL     1      35.834 -17.072 -21.559  0.00  0.00    -0.203 F 
ATOM      2  C   UNL     1      35.063 -16.455 -23.713  0.00  0.00    -0.014 C 
ATOM      3  C   UNL     1      35.409 -17.425 -22.783  0.00  0.00    +0.147 C 
ATOM      4  C   UNL     1      34.621 -16.808 -24.981  0.00  0.00    -0.004 C 
ATOM      5  C   UNL     1      35.312 -18.774 -23.127  0.00  0.00    +0.079 C 
ATOM      6  C   UNL     1      34.524 -18.156 -25.325  0.00  0.00    +0.001 C 
ATOM      7  C   UNL     1      34.870 -19.139 -24.398  0.00  0.00    +0.017 C 
ENDROOT
BRANCH   5   9
ATOM      8  O   UNL     1      33.809 -19.805 -20.761  0.00  0.00    -0.252 OA
ATOM      9  N   UNL     1      35.658 -19.759 -22.201  0.00  0.00    -0.266 N 
ATOM     10  N   UNL     1      35.634 -21.227 -20.418  0.00  0.00    -0.267 N 
ATOM     11  C   UNL     1      34.916 -20.223 -21.087  0.00  0.00    +0.308 C 
ATOM     12  H   UNL     1      36.533 -20.188 -22.339  0.00  0.00    +0.156 HD
ATOM     13  H   UNL     1      36.512 -21.457 -20.799  0.00  0.00    +0.156 HD
BRANCH  10  15
ATOM     14  N   UNL     1      35.824 -22.763 -17.080  0.00  0.00    -0.247 NA
ATOM     15  C   UNL     1      35.251 -21.949 -19.263  0.00  0.00    +0.071 C 
ATOM     16  C   UNL     1      33.999 -22.521 -19.183  0.00  0.00    +0.018 C 
ATOM     17  C   UNL     1      36.125 -22.086 -18.210  0.00  0.00    +0.113 C 
ATOM     18  C   UNL     1      33.651 -23.225 -18.035  0.00  0.00    +0.016 C 
ATOM     19  C   UNL     1      34.592 -23.316 -17.022  0.00  0.00    +0.059 C 
ATOM     20  C   UNL     1      34.253 -24.064 -15.775  0.00  0.00    +0.052 C 
ENDBRANCH  10  15
ENDBRANCH   5   9
BRANCH   2  21
ATOM     21  C   UNL     1      35.165 -14.999 -23.346  0.00  0.00    -0.047 C 
BRANCH  21  23
ATOM     22  O   UNL     1      31.897 -11.829 -19.056  0.00  0.00    -0.226 OA
ATOM     23  N   UNL     1      33.931 -14.502 -22.739  0.00  0.00    +0.392 N 
ATOM     24  N   UNL     1      32.338 -12.739 -21.148  0.00  0.00    -0.250 N 
ATOM     25  C   UNL     1      34.030 -14.529 -21.272  0.00  0.00    -0.055 C 
ATOM     26  C   UNL     1      33.635 -13.141 -23.211  0.00  0.00    -0.055 C 
ATOM     27  C   UNL     1      32.729 -14.048 -20.631  0.00  0.00    +0.074 C 
ATOM     28  C   UNL     1      32.326 -12.627 -22.609  0.00  0.00    +0.074 C 
ATOM     29  C   UNL     1      31.889 -11.738 -20.283  0.00  0.00    +0.405 C 
ATOM     30  H   UNL     1      33.166 -15.115 -23.020  0.00  0.00    -0.079 HD
BRANCH  29  31
ATOM     31  O   UNL     1      31.432 -10.632 -20.948  0.00  0.00    -0.430 OA
ATOM     32  C   UNL     1      32.089  -9.396 -20.644  0.00  0.00    +0.257 C 
ENDBRANCH  29  31
ENDBRANCH  21  23
ENDBRANCH   2  21
TORSDOF 5
ENDMDL
MODEL 2
REMARK VINA RESULT:     -10.9      3.894     10.959
REMARK  Name = 11689883
REMARK  5 active torsions:
REMARK  status: ('A' for Active; 'I' for Inactive)
REMARK    1  A    between atoms: C_2  and  C_21
REMARK    2  A    between atoms: C_5  and  N_9
REMARK    3  A    between atoms: N_10  and  C_15
REMARK    4  A    between atoms: C_21  and  N_23
REMARK    5  A    between atoms: C_29  and  O_31
REMARK                            x       y       z     vdW  Elec       q    Type
REMARK                         _______ _______ _______ _____ _____    ______ ____
ROOT
ATOM      1  F   UNL     1      37.540 -20.790 -18.960  0.00  0.00    -0.203 F 
ATOM      2  C   UNL     1      36.028 -22.210 -17.814  0.00  0.00    -0.014 C 
ATOM      3  C   UNL     1      36.360 -21.430 -18.912  0.00  0.00    +0.147 C 
ATOM      4  C   UNL     1      34.812 -22.877 -17.754  0.00  0.00    -0.004 C 
ATOM      5  C   UNL     1      35.459 -21.313 -19.971  0.00  0.00    +0.079 C 
ATOM      6  C   UNL     1      33.911 -22.761 -18.812  0.00  0.00    +0.001 C 
ATOM      7  C   UNL     1      34.234 -21.978 -19.921  0.00  0.00    +0.017 C 
ENDROOT
BRANCH   5   9
ATOM      8  O   UNL     1      33.861 -19.220 -21.379  0.00  0.00    -0.252 OA
ATOM      9  N   UNL     1      35.780 -20.531 -21.081  0.00  0.00    -0.266 N 
ATOM     10  N   UNL     1      35.700 -18.997 -22.807  0.00  0.00    -0.267 N 
ATOM     11  C   UNL     1      34.993 -19.544 -21.724  0.00  0.00    +0.308 C 
ATOM     12  H   UNL     1      36.671 -20.685 -21.470  0.00  0.00    +0.156 HD
ATOM     13  H   UNL     1      36.602 -19.359 -22.960  0.00  0.00    +0.156 HD
BRANCH  10  15
ATOM     14  N   UNL     1      34.228 -17.417 -25.786  0.00  0.00    -0.247 NA
ATOM     15  C   UNL     1      35.275 -17.989 -23.704  0.00  0.00    +0.071 C 
ATOM     16  C   UNL     1      35.478 -16.659 -23.403  0.00  0.00    +0.018 C 
ATOM     17  C   UNL     1      34.657 -18.329 -24.884  0.00  0.00    +0.113 C 
ATOM     18  C   UNL     1      35.049 -15.691 -24.305  0.00  0.00    +0.016 C 
ATOM     19  C   UNL     1      34.436 -16.119 -25.472  0.00  0.00    +0.059 C 
ATOM     20  C   UNL     1      33.964 -15.108 -26.463  0.00  0.00    +0.052 C 
ENDBRANCH  10  15
ENDBRANCH   5   9
BRANCH   2  21
ATOM     21  C   UNL     1      36.998 -22.339 -16.671  0.00  0.00    -0.047 C 
BRANCH  21  23
ATOM     22  O   UNL     1      38.098 -26.270 -11.931  0.00  0.00    -0.226 OA
ATOM     23  N   UNL     1      36.756 -23.549 -15.884  0.00  0.00    +0.392 N 
ATOM     24  N   UNL     1      36.822 -25.189 -13.543  0.00  0.00    -0.250 N 
ATOM     25  C   UNL     1      38.025 -24.120 -15.412  0.00  0.00    -0.055 C 
ATOM     26  C   UNL     1      35.867 -23.257 -14.749  0.00  0.00    -0.055 C 
ATOM     27  C   UNL     1      37.782 -25.405 -14.623  0.00  0.00    +0.074 C 
ATOM     28  C   UNL     1      35.579 -24.524 -13.942  0.00  0.00    +0.074 C 
ATOM     29  C   UNL     1      37.056 -25.711 -12.269  0.00  0.00    +0.405 C 
ATOM     30  H   UNL     1      36.298 -24.235 -16.484  0.00  0.00    -0.079 HD
BRANCH  29  31
ATOM     31  O   UNL     1      35.992 -25.537 -11.424  0.00  0.00    -0.430 OA
ATOM     32  C   UNL     1      36.084 -24.434 -10.514  0.00  0.00    +0.257 C 
ENDBRANCH  29  31
ENDBRANCH  21  23
ENDBRANCH   2  21
TORSDOF 5
ENDMDL
MODEL 3
REMARK VINA RESULT:     -10.9      2.178      9.509
REMARK  Name = 11689883
REMARK  5 active torsions:
REMARK  status: ('A' for Active; 'I' for Inactive)
REMARK    1  A    between atoms: C_2  and  C_21
REMARK    2  A    between atoms: C_5  and  N_9
REMARK    3  A    between atoms: N_10  and  C_15
REMARK    4  A    between atoms: C_21  and  N_23
REMARK    5  A    between atoms: C_29  and  O_31
REMARK                            x       y       z     vdW  Elec       q    Type
REMARK                         _______ _______ _______ _____ _____    ______ ____
ROOT
ATOM      1  F   UNL     1      35.872 -16.275 -22.095  0.00  0.00    -0.203 F 
ATOM      2  C   UNL     1      35.534 -18.478 -22.900  0.00  0.00    -0.014 C 
ATOM      3  C   UNL     1      35.462 -17.103 -23.070  0.00  0.00    +0.147 C 
ATOM      4  C   UNL     1      35.114 -19.343 -23.901  0.00  0.00    -0.004 C 
ATOM      5  C   UNL     1      34.961 -16.582 -24.263  0.00  0.00    +0.079 C 
ATOM      6  C   UNL     1      34.613 -18.823 -25.094  0.00  0.00    +0.001 C 
ATOM      7  C   UNL     1      34.536 -17.442 -25.275  0.00  0.00    +0.017 C 
ENDROOT
BRANCH   5   9
ATOM      8  O   UNL     1      33.436 -14.519 -22.733  0.00  0.00    -0.252 OA
ATOM      9  N   UNL     1      34.883 -15.201 -24.446  0.00  0.00    -0.266 N 
ATOM     10  N   UNL     1      34.350 -12.964 -24.222  0.00  0.00    -0.267 N 
ATOM     11  C   UNL     1      34.146 -14.250 -23.697  0.00  0.00    +0.308 C 
ATOM     12  H   UNL     1      35.409 -14.838 -25.195  0.00  0.00    +0.156 HD
ATOM     13  H   UNL     1      34.949 -12.906 -25.002  0.00  0.00    +0.156 HD
BRANCH  10  15
ATOM     14  N   UNL     1      32.182 -10.610 -22.407  0.00  0.00    -0.247 NA
ATOM     15  C   UNL     1      33.800 -11.742 -23.769  0.00  0.00    +0.071 C 
ATOM     16  C   UNL     1      34.310 -10.542 -24.219  0.00  0.00    +0.018 C 
ATOM     17  C   UNL     1      32.754 -11.741 -22.878  0.00  0.00    +0.113 C 
ATOM     18  C   UNL     1      33.749  -9.356 -23.756  0.00  0.00    +0.016 C 
ATOM     19  C   UNL     1      32.696  -9.444 -22.860  0.00  0.00    +0.059 C 
ATOM     20  C   UNL     1      32.069  -8.192 -22.342  0.00  0.00    +0.052 C 
ENDBRANCH  10  15
ENDBRANCH   5   9
BRANCH   2  21
ATOM     21  C   UNL     1      36.075 -19.044 -21.615  0.00  0.00    -0.047 C 
BRANCH  21  23
ATOM     22  O   UNL     1      34.285 -23.448 -17.550  0.00  0.00    -0.226 OA
ATOM     23  N   UNL     1      35.394 -20.281 -21.235  0.00  0.00    +0.392 N 
ATOM     24  N   UNL     1      34.121 -22.108 -19.440  0.00  0.00    -0.250 N 
ATOM     25  C   UNL     1      36.186 -21.021 -20.241  0.00  0.00    -0.055 C 
ATOM     26  C   UNL     1      34.051 -19.992 -20.711  0.00  0.00    -0.055 C 
ATOM     27  C   UNL     1      35.499 -22.335 -19.869  0.00  0.00    +0.074 C 
ATOM     28  C   UNL     1      33.317 -21.283 -20.345  0.00  0.00    +0.074 C 
ATOM     29  C   UNL     1      33.613 -22.755 -18.312  0.00  0.00    +0.405 C 
ATOM     30  H   UNL     1      35.298 -20.863 -22.067  0.00  0.00    -0.079 HD
BRANCH  29  31
ATOM     31  O   UNL     1      32.271 -22.539 -18.139  0.00  0.00    -0.430 OA
ATOM     32  C   UNL     1      31.710 -23.009 -16.908  0.00  0.00    +0.257 C 
ENDBRANCH  29  31
ENDBRANCH  21  23
ENDBRANCH   2  21
TORSDOF 5
ENDMDL
MODEL 4
REMARK VINA RESULT:     -10.4      4.631     12.727
REMARK  Name = 11689883
REMARK  5 active torsions:
REMARK  status: ('A' for Active; 'I' for Inactive)
REMARK    1  A    between atoms: C_2  and  C_21
REMARK    2  A    between atoms: C_5  and  N_9
REMARK    3  A    between atoms: N_10  and  C_15
REMARK    4  A    between atoms: C_21  and  N_23
REMARK    5  A    between atoms: C_29  and  O_31
REMARK                            x       y       z     vdW  Elec       q    Type
REMARK                         _______ _______ _______ _____ _____    ______ ____
ROOT
ATOM      1  F   UNL     1      32.596 -10.090 -23.036  0.00  0.00    -0.203 F 
ATOM      2  C   UNL     1      31.909 -11.477 -21.242  0.00  0.00    -0.014 C 
ATOM      3  C   UNL     1      32.244 -10.229 -21.748  0.00  0.00    +0.147 C 
ATOM      4  C   UNL     1      31.542 -11.633 -19.912  0.00  0.00    -0.004 C 
ATOM      5  C   UNL     1      32.213  -9.115 -20.909  0.00  0.00    +0.079 C 
ATOM      6  C   UNL     1      31.511 -10.520 -19.072  0.00  0.00    +0.001 C 
ATOM      7  C   UNL     1      31.846  -9.260 -19.570  0.00  0.00    +0.017 C 
ENDROOT
BRANCH   5   9
ATOM      8  O   UNL     1      30.946  -7.500 -23.078  0.00  0.00    -0.252 OA
ATOM      9  N   UNL     1      32.548  -7.855 -21.404  0.00  0.00    -0.266 N 
ATOM     10  N   UNL     1      32.580  -5.891 -22.621  0.00  0.00    -0.267 N 
ATOM     11  C   UNL     1      31.921  -7.117 -22.439  0.00  0.00    +0.308 C 
ATOM     12  H   UNL     1      33.323  -7.420 -20.980  0.00  0.00    +0.156 HD
ATOM     13  H   UNL     1      33.351  -5.723 -22.030  0.00  0.00    +0.156 HD
BRANCH  10  15
ATOM     14  N   UNL     1      30.864  -3.027 -24.166  0.00  0.00    -0.247 NA
ATOM     15  C   UNL     1      32.274  -4.867 -23.547  0.00  0.00    +0.071 C 
ATOM     16  C   UNL     1      33.039  -4.705 -24.683  0.00  0.00    +0.018 C 
ATOM     17  C   UNL     1      31.211  -4.024 -23.322  0.00  0.00    +0.113 C 
ATOM     18  C   UNL     1      32.714  -3.689 -25.575  0.00  0.00    +0.016 C 
ATOM     19  C   UNL     1      31.626  -2.886 -25.273  0.00  0.00    +0.059 C 
ATOM     20  C   UNL     1      31.248  -1.786 -26.209  0.00  0.00    +0.052 C 
ENDBRANCH  10  15
ENDBRANCH   5   9
BRANCH   2  21
ATOM     21  C   UNL     1      31.941 -12.681 -22.144  0.00  0.00    -0.047 C 
BRANCH  21  23
ATOM     22  O   UNL     1      35.617 -17.653 -21.202  0.00  0.00    -0.226 OA
ATOM     23  N   UNL     1      33.230 -13.369 -22.090  0.00  0.00    +0.392 N 
ATOM     24  N   UNL     1      34.980 -15.630 -22.150  0.00  0.00    -0.250 N 
ATOM     25  C   UNL     1      33.264 -14.314 -20.964  0.00  0.00    -0.055 C 
ATOM     26  C   UNL     1      33.497 -14.067 -23.356  0.00  0.00    -0.055 C 
ATOM     27  C   UNL     1      34.622 -15.007 -20.877  0.00  0.00    +0.074 C 
ATOM     28  C   UNL     1      34.860 -14.760 -23.322  0.00  0.00    +0.074 C 
ATOM     29  C   UNL     1      35.515 -16.920 -22.184  0.00  0.00    +0.405 C 
ATOM     30  H   UNL     1      33.960 -12.672 -21.946  0.00  0.00    -0.079 HD
BRANCH  29  31
ATOM     31  O   UNL     1      35.922 -17.289 -23.438  0.00  0.00    -0.430 OA
ATOM     32  C   UNL     1      35.147 -18.309 -24.078  0.00  0.00    +0.257 C 
ENDBRANCH  29  31
ENDBRANCH  21  23
ENDBRANCH   2  21
TORSDOF 5
ENDMDL
MODEL 5
REMARK VINA RESULT:     -10.3      3.145      4.657
REMARK  Name = 11689883
REMARK  5 active torsions:
REMARK  status: ('A' for Active; 'I' for Inactive)
REMARK    1  A    between atoms: C_2  and  C_21
REMARK    2  A    between atoms: C_5  and  N_9
REMARK    3  A    between atoms: N_10  and  C_15
REMARK    4  A    between atoms: C_21  and  N_23
REMARK    5  A    between atoms: C_29  and  O_31
REMARK                            x       y       z     vdW  Elec       q    Type
REMARK                         _______ _______ _______ _____ _____    ______ ____
ROOT
ATOM      1  F   UNL     1      37.703 -19.360 -21.054  0.00  0.00    -0.203 F 
ATOM      2  C   UNL     1      35.580 -19.335 -22.106  0.00  0.00    -0.014 C 
ATOM      3  C   UNL     1      36.422 -19.761 -21.089  0.00  0.00    +0.147 C 
ATOM      4  C   UNL     1      34.253 -19.742 -22.152  0.00  0.00    -0.004 C 
ATOM      5  C   UNL     1      35.929 -20.611 -20.098  0.00  0.00    +0.079 C 
ATOM      6  C   UNL     1      33.760 -20.592 -21.162  0.00  0.00    +0.001 C 
ATOM      7  C   UNL     1      34.598 -21.026 -20.135  0.00  0.00    +0.017 C 
ENDROOT
BRANCH   5   9
ATOM      8  O   UNL     1      35.441 -22.615 -17.939  0.00  0.00    -0.252 OA
ATOM      9  N   UNL     1      36.765 -21.047 -19.070  0.00  0.00    -0.266 N 
ATOM     10  N   UNL     1      37.618 -22.144 -17.225  0.00  0.00    -0.267 N 
ATOM     11  C   UNL     1      36.498 -22.004 -18.060  0.00  0.00    +0.308 C 
ATOM     12  H   UNL     1      37.659 -20.636 -19.042  0.00  0.00    +0.156 HD
ATOM     13  H   UNL     1      38.396 -21.584 -17.448  0.00  0.00    +0.156 HD
BRANCH  10  15
ATOM     14  N   UNL     1      39.077 -24.627 -14.936  0.00  0.00    -0.247 NA
ATOM     15  C   UNL     1      37.766 -22.992 -16.102  0.00  0.00    +0.071 C 
ATOM     16  C   UNL     1      36.798 -23.020 -15.120  0.00  0.00    +0.018 C 
ATOM     17  C   UNL     1      38.875 -23.795 -15.981  0.00  0.00    +0.113 C 
ATOM     18  C   UNL     1      36.971 -23.863 -14.028  0.00  0.00    +0.016 C 
ATOM     19  C   UNL     1      38.117 -24.640 -13.984  0.00  0.00    +0.059 C 
ATOM     20  C   UNL     1      38.336 -25.557 -12.827  0.00  0.00    +0.052 C 
ENDBRANCH  10  15
ENDBRANCH   5   9
BRANCH   2  21
ATOM     21  C   UNL     1      36.107 -18.417 -23.176  0.00  0.00    -0.047 C 
BRANCH  21  23
ATOM     22  O   UNL     1      34.205 -12.770 -25.079  0.00  0.00    -0.226 OA
ATOM     23  N   UNL     1      35.101 -17.446 -23.607  0.00  0.00    +0.392 N 
ATOM     24  N   UNL     1      34.151 -15.087 -24.912  0.00  0.00    -0.250 N 
ATOM     25  C   UNL     1      35.394 -16.118 -23.048  0.00  0.00    -0.055 C 
ATOM     26  C   UNL     1      35.038 -17.386 -25.075  0.00  0.00    -0.055 C 
ATOM     27  C   UNL     1      34.325 -15.108 -23.462  0.00  0.00    +0.074 C 
ATOM     28  C   UNL     1      33.963 -16.399 -25.534  0.00  0.00    +0.074 C 
ATOM     29  C   UNL     1      34.048 -13.874 -25.598  0.00  0.00    +0.405 C 
ATOM     30  H   UNL     1      34.193 -17.749 -23.256  0.00  0.00    -0.079 HD
BRANCH  29  31
ATOM     31  O   UNL     1      33.747 -14.041 -26.923  0.00  0.00    -0.430 OA
ATOM     32  C   UNL     1      33.021 -12.974 -27.544  0.00  0.00    +0.257 C 
ENDBRANCH  29  31
ENDBRANCH  21  23
ENDBRANCH   2  21
TORSDOF 5
ENDMDL
MODEL 6
REMARK VINA RESULT:     -10.3      2.547      4.029
REMARK  Name = 11689883
REMARK  5 active torsions:
REMARK  status: ('A' for Active; 'I' for Inactive)
REMARK    1  A    between atoms: C_2  and  C_21
REMARK    2  A    between atoms: C_5  and  N_9
REMARK    3  A    between atoms: N_10  and  C_15
REMARK    4  A    between atoms: C_21  and  N_23
REMARK    5  A    between atoms: C_29  and  O_31
REMARK                            x       y       z     vdW  Elec       q    Type
REMARK                         _______ _______ _______ _____ _____    ______ ____
ROOT
ATOM      1  F   UNL     1      37.720 -19.403 -21.058  0.00  0.00    -0.203 F 
ATOM      2  C   UNL     1      35.614 -19.379 -22.144  0.00  0.00    -0.014 C 
ATOM      3  C   UNL     1      36.433 -19.782 -21.098  0.00  0.00    +0.147 C 
ATOM      4  C   UNL     1      34.281 -19.763 -22.195  0.00  0.00    -0.004 C 
ATOM      5  C   UNL     1      35.910 -20.585 -20.085  0.00  0.00    +0.079 C 
ATOM      6  C   UNL     1      33.758 -20.566 -21.182  0.00  0.00    +0.001 C 
ATOM      7  C   UNL     1      34.572 -20.978 -20.127  0.00  0.00    +0.017 C 
ENDROOT
BRANCH   5   9
ATOM      8  O   UNL     1      35.473 -22.717 -18.039  0.00  0.00    -0.252 OA
ATOM      9  N   UNL     1      36.722 -20.998 -19.028  0.00  0.00    -0.266 N 
ATOM     10  N   UNL     1      37.561 -22.104 -17.182  0.00  0.00    -0.267 N 
ATOM     11  C   UNL     1      36.481 -22.017 -18.074  0.00  0.00    +0.308 C 
ATOM     12  H   UNL     1      37.576 -20.517 -18.932  0.00  0.00    +0.156 HD
ATOM     13  H   UNL     1      38.302 -21.473 -17.337  0.00  0.00    +0.156 HD
BRANCH  10  15
ATOM     14  N   UNL     1      39.067 -24.612 -14.951  0.00  0.00    -0.247 NA
ATOM     15  C   UNL     1      37.718 -22.986 -16.087  0.00  0.00    +0.071 C 
ATOM     16  C   UNL     1      36.731 -23.087 -15.129  0.00  0.00    +0.018 C 
ATOM     17  C   UNL     1      38.855 -23.749 -15.970  0.00  0.00    +0.113 C 
ATOM     18  C   UNL     1      36.913 -23.963 -14.064  0.00  0.00    +0.016 C 
ATOM     19  C   UNL     1      38.088 -24.696 -14.023  0.00  0.00    +0.059 C 
ATOM     20  C   UNL     1      38.317 -25.647 -12.894  0.00  0.00    +0.052 C 
ENDBRANCH  10  15
ENDBRANCH   5   9
BRANCH   2  21
ATOM     21  C   UNL     1      36.174 -18.512 -23.238  0.00  0.00    -0.047 C 
BRANCH  21  23
ATOM     22  O   UNL     1      32.752 -13.276 -23.343  0.00  0.00    -0.226 OA
ATOM     23  N   UNL     1      35.940 -17.091 -22.982  0.00  0.00    +0.392 N 
ATOM     24  N   UNL     1      34.356 -14.752 -22.538  0.00  0.00    -0.250 N 
ATOM     25  C   UNL     1      35.180 -16.486 -24.086  0.00  0.00    -0.055 C 
ATOM     26  C   UNL     1      35.231 -16.906 -21.707  0.00  0.00    -0.055 C 
ATOM     27  C   UNL     1      34.966 -14.993 -23.844  0.00  0.00    +0.074 C 
ATOM     28  C   UNL     1      35.014 -15.421 -21.413  0.00  0.00    +0.074 C 
ATOM     29  C   UNL     1      33.307 -13.840 -22.401  0.00  0.00    +0.405 C 
ATOM     30  H   UNL     1      36.844 -16.623 -22.920  0.00  0.00    -0.079 HD
BRANCH  29  31
ATOM     31  O   UNL     1      32.954 -13.633 -21.094  0.00  0.00    -0.430 OA
ATOM     32  C   UNL     1      32.049 -12.551 -20.849  0.00  0.00    +0.257 C 
ENDBRANCH  29  31
ENDBRANCH  21  23
ENDBRANCH   2  21
TORSDOF 5
ENDMDL
MODEL 7
REMARK VINA RESULT:      -9.9      3.999     12.066
REMARK  Name = 11689883
REMARK  5 active torsions:
REMARK  status: ('A' for Active; 'I' for Inactive)
REMARK    1  A    between atoms: C_2  and  C_21
REMARK    2  A    between atoms: C_5  and  N_9
REMARK    3  A    between atoms: N_10  and  C_15
REMARK    4  A    between atoms: C_21  and  N_23
REMARK    5  A    between atoms: C_29  and  O_31
REMARK                            x       y       z     vdW  Elec       q    Type
REMARK                         _______ _______ _______ _____ _____    ______ ____
ROOT
ATOM      1  F   UNL     1      33.313 -11.016 -24.042  0.00  0.00    -0.203 F 
ATOM      2  C   UNL     1      33.337 -12.817 -22.503  0.00  0.00    -0.014 C 
ATOM      3  C   UNL     1      32.832 -11.598 -22.932  0.00  0.00    +0.147 C 
ATOM      4  C   UNL     1      32.846 -13.430 -21.358  0.00  0.00    -0.004 C 
ATOM      5  C   UNL     1      31.817 -10.979 -22.203  0.00  0.00    +0.079 C 
ATOM      6  C   UNL     1      31.832 -12.811 -20.628  0.00  0.00    +0.001 C 
ATOM      7  C   UNL     1      31.317 -11.585 -21.050  0.00  0.00    +0.017 C 
ENDROOT
BRANCH   5   9
ATOM      8  O   UNL     1      33.075  -8.270 -22.238  0.00  0.00    -0.252 OA
ATOM      9  N   UNL     1      31.301  -9.753 -22.623  0.00  0.00    -0.266 N 
ATOM     10  N   UNL     1      31.050  -7.513 -23.132  0.00  0.00    -0.267 N 
ATOM     11  C   UNL     1      31.930  -8.483 -22.625  0.00  0.00    +0.308 C 
ATOM     12  H   UNL     1      30.377  -9.771 -22.962  0.00  0.00    +0.156 HD
ATOM     13  H   UNL     1      30.160  -7.836 -23.403  0.00  0.00    +0.156 HD
BRANCH  10  15
ATOM     14  N   UNL     1      30.781  -3.876 -22.647  0.00  0.00    -0.247 NA
ATOM     15  C   UNL     1      31.285  -6.128 -23.301  0.00  0.00    +0.071 C 
ATOM     16  C   UNL     1      32.198  -5.688 -24.236  0.00  0.00    +0.018 C 
ATOM     17  C   UNL     1      30.605  -5.212 -22.535  0.00  0.00    +0.113 C 
ATOM     18  C   UNL     1      32.407  -4.320 -24.381  0.00  0.00    +0.016 C 
ATOM     19  C   UNL     1      31.679  -3.464 -23.570  0.00  0.00    +0.059 C 
ATOM     20  C   UNL     1      31.878  -1.990 -23.697  0.00  0.00    +0.052 C 
ENDBRANCH  10  15
ENDBRANCH   5   9
BRANCH   2  21
ATOM     21  C   UNL     1      34.431 -13.489 -23.288  0.00  0.00    -0.047 C 
BRANCH  21  23
ATOM     22  O   UNL     1      37.182 -19.107 -23.275  0.00  0.00    -0.226 OA
ATOM     23  N   UNL     1      34.473 -14.930 -23.042  0.00  0.00    +0.392 N 
ATOM     24  N   UNL     1      35.727 -17.451 -22.542  0.00  0.00    -0.250 N 
ATOM     25  C   UNL     1      35.218 -15.615 -24.108  0.00  0.00    -0.055 C 
ATOM     26  C   UNL     1      35.075 -15.212 -21.730  0.00  0.00    -0.055 C 
ATOM     27  C   UNL     1      35.232 -17.125 -23.877  0.00  0.00    +0.074 C 
ATOM     28  C   UNL     1      35.090 -16.715 -21.447  0.00  0.00    +0.074 C 
ATOM     29  C   UNL     1      36.646 -18.487 -22.358  0.00  0.00    +0.405 C 
ATOM     30  H   UNL     1      33.516 -15.283 -23.040  0.00  0.00    -0.079 HD
BRANCH  29  31
ATOM     31  O   UNL     1      36.890 -18.747 -21.036  0.00  0.00    -0.430 OA
ATOM     32  C   UNL     1      36.639 -20.088 -20.600  0.00  0.00    +0.257 C 
ENDBRANCH  29  31
ENDBRANCH  21  23
ENDBRANCH   2  21
TORSDOF 5
ENDMDL
MODEL 8
REMARK VINA RESULT:      -9.8      5.214     12.546
REMARK  Name = 11689883
REMARK  5 active torsions:
REMARK  status: ('A' for Active; 'I' for Inactive)
REMARK    1  A    between atoms: C_2  and  C_21
REMARK    2  A    between atoms: C_5  and  N_9
REMARK    3  A    between atoms: N_10  and  C_15
REMARK    4  A    between atoms: C_21  and  N_23
REMARK    5  A    between atoms: C_29  and  O_31
REMARK                            x       y       z     vdW  Elec       q    Type
REMARK                         _______ _______ _______ _____ _____    ______ ____
ROOT
ATOM      1  F   UNL     1      31.859 -10.341 -23.250  0.00  0.00    -0.203 F 
ATOM      2  C   UNL     1      31.954 -11.094 -21.005  0.00  0.00    -0.014 C 
ATOM      3  C   UNL     1      31.971 -10.069 -21.940  0.00  0.00    +0.147 C 
ATOM      4  C   UNL     1      32.068 -10.824 -19.648  0.00  0.00    -0.004 C 
ATOM      5  C   UNL     1      32.107  -8.748 -21.511  0.00  0.00    +0.079 C 
ATOM      6  C   UNL     1      32.204  -9.505 -19.218  0.00  0.00    +0.001 C 
ATOM      7  C   UNL     1      32.223  -8.466 -20.149  0.00  0.00    +0.017 C 
ENDROOT
BRANCH   5   9
ATOM      8  O   UNL     1      34.320  -7.774 -23.262  0.00  0.00    -0.252 OA
ATOM      9  N   UNL     1      32.127  -7.708 -22.440  0.00  0.00    -0.266 N 
ATOM     10  N   UNL     1      32.790  -6.190 -24.051  0.00  0.00    -0.267 N 
ATOM     11  C   UNL     1      33.200  -7.273 -23.257  0.00  0.00    +0.308 C 
ATOM     12  H   UNL     1      31.284  -7.209 -22.543  0.00  0.00    +0.156 HD
ATOM     13  H   UNL     1      31.857  -5.899 -23.935  0.00  0.00    +0.156 HD
BRANCH  10  15
ATOM     14  N   UNL     1      33.716  -3.593 -26.486  0.00  0.00    -0.247 NA
ATOM     15  C   UNL     1      33.553  -5.467 -24.997  0.00  0.00    +0.071 C 
ATOM     16  C   UNL     1      34.815  -5.897 -25.348  0.00  0.00    +0.018 C 
ATOM     17  C   UNL     1      33.041  -4.330 -25.575  0.00  0.00    +0.113 C 
ATOM     18  C   UNL     1      35.541  -5.165 -26.282  0.00  0.00    +0.016 C 
ATOM     19  C   UNL     1      34.951  -4.032 -26.817  0.00  0.00    +0.059 C 
ATOM     20  C   UNL     1      35.701  -3.222 -27.822  0.00  0.00    +0.052 C 
ENDBRANCH  10  15
ENDBRANCH   5   9
BRANCH   2  21
ATOM     21  C   UNL     1      31.807 -12.519 -21.464  0.00  0.00    -0.047 C 
BRANCH  21  23
ATOM     22  O   UNL     1      35.679 -17.296 -22.613  0.00  0.00    -0.226 OA
ATOM     23  N   UNL     1      33.093 -13.106 -21.840  0.00  0.00    +0.392 N 
ATOM     24  N   UNL     1      34.833 -15.144 -22.838  0.00  0.00    -0.250 N 
ATOM     25  C   UNL     1      33.364 -14.310 -21.040  0.00  0.00    -0.055 C 
ATOM     26  C   UNL     1      33.114 -13.425 -23.275  0.00  0.00    -0.055 C 
ATOM     27  C   UNL     1      34.724 -14.906 -21.401  0.00  0.00    +0.074 C 
ATOM     28  C   UNL     1      34.469 -14.006 -23.685  0.00  0.00    +0.074 C 
ATOM     29  C   UNL     1      35.372 -16.338 -23.321  0.00  0.00    +0.405 C 
ATOM     30  H   UNL     1      33.825 -12.422 -21.650  0.00  0.00    -0.079 HD
BRANCH  29  31
ATOM     31  O   UNL     1      35.529 -16.334 -24.681  0.00  0.00    -0.430 OA
ATOM     32  C   UNL     1      34.681 -17.224 -25.417  0.00  0.00    +0.257 C 
ENDBRANCH  29  31
ENDBRANCH  21  23
ENDBRANCH   2  21
TORSDOF 5
ENDMDL
MODEL 9
REMARK VINA RESULT:      -9.6      4.268     11.336
REMARK  Name = 11689883
REMARK  5 active torsions:
REMARK  status: ('A' for Active; 'I' for Inactive)
REMARK    1  A    between atoms: C_2  and  C_21
REMARK    2  A    between atoms: C_5  and  N_9
REMARK    3  A    between atoms: N_10  and  C_15
REMARK    4  A    between atoms: C_21  and  N_23
REMARK    5  A    between atoms: C_29  and  O_31
REMARK                            x       y       z     vdW  Elec       q    Type
REMARK                         _______ _______ _______ _____ _____    ______ ____
ROOT
ATOM      1  F   UNL     1      36.493 -22.209 -17.443  0.00  0.00    -0.203 F 
ATOM      2  C   UNL     1      34.574 -23.161 -16.429  0.00  0.00    -0.014 C 
ATOM      3  C   UNL     1      35.188 -22.520 -17.496  0.00  0.00    +0.147 C 
ATOM      4  C   UNL     1      33.226 -23.489 -16.473  0.00  0.00    -0.004 C 
ATOM      5  C   UNL     1      34.439 -22.200 -18.629  0.00  0.00    +0.079 C 
ATOM      6  C   UNL     1      32.477 -23.169 -17.605  0.00  0.00    +0.001 C 
ATOM      7  C   UNL     1      33.083 -22.524 -18.684  0.00  0.00    +0.017 C 
ENDROOT
BRANCH   5   9
ATOM      8  O   UNL     1      33.350 -20.138 -20.494  0.00  0.00    -0.252 OA
ATOM      9  N   UNL     1      35.043 -21.555 -19.708  0.00  0.00    -0.266 N 
ATOM     10  N   UNL     1      35.447 -20.193 -21.530  0.00  0.00    -0.267 N 
ATOM     11  C   UNL     1      34.493 -20.578 -20.574  0.00  0.00    +0.308 C 
ATOM     12  H   UNL     1      35.975 -21.812 -19.894  0.00  0.00    +0.156 HD
ATOM     13  H   UNL     1      36.324 -20.635 -21.467  0.00  0.00    +0.156 HD
BRANCH  10  15
ATOM     14  N   UNL     1      35.595 -16.993 -23.340  0.00  0.00    -0.247 NA
ATOM     15  C   UNL     1      35.302 -19.247 -22.572  0.00  0.00    +0.071 C 
ATOM     16  C   UNL     1      34.756 -19.623 -23.781  0.00  0.00    +0.018 C 
ATOM     17  C   UNL     1      35.706 -17.946 -22.387  0.00  0.00    +0.113 C 
ATOM     18  C   UNL     1      34.627 -18.671 -24.787  0.00  0.00    +0.016 C 
ATOM     19  C   UNL     1      35.057 -17.381 -24.517  0.00  0.00    +0.059 C 
ATOM     20  C   UNL     1      34.933 -16.334 -25.573  0.00  0.00    +0.052 C 
ENDBRANCH  10  15
ENDBRANCH   5   9
BRANCH   2  21
ATOM     21  C   UNL     1      35.378 -23.509 -15.206  0.00  0.00    -0.047 C 
BRANCH  21  23
ATOM     22  O   UNL     1      41.474 -24.792 -14.631  0.00  0.00    -0.226 OA
ATOM     23  N   UNL     1      36.608 -24.225 -15.547  0.00  0.00    +0.392 N 
ATOM     24  N   UNL     1      39.241 -25.241 -15.090  0.00  0.00    -0.250 N 
ATOM     25  C   UNL     1      37.761 -23.314 -15.514  0.00  0.00    -0.055 C 
ATOM     26  C   UNL     1      36.818 -25.356 -14.630  0.00  0.00    -0.055 C 
ATOM     27  C   UNL     1      39.043 -24.046 -15.907  0.00  0.00    +0.074 C 
ATOM     28  C   UNL     1      38.082 -26.132 -15.002  0.00  0.00    +0.074 C 
ATOM     29  C   UNL     1      40.498 -25.537 -14.559  0.00  0.00    +0.405 C 
ATOM     30  H   UNL     1      36.514 -24.590 -16.494  0.00  0.00    -0.079 HD
BRANCH  29  31
ATOM     31  O   UNL     1      40.536 -26.760 -13.943  0.00  0.00    -0.430 OA
ATOM     32  C   UNL     1      41.800 -27.434 -13.956  0.00  0.00    +0.257 C 
ENDBRANCH  29  31
ENDBRANCH  21  23
ENDBRANCH   2  21
TORSDOF 5
ENDMDL
