MODEL 1
REMARK VINA RESULT:     -11.4      0.000      0.000
REMARK  Name = 11574606
REMARK  6 active torsions:
REMARK  status: ('A' for Active; 'I' for Inactive)
REMARK    1  A    between atoms: C_5  and  O_24
REMARK    2  A    between atoms: C_7  and  N_10
REMARK    3  A    between atoms: N_10  and  C_12
REMARK    4  A    between atoms: C_15  and  S_18
REMARK    5  A    between atoms: S_18  and  N_21
REMARK    6  A    between atoms: O_24  and  C_25
REMARK                            x       y       z     vdW  Elec       q    Type
REMARK                         _______ _______ _______ _____ _____    ______ ____
ROOT
ATOM      1  N   UNL     1      33.184 -23.698 -14.562  0.00  0.00    -0.299 NA
ATOM      2  N   UNL     1      32.293 -23.197 -16.739  0.00  0.00    -0.106 N 
ATOM      3  N   UNL     1      31.102 -22.836 -17.284  0.00  0.00    -0.139 NA
ATOM      4  N   UNL     1      30.886 -23.075 -15.029  0.00  0.00    -0.145 NA
ATOM      5  C   UNL     1      34.307 -23.893 -15.176  0.00  0.00    +0.291 C 
ATOM      6  C   UNL     1      34.579 -23.772 -16.625  0.00  0.00    +0.105 C 
ATOM      7  C   UNL     1      33.523 -23.415 -17.377  0.00  0.00    +0.142 C 
ATOM      8  C   UNL     1      32.136 -23.338 -15.355  0.00  0.00    +0.178 C 
ATOM      9  C   UNL     1      30.307 -22.778 -16.220  0.00  0.00    +0.230 C 
ENDROOT
BRANCH   7  10
ATOM     10  N   UNL     1      33.570 -23.251 -18.732  0.00  0.00    -0.299 N 
ATOM     11  H   UNL     1      33.148 -23.963 -19.266  0.00  0.00    +0.153 HD
BRANCH  10  12
ATOM     12  C   UNL     1      34.141 -22.202 -19.460  0.00  0.00    +0.049 C 
ATOM     13  C   UNL     1      35.533 -22.055 -19.521  0.00  0.00    +0.016 C 
ATOM     14  C   UNL     1      33.328 -21.285 -20.139  0.00  0.00    +0.016 C 
ATOM     15  C   UNL     1      35.284 -20.100 -20.918  0.00  0.00    +0.122 C 
ATOM     16  C   UNL     1      36.102 -21.009 -20.247  0.00  0.00    +0.021 C 
ATOM     17  C   UNL     1      33.897 -20.238 -20.864  0.00  0.00    +0.021 C 
BRANCH  15  18
ATOM     18  S   UNL     1      35.996 -18.790 -21.826  0.00  0.00    +0.057 S 
ATOM     19  O   UNL     1      35.796 -19.053 -23.246  0.00  0.00    -0.153 OA
ATOM     20  O   UNL     1      35.542 -17.530 -21.254  0.00  0.00    -0.153 OA
BRANCH  18  21
ATOM     21  N   UNL     1      37.650 -18.997 -21.455  0.00  0.00    -0.203 NA
ATOM     22  H   UNL     1      38.026 -19.777 -21.996  0.00  0.00    +0.144 HD
ATOM     23  H   UNL     1      37.753 -19.195 -20.459  0.00  0.00    +0.144 HD
ENDBRANCH  18  21
ENDBRANCH  15  18
ENDBRANCH  10  12
ENDBRANCH   7  10
BRANCH   5  24
ATOM     24  O   UNL     1      35.409 -24.254 -14.475  0.00  0.00    -0.455 OA
BRANCH  24  25
ATOM     25  C   UNL     1      36.463 -24.685 -15.334  0.00  0.00    +0.169 C 
ATOM     26  C   UNL     1      37.757 -23.956 -14.972  0.00  0.00    +0.044 C 
ATOM     27  C   UNL     1      36.614 -26.201 -15.203  0.00  0.00    +0.044 C 
ATOM     28  C   UNL     1      38.284 -24.369 -13.596  0.00  0.00    +0.004 C 
ATOM     29  C   UNL     1      37.144 -26.610 -13.829  0.00  0.00    +0.004 C 
ATOM     30  C   UNL     1      38.441 -25.883 -13.486  0.00  0.00    +0.000 C 
ENDBRANCH  24  25
ENDBRANCH   5  24
TORSDOF 6
ENDMDL
MODEL 2
REMARK VINA RESULT:     -10.4      5.367     10.554
REMARK  Name = 11574606
REMARK  6 active torsions:
REMARK  status: ('A' for Active; 'I' for Inactive)
REMARK    1  A    between atoms: C_5  and  O_24
REMARK    2  A    between atoms: C_7  and  N_10
REMARK    3  A    between atoms: N_10  and  C_12
REMARK    4  A    between atoms: C_15  and  S_18
REMARK    5  A    between atoms: S_18  and  N_21
REMARK    6  A    between atoms: O_24  and  C_25
REMARK                            x       y       z     vdW  Elec       q    Type
REMARK                         _______ _______ _______ _____ _____    ______ ____
ROOT
ATOM      1  N   UNL     1      33.954 -14.530 -23.431  0.00  0.00    -0.299 NA
ATOM      2  N   UNL     1      35.092 -16.623 -23.766  0.00  0.00    -0.106 N 
ATOM      3  N   UNL     1      35.393 -17.455 -24.797  0.00  0.00    -0.139 NA
ATOM      4  N   UNL     1      34.236 -15.650 -25.565  0.00  0.00    -0.145 NA
ATOM      5  C   UNL     1      34.252 -14.683 -22.180  0.00  0.00    +0.291 C 
ATOM      6  C   UNL     1      34.993 -15.801 -21.556  0.00  0.00    +0.105 C 
ATOM      7  C   UNL     1      35.399 -16.761 -22.404  0.00  0.00    +0.142 C 
ATOM      8  C   UNL     1      34.382 -15.523 -24.262  0.00  0.00    +0.178 C 
ATOM      9  C   UNL     1      34.860 -16.824 -25.838  0.00  0.00    +0.230 C 
ENDROOT
BRANCH   7  10
ATOM     10  N   UNL     1      36.096 -17.873 -22.023  0.00  0.00    -0.299 N 
ATOM     11  H   UNL     1      37.057 -17.870 -22.237  0.00  0.00    +0.153 HD
BRANCH  10  12
ATOM     12  C   UNL     1      35.621 -19.014 -21.369  0.00  0.00    +0.049 C 
ATOM     13  C   UNL     1      34.256 -19.327 -21.390  0.00  0.00    +0.016 C 
ATOM     14  C   UNL     1      36.505 -19.861 -20.687  0.00  0.00    +0.016 C 
ATOM     15  C   UNL     1      34.669 -21.302 -20.061  0.00  0.00    +0.122 C 
ATOM     16  C   UNL     1      33.782 -20.466 -20.739  0.00  0.00    +0.021 C 
ATOM     17  C   UNL     1      36.031 -20.998 -20.035  0.00  0.00    +0.021 C 
BRANCH  15  18
ATOM     18  S   UNL     1      34.077 -22.726 -19.244  0.00  0.00    +0.057 S 
ATOM     19  O   UNL     1      32.734 -22.449 -18.753  0.00  0.00    -0.153 OA
ATOM     20  O   UNL     1      34.309 -23.881 -20.100  0.00  0.00    -0.153 OA
BRANCH  18  21
ATOM     21  N   UNL     1      35.145 -22.807 -17.913  0.00  0.00    -0.203 NA
ATOM     22  H   UNL     1      35.173 -23.763 -17.556  0.00  0.00    +0.144 HD
ATOM     23  H   UNL     1      34.820 -22.179 -17.178  0.00  0.00    +0.144 HD
ENDBRANCH  18  21
ENDBRANCH  15  18
ENDBRANCH  10  12
ENDBRANCH   7  10
BRANCH   5  24
ATOM     24  O   UNL     1      33.870 -13.750 -21.275  0.00  0.00    -0.455 OA
BRANCH  24  25
ATOM     25  C   UNL     1      32.451 -13.683 -21.152  0.00  0.00    +0.169 C 
ATOM     26  C   UNL     1      32.075 -13.178 -19.759  0.00  0.00    +0.044 C 
ATOM     27  C   UNL     1      31.907 -12.767 -22.249  0.00  0.00    +0.044 C 
ATOM     28  C   UNL     1      32.479 -11.717 -19.548  0.00  0.00    +0.004 C 
ATOM     29  C   UNL     1      32.308 -11.308 -22.033  0.00  0.00    +0.004 C 
ATOM     30  C   UNL     1      31.917 -10.816 -20.643  0.00  0.00    +0.000 C 
ENDBRANCH  24  25
ENDBRANCH   5  24
TORSDOF 6
ENDMDL
MODEL 3
REMARK VINA RESULT:     -10.3      3.409      7.038
REMARK  Name = 11574606
REMARK  6 active torsions:
REMARK  status: ('A' for Active; 'I' for Inactive)
REMARK    1  A    between atoms: C_5  and  O_24
REMARK    2  A    between atoms: C_7  and  N_10
REMARK    3  A    between atoms: N_10  and  C_12
REMARK    4  A    between atoms: C_15  and  S_18
REMARK    5  A    between atoms: S_18  and  N_21
REMARK    6  A    between atoms: O_24  and  C_25
REMARK                            x       y       z     vdW  Elec       q    Type
REMARK                         _______ _______ _______ _____ _____    ______ ____
ROOT
ATOM      1  N   UNL     1      31.916 -23.145 -16.945  0.00  0.00    -0.299 NA
ATOM      2  N   UNL     1      32.463 -24.621 -15.126  0.00  0.00    -0.106 N 
ATOM      3  N   UNL     1      31.815 -25.467 -14.283  0.00  0.00    -0.139 NA
ATOM      4  N   UNL     1      30.327 -24.501 -15.711  0.00  0.00    -0.145 NA
ATOM      5  C   UNL     1      33.184 -22.884 -16.983  0.00  0.00    +0.291 C 
ATOM      6  C   UNL     1      34.248 -23.439 -16.118  0.00  0.00    +0.105 C 
ATOM      7  C   UNL     1      33.831 -24.318 -15.191  0.00  0.00    +0.142 C 
ATOM      8  C   UNL     1      31.529 -24.040 -15.993  0.00  0.00    +0.178 C 
ATOM      9  C   UNL     1      30.552 -25.354 -14.679  0.00  0.00    +0.230 C 
ENDROOT
BRANCH   7  10
ATOM     10  N   UNL     1      34.659 -24.940 -14.299  0.00  0.00    -0.299 N 
ATOM     11  H   UNL     1      34.226 -25.304 -13.493  0.00  0.00    +0.153 HD
BRANCH  10  12
ATOM     12  C   UNL     1      36.043 -25.126 -14.384  0.00  0.00    +0.049 C 
ATOM     13  C   UNL     1      36.915 -24.298 -13.665  0.00  0.00    +0.016 C 
ATOM     14  C   UNL     1      36.574 -26.143 -15.188  0.00  0.00    +0.016 C 
ATOM     15  C   UNL     1      38.814 -25.499 -14.553  0.00  0.00    +0.122 C 
ATOM     16  C   UNL     1      38.295 -24.484 -13.750  0.00  0.00    +0.021 C 
ATOM     17  C   UNL     1      37.953 -26.328 -15.272  0.00  0.00    +0.021 C 
BRANCH  15  18
ATOM     18  S   UNL     1      40.541 -25.731 -14.660  0.00  0.00    +0.057 S 
ATOM     19  O   UNL     1      41.194 -24.460 -14.377  0.00  0.00    -0.153 OA
ATOM     20  O   UNL     1      40.898 -26.915 -13.890  0.00  0.00    -0.153 OA
BRANCH  18  21
ATOM     21  N   UNL     1      40.720 -26.084 -16.322  0.00  0.00    -0.203 NA
ATOM     22  H   UNL     1      41.708 -26.041 -16.575  0.00  0.00    +0.144 HD
ATOM     23  H   UNL     1      40.199 -25.401 -16.873  0.00  0.00    +0.144 HD
ENDBRANCH  18  21
ENDBRANCH  15  18
ENDBRANCH  10  12
ENDBRANCH   7  10
BRANCH   5  24
ATOM     24  O   UNL     1      33.668 -22.007 -17.894  0.00  0.00    -0.455 OA
BRANCH  24  25
ATOM     25  C   UNL     1      33.801 -22.605 -19.183  0.00  0.00    +0.169 C 
ATOM     26  C   UNL     1      32.961 -21.832 -20.201  0.00  0.00    +0.044 C 
ATOM     27  C   UNL     1      35.281 -22.617 -19.567  0.00  0.00    +0.044 C 
ATOM     28  C   UNL     1      33.507 -20.425 -20.449  0.00  0.00    +0.004 C 
ATOM     29  C   UNL     1      35.823 -21.210 -19.818  0.00  0.00    +0.004 C 
ATOM     30  C   UNL     1      34.981 -20.457 -20.843  0.00  0.00    +0.000 C 
ENDBRANCH  24  25
ENDBRANCH   5  24
TORSDOF 6
ENDMDL
MODEL 4
REMARK VINA RESULT:     -10.1      5.434     10.582
REMARK  Name = 11574606
REMARK  6 active torsions:
REMARK  status: ('A' for Active; 'I' for Inactive)
REMARK    1  A    between atoms: C_5  and  O_24
REMARK    2  A    between atoms: C_7  and  N_10
REMARK    3  A    between atoms: N_10  and  C_12
REMARK    4  A    between atoms: C_15  and  S_18
REMARK    5  A    between atoms: S_18  and  N_21
REMARK    6  A    between atoms: O_24  and  C_25
REMARK                            x       y       z     vdW  Elec       q    Type
REMARK                         _______ _______ _______ _____ _____    ______ ____
ROOT
ATOM      1  N   UNL     1      33.749 -14.368 -23.465  0.00  0.00    -0.299 NA
ATOM      2  N   UNL     1      34.939 -16.410 -23.909  0.00  0.00    -0.106 N 
ATOM      3  N   UNL     1      35.201 -17.216 -24.972  0.00  0.00    -0.139 NA
ATOM      4  N   UNL     1      33.929 -15.445 -25.632  0.00  0.00    -0.145 NA
ATOM      5  C   UNL     1      34.134 -14.527 -22.239  0.00  0.00    +0.291 C 
ATOM      6  C   UNL     1      34.956 -15.625 -21.684  0.00  0.00    +0.105 C 
ATOM      7  C   UNL     1      35.341 -16.557 -22.573  0.00  0.00    +0.142 C 
ATOM      8  C   UNL     1      34.157 -15.331 -24.339  0.00  0.00    +0.178 C 
ATOM      9  C   UNL     1      34.577 -16.590 -25.965  0.00  0.00    +0.230 C 
ENDROOT
BRANCH   7  10
ATOM     10  N   UNL     1      36.103 -17.646 -22.258  0.00  0.00    -0.299 N 
ATOM     11  H   UNL     1      37.041 -17.614 -22.555  0.00  0.00    +0.153 HD
BRANCH  10  12
ATOM     12  C   UNL     1      35.722 -18.802 -21.569  0.00  0.00    +0.049 C 
ATOM     13  C   UNL     1      36.680 -19.591 -20.921  0.00  0.00    +0.016 C 
ATOM     14  C   UNL     1      34.375 -19.185 -21.518  0.00  0.00    +0.016 C 
ATOM     15  C   UNL     1      34.957 -21.118 -20.189  0.00  0.00    +0.122 C 
ATOM     16  C   UNL     1      36.300 -20.744 -20.233  0.00  0.00    +0.021 C 
ATOM     17  C   UNL     1      33.995 -20.338 -20.831  0.00  0.00    +0.021 C 
BRANCH  15  18
ATOM     18  S   UNL     1      34.480 -22.560 -19.330  0.00  0.00    +0.057 S 
ATOM     19  O   UNL     1      34.460 -23.671 -20.273  0.00  0.00    -0.153 OA
ATOM     20  O   UNL     1      35.273 -22.659 -18.113  0.00  0.00    -0.153 OA
BRANCH  18  21
ATOM     21  N   UNL     1      32.871 -22.170 -18.906  0.00  0.00    -0.203 NA
ATOM     22  H   UNL     1      32.227 -22.749 -19.446  0.00  0.00    +0.144 HD
ATOM     23  H   UNL     1      32.695 -21.186 -19.108  0.00  0.00    +0.144 HD
ENDBRANCH  18  21
ENDBRANCH  15  18
ENDBRANCH  10  12
ENDBRANCH   7  10
BRANCH   5  24
ATOM     24  O   UNL     1      33.780 -13.623 -21.295  0.00  0.00    -0.455 OA
BRANCH  24  25
ATOM     25  C   UNL     1      32.366 -13.583 -21.106  0.00  0.00    +0.169 C 
ATOM     26  C   UNL     1      32.047 -13.154 -19.673  0.00  0.00    +0.044 C 
ATOM     27  C   UNL     1      31.761 -12.623 -22.130  0.00  0.00    +0.044 C 
ATOM     28  C   UNL     1      32.441 -11.700 -19.407  0.00  0.00    +0.004 C 
ATOM     29  C   UNL     1      32.153 -11.170 -21.859  0.00  0.00    +0.004 C 
ATOM     30  C   UNL     1      31.818 -10.754 -20.430  0.00  0.00    +0.000 C 
ENDBRANCH  24  25
ENDBRANCH   5  24
TORSDOF 6
ENDMDL
MODEL 5
REMARK VINA RESULT:      -9.9      3.688      7.216
REMARK  Name = 11574606
REMARK  6 active torsions:
REMARK  status: ('A' for Active; 'I' for Inactive)
REMARK    1  A    between atoms: C_5  and  O_24
REMARK    2  A    between atoms: C_7  and  N_10
REMARK    3  A    between atoms: N_10  and  C_12
REMARK    4  A    between atoms: C_15  and  S_18
REMARK    5  A    between atoms: S_18  and  N_21
REMARK    6  A    between atoms: O_24  and  C_25
REMARK                            x       y       z     vdW  Elec       q    Type
REMARK                         _______ _______ _______ _____ _____    ______ ____
ROOT
ATOM      1  N   UNL     1      37.464 -22.627 -16.733  0.00  0.00    -0.299 NA
ATOM      2  N   UNL     1      36.217 -23.970 -15.176  0.00  0.00    -0.106 N 
ATOM      3  N   UNL     1      36.469 -24.804 -14.133  0.00  0.00    -0.139 NA
ATOM      4  N   UNL     1      38.425 -23.995 -14.974  0.00  0.00    -0.145 NA
ATOM      5  C   UNL     1      36.311 -22.301 -17.222  0.00  0.00    +0.291 C 
ATOM      6  C   UNL     1      34.976 -22.752 -16.771  0.00  0.00    +0.105 C 
ATOM      7  C   UNL     1      34.981 -23.600 -15.727  0.00  0.00    +0.142 C 
ATOM      8  C   UNL     1      37.432 -23.487 -15.676  0.00  0.00    +0.178 C 
ATOM      9  C   UNL     1      37.796 -24.777 -14.061  0.00  0.00    +0.230 C 
ENDROOT
BRANCH   7  10
ATOM     10  N   UNL     1      33.854 -24.128 -15.165  0.00  0.00    -0.299 N 
ATOM     11  H   UNL     1      33.999 -24.742 -14.410  0.00  0.00    +0.153 HD
BRANCH  10  12
ATOM     12  C   UNL     1      32.520 -23.909 -15.525  0.00  0.00    +0.049 C 
ATOM     13  C   UNL     1      31.488 -24.607 -14.885  0.00  0.00    +0.016 C 
ATOM     14  C   UNL     1      32.199 -22.988 -16.531  0.00  0.00    +0.016 C 
ATOM     15  C   UNL     1      29.849 -23.470 -16.248  0.00  0.00    +0.122 C 
ATOM     16  C   UNL     1      30.158 -24.388 -15.244  0.00  0.00    +0.021 C 
ATOM     17  C   UNL     1      30.870 -22.771 -16.891  0.00  0.00    +0.021 C 
BRANCH  15  18
ATOM     18  S   UNL     1      28.185 -23.197 -16.699  0.00  0.00    +0.057 S 
ATOM     19  O   UNL     1      27.364 -23.277 -15.497  0.00  0.00    -0.153 OA
ATOM     20  O   UNL     1      28.121 -22.009 -17.539  0.00  0.00    -0.153 OA
BRANCH  18  21
ATOM     21  N   UNL     1      27.880 -24.571 -17.667  0.00  0.00    -0.203 NA
ATOM     22  H   UNL     1      26.874 -24.670 -17.809  0.00  0.00    +0.144 HD
ATOM     23  H   UNL     1      28.240 -25.403 -17.200  0.00  0.00    +0.144 HD
ENDBRANCH  18  21
ENDBRANCH  15  18
ENDBRANCH  10  12
ENDBRANCH   7  10
BRANCH   5  24
ATOM     24  O   UNL     1      36.237 -21.451 -18.274  0.00  0.00    -0.455 OA
BRANCH  24  25
ATOM     25  C   UNL     1      35.998 -22.145 -19.497  0.00  0.00    +0.169 C 
ATOM     26  C   UNL     1      34.505 -22.452 -19.635  0.00  0.00    +0.044 C 
ATOM     27  C   UNL     1      36.506 -21.287 -20.655  0.00  0.00    +0.044 C 
ATOM     28  C   UNL     1      33.673 -21.182 -19.825  0.00  0.00    +0.004 C 
ATOM     29  C   UNL     1      35.669 -20.022 -20.846  0.00  0.00    +0.004 C 
ATOM     30  C   UNL     1      34.186 -20.344 -20.993  0.00  0.00    +0.000 C 
ENDBRANCH  24  25
ENDBRANCH   5  24
TORSDOF 6
ENDMDL
MODEL 6
REMARK VINA RESULT:      -9.9      1.956      5.323
REMARK  Name = 11574606
REMARK  6 active torsions:
REMARK  status: ('A' for Active; 'I' for Inactive)
REMARK    1  A    between atoms: C_5  and  O_24
REMARK    2  A    between atoms: C_7  and  N_10
REMARK    3  A    between atoms: N_10  and  C_12
REMARK    4  A    between atoms: C_15  and  S_18
REMARK    5  A    between atoms: S_18  and  N_21
REMARK    6  A    between atoms: O_24  and  C_25
REMARK                            x       y       z     vdW  Elec       q    Type
REMARK                         _______ _______ _______ _____ _____    ______ ____
ROOT
ATOM      1  N   UNL     1      31.962 -23.397 -15.415  0.00  0.00    -0.299 NA
ATOM      2  N   UNL     1      34.093 -23.681 -16.493  0.00  0.00    -0.106 N 
ATOM      3  N   UNL     1      35.339 -24.117 -16.169  0.00  0.00    -0.139 NA
ATOM      4  N   UNL     1      33.969 -24.254 -14.355  0.00  0.00    -0.145 NA
ATOM      5  C   UNL     1      31.553 -22.959 -16.562  0.00  0.00    +0.291 C 
ATOM      6  C   UNL     1      32.335 -22.820 -17.810  0.00  0.00    +0.105 C 
ATOM      7  C   UNL     1      33.621 -23.201 -17.724  0.00  0.00    +0.142 C 
ATOM      8  C   UNL     1      33.271 -23.775 -15.364  0.00  0.00    +0.178 C 
ATOM      9  C   UNL     1      35.203 -24.445 -14.888  0.00  0.00    +0.230 C 
ENDROOT
BRANCH   7  10
ATOM     10  N   UNL     1      34.505 -23.151 -18.764  0.00  0.00    -0.299 N 
ATOM     11  H   UNL     1      34.944 -24.001 -18.996  0.00  0.00    +0.153 HD
BRANCH  10  12
ATOM     12  C   UNL     1      34.868 -22.046 -19.542  0.00  0.00    +0.049 C 
ATOM     13  C   UNL     1      33.895 -21.310 -20.229  0.00  0.00    +0.016 C 
ATOM     14  C   UNL     1      36.212 -21.661 -19.643  0.00  0.00    +0.016 C 
ATOM     15  C   UNL     1      35.597 -19.834 -21.099  0.00  0.00    +0.122 C 
ATOM     16  C   UNL     1      34.257 -20.209 -21.004  0.00  0.00    +0.021 C 
ATOM     17  C   UNL     1      36.574 -20.561 -20.419  0.00  0.00    +0.021 C 
BRANCH  15  18
ATOM     18  S   UNL     1      36.052 -18.456 -22.070  0.00  0.00    +0.057 S 
ATOM     19  O   UNL     1      35.532 -18.652 -23.417  0.00  0.00    -0.153 OA
ATOM     20  O   UNL     1      35.721 -17.243 -21.336  0.00  0.00    -0.153 OA
BRANCH  18  21
ATOM     21  N   UNL     1      37.751 -18.629 -22.105  0.00  0.00    -0.203 NA
ATOM     22  H   UNL     1      38.142 -18.006 -22.812  0.00  0.00    +0.144 HD
ATOM     23  H   UNL     1      37.991 -19.594 -22.334  0.00  0.00    +0.144 HD
ENDBRANCH  18  21
ENDBRANCH  15  18
ENDBRANCH  10  12
ENDBRANCH   7  10
BRANCH   5  24
ATOM     24  O   UNL     1      30.267 -22.558 -16.715  0.00  0.00    -0.455 OA
BRANCH  24  25
ATOM     25  C   UNL     1      29.355 -23.643 -16.554  0.00  0.00    +0.169 C 
ATOM     26  C   UNL     1      28.700 -23.567 -15.174  0.00  0.00    +0.044 C 
ATOM     27  C   UNL     1      28.317 -23.581 -17.674  0.00  0.00    +0.044 C 
ATOM     28  C   UNL     1      27.776 -22.355 -15.041  0.00  0.00    +0.004 C 
ATOM     29  C   UNL     1      27.392 -22.372 -17.537  0.00  0.00    +0.004 C 
ATOM     30  C   UNL     1      26.738 -22.316 -16.160  0.00  0.00    +0.000 C 
ENDBRANCH  24  25
ENDBRANCH   5  24
TORSDOF 6
ENDMDL
MODEL 7
REMARK VINA RESULT:      -9.7      5.190     10.749
REMARK  Name = 11574606
REMARK  6 active torsions:
REMARK  status: ('A' for Active; 'I' for Inactive)
REMARK    1  A    between atoms: C_5  and  O_24
REMARK    2  A    between atoms: C_7  and  N_10
REMARK    3  A    between atoms: N_10  and  C_12
REMARK    4  A    between atoms: C_15  and  S_18
REMARK    5  A    between atoms: S_18  and  N_21
REMARK    6  A    between atoms: O_24  and  C_25
REMARK                            x       y       z     vdW  Elec       q    Type
REMARK                         _______ _______ _______ _____ _____    ______ ____
ROOT
ATOM      1  N   UNL     1      34.405 -16.223 -24.987  0.00  0.00    -0.299 NA
ATOM      2  N   UNL     1      35.189 -18.246 -23.950  0.00  0.00    -0.106 N 
ATOM      3  N   UNL     1      35.195 -19.579 -24.214  0.00  0.00    -0.139 NA
ATOM      4  N   UNL     1      34.162 -18.456 -25.904  0.00  0.00    -0.145 NA
ATOM      5  C   UNL     1      34.895 -15.620 -23.951  0.00  0.00    +0.291 C 
ATOM      6  C   UNL     1      35.585 -16.229 -22.793  0.00  0.00    +0.105 C 
ATOM      7  C   UNL     1      35.710 -17.566 -22.839  0.00  0.00    +0.142 C 
ATOM      8  C   UNL     1      34.549 -17.578 -25.001  0.00  0.00    +0.178 C 
ATOM      9  C   UNL     1      34.573 -19.641 -25.387  0.00  0.00    +0.230 C 
ENDROOT
BRANCH   7  10
ATOM     10  N   UNL     1      36.316 -18.313 -21.868  0.00  0.00    -0.299 N 
ATOM     11  H   UNL     1      37.232 -18.043 -21.629  0.00  0.00    +0.153 HD
BRANCH  10  12
ATOM     12  C   UNL     1      35.803 -19.411 -21.171  0.00  0.00    +0.049 C 
ATOM     13  C   UNL     1      36.663 -20.307 -20.526  0.00  0.00    +0.016 C 
ATOM     14  C   UNL     1      34.419 -19.628 -21.109  0.00  0.00    +0.016 C 
ATOM     15  C   UNL     1      34.773 -21.611 -19.774  0.00  0.00    +0.122 C 
ATOM     16  C   UNL     1      36.151 -21.403 -19.830  0.00  0.00    +0.021 C 
ATOM     17  C   UNL     1      33.908 -20.723 -20.414  0.00  0.00    +0.021 C 
BRANCH  15  18
ATOM     18  S   UNL     1      34.131 -22.982 -18.905  0.00  0.00    +0.057 S 
ATOM     19  O   UNL     1      34.018 -24.101 -19.832  0.00  0.00    -0.153 OA
ATOM     20  O   UNL     1      34.883 -23.140 -17.668  0.00  0.00    -0.153 OA
BRANCH  18  21
ATOM     21  N   UNL     1      32.562 -22.421 -18.526  0.00  0.00    -0.203 NA
ATOM     22  H   UNL     1      31.873 -23.115 -18.818  0.00  0.00    +0.144 HD
ATOM     23  H   UNL     1      32.387 -21.543 -19.014  0.00  0.00    +0.144 HD
ENDBRANCH  18  21
ENDBRANCH  15  18
ENDBRANCH  10  12
ENDBRANCH   7  10
BRANCH   5  24
ATOM     24  O   UNL     1      34.801 -14.273 -23.843  0.00  0.00    -0.455 OA
BRANCH  24  25
ATOM     25  C   UNL     1      33.624 -13.774 -24.477  0.00  0.00    +0.169 C 
ATOM     26  C   UNL     1      32.579 -13.418 -23.419  0.00  0.00    +0.044 C 
ATOM     27  C   UNL     1      34.002 -12.561 -25.327  0.00  0.00    +0.044 C 
ATOM     28  C   UNL     1      33.008 -12.223 -22.565  0.00  0.00    +0.004 C 
ATOM     29  C   UNL     1      34.426 -11.367 -24.471  0.00  0.00    +0.004 C 
ATOM     30  C   UNL     1      33.369 -11.017 -23.429  0.00  0.00    +0.000 C 
ENDBRANCH  24  25
ENDBRANCH   5  24
TORSDOF 6
ENDMDL
MODEL 8
REMARK VINA RESULT:      -9.6      7.753     11.405
REMARK  Name = 11574606
REMARK  6 active torsions:
REMARK  status: ('A' for Active; 'I' for Inactive)
REMARK    1  A    between atoms: C_5  and  O_24
REMARK    2  A    between atoms: C_7  and  N_10
REMARK    3  A    between atoms: N_10  and  C_12
REMARK    4  A    between atoms: C_15  and  S_18
REMARK    5  A    between atoms: S_18  and  N_21
REMARK    6  A    between atoms: O_24  and  C_25
REMARK                            x       y       z     vdW  Elec       q    Type
REMARK                         _______ _______ _______ _____ _____    ______ ____
ROOT
ATOM      1  N   UNL     1      35.259 -16.401 -24.663  0.00  0.00    -0.299 NA
ATOM      2  N   UNL     1      33.691 -14.583 -24.801  0.00  0.00    -0.106 N 
ATOM      3  N   UNL     1      33.002 -13.914 -25.763  0.00  0.00    -0.139 NA
ATOM      4  N   UNL     1      34.277 -15.546 -26.710  0.00  0.00    -0.145 NA
ATOM      5  C   UNL     1      35.237 -16.192 -23.385  0.00  0.00    +0.291 C 
ATOM      6  C   UNL     1      34.458 -15.172 -22.649  0.00  0.00    +0.105 C 
ATOM      7  C   UNL     1      33.687 -14.379 -23.413  0.00  0.00    +0.142 C 
ATOM      8  C   UNL     1      34.465 -15.580 -25.407  0.00  0.00    +0.178 C 
ATOM      9  C   UNL     1      33.391 -14.532 -26.874  0.00  0.00    +0.230 C 
ENDROOT
BRANCH   7  10
ATOM     10  N   UNL     1      32.895 -13.380 -22.923  0.00  0.00    -0.299 N 
ATOM     11  H   UNL     1      32.127 -13.669 -22.379  0.00  0.00    +0.153 HD
BRANCH  10  12
ATOM     12  C   UNL     1      33.034 -11.998 -23.096  0.00  0.00    +0.049 C 
ATOM     13  C   UNL     1      34.034 -11.484 -23.930  0.00  0.00    +0.016 C 
ATOM     14  C   UNL     1      32.172 -11.111 -22.436  0.00  0.00    +0.016 C 
ATOM     15  C   UNL     1      33.310  -9.232 -23.440  0.00  0.00    +0.122 C 
ATOM     16  C   UNL     1      34.172 -10.107 -24.102  0.00  0.00    +0.021 C 
ATOM     17  C   UNL     1      32.311  -9.735 -22.608  0.00  0.00    +0.021 C 
BRANCH  15  18
ATOM     18  S   UNL     1      33.483  -7.508 -23.654  0.00  0.00    +0.057 S 
ATOM     19  O   UNL     1      34.773  -7.250 -24.280  0.00  0.00    -0.153 OA
ATOM     20  O   UNL     1      32.267  -6.993 -24.267  0.00  0.00    -0.153 OA
BRANCH  18  21
ATOM     21  N   UNL     1      33.543  -6.983 -22.030  0.00  0.00    -0.203 NA
ATOM     22  H   UNL     1      33.639  -5.967 -22.004  0.00  0.00    +0.144 HD
ATOM     23  H   UNL     1      34.343  -7.411 -21.563  0.00  0.00    +0.144 HD
ENDBRANCH  18  21
ENDBRANCH  15  18
ENDBRANCH  10  12
ENDBRANCH   7  10
BRANCH   5  24
ATOM     24  O   UNL     1      35.991 -16.956 -22.560  0.00  0.00    -0.455 OA
BRANCH  24  25
ATOM     25  C   UNL     1      36.299 -18.220 -23.146  0.00  0.00    +0.169 C 
ATOM     26  C   UNL     1      37.559 -18.798 -22.499  0.00  0.00    +0.044 C 
ATOM     27  C   UNL     1      35.098 -19.148 -22.969  0.00  0.00    +0.044 C 
ATOM     28  C   UNL     1      37.331 -19.177 -21.035  0.00  0.00    +0.004 C 
ATOM     29  C   UNL     1      34.875 -19.530 -21.506  0.00  0.00    +0.004 C 
ATOM     30  C   UNL     1      36.136 -20.114 -20.877  0.00  0.00    +0.000 C 
ENDBRANCH  24  25
ENDBRANCH   5  24
TORSDOF 6
ENDMDL
MODEL 9
REMARK VINA RESULT:      -9.3      3.948      6.926
REMARK  Name = 11574606
REMARK  6 active torsions:
REMARK  status: ('A' for Active; 'I' for Inactive)
REMARK    1  A    between atoms: C_5  and  O_24
REMARK    2  A    between atoms: C_7  and  N_10
REMARK    3  A    between atoms: N_10  and  C_12
REMARK    4  A    between atoms: C_15  and  S_18
REMARK    5  A    between atoms: S_18  and  N_21
REMARK    6  A    between atoms: O_24  and  C_25
REMARK                            x       y       z     vdW  Elec       q    Type
REMARK                         _______ _______ _______ _____ _____    ______ ____
ROOT
ATOM      1  N   UNL     1      37.113 -23.830 -14.490  0.00  0.00    -0.299 NA
ATOM      2  N   UNL     1      35.314 -24.584 -13.082  0.00  0.00    -0.106 N 
ATOM      3  N   UNL     1      35.138 -24.980 -11.795  0.00  0.00    -0.139 NA
ATOM      4  N   UNL     1      37.322 -24.442 -12.151  0.00  0.00    -0.145 NA
ATOM      5  C   UNL     1      36.217 -23.748 -15.421  0.00  0.00    +0.291 C 
ATOM      6  C   UNL     1      34.776 -24.066 -15.320  0.00  0.00    +0.105 C 
ATOM      7  C   UNL     1      34.366 -24.486 -14.111  0.00  0.00    +0.142 C 
ATOM      8  C   UNL     1      36.662 -24.259 -13.277  0.00  0.00    +0.178 C 
ATOM      9  C   UNL     1      36.364 -24.874 -11.292  0.00  0.00    +0.230 C 
ENDROOT
BRANCH   7  10
ATOM     10  N   UNL     1      33.076 -24.827 -13.817  0.00  0.00    -0.299 N 
ATOM     11  H   UNL     1      32.957 -25.430 -13.048  0.00  0.00    +0.153 HD
BRANCH  10  12
ATOM     12  C   UNL     1      31.903 -24.431 -14.469  0.00  0.00    +0.049 C 
ATOM     13  C   UNL     1      30.867 -25.348 -14.684  0.00  0.00    +0.016 C 
ATOM     14  C   UNL     1      31.751 -23.111 -14.913  0.00  0.00    +0.016 C 
ATOM     15  C   UNL     1      29.555 -23.637 -15.774  0.00  0.00    +0.122 C 
ATOM     16  C   UNL     1      29.697 -24.952 -15.333  0.00  0.00    +0.021 C 
ATOM     17  C   UNL     1      30.582 -22.716 -15.563  0.00  0.00    +0.021 C 
BRANCH  15  18
ATOM     18  S   UNL     1      28.092 -23.141 -16.587  0.00  0.00    +0.057 S 
ATOM     19  O   UNL     1      27.016 -23.089 -15.606  0.00  0.00    -0.153 OA
ATOM     20  O   UNL     1      28.388 -21.969 -17.399  0.00  0.00    -0.153 OA
BRANCH  18  21
ATOM     21  N   UNL     1      27.829 -24.474 -17.623  0.00  0.00    -0.203 NA
ATOM     22  H   UNL     1      28.727 -24.867 -17.907  0.00  0.00    +0.144 HD
ATOM     23  H   UNL     1      27.316 -24.166 -18.450  0.00  0.00    +0.144 HD
ENDBRANCH  18  21
ENDBRANCH  15  18
ENDBRANCH  10  12
ENDBRANCH   7  10
BRANCH   5  24
ATOM     24  O   UNL     1      36.566 -23.332 -16.662  0.00  0.00    -0.455 OA
BRANCH  24  25
ATOM     25  C   UNL     1      36.016 -22.051 -16.963  0.00  0.00    +0.169 C 
ATOM     26  C   UNL     1      36.957 -21.291 -17.899  0.00  0.00    +0.044 C 
ATOM     27  C   UNL     1      34.634 -22.245 -17.587  0.00  0.00    +0.044 C 
ATOM     28  C   UNL     1      37.032 -21.934 -19.285  0.00  0.00    +0.004 C 
ATOM     29  C   UNL     1      34.713 -22.884 -18.974  0.00  0.00    +0.004 C 
ATOM     30  C   UNL     1      35.646 -22.109 -19.899  0.00  0.00    +0.000 C 
ENDBRANCH  24  25
ENDBRANCH   5  24
TORSDOF 6
ENDMDL
