MODEL 1
REMARK VINA RESULT:     -11.8      0.000      0.000
REMARK  Name = 118513932
REMARK  2 active torsions:
REMARK  status: ('A' for Active; 'I' for Inactive)
REMARK    1  A    between atoms: C_4  and  N_24
REMARK    2  A    between atoms: C_10  and  C_15
REMARK                            x       y       z     vdW  Elec       q    Type
REMARK                         _______ _______ _______ _____ _____    ______ ____
ROOT
ATOM      1  O   UNL     1      33.044 -22.927 -18.836  0.00  0.00    -0.274 OA
ATOM      2  N   UNL     1      35.219 -22.275 -18.228  0.00  0.00    -0.209 N 
ATOM      3  N   UNL     1      36.329 -20.617 -19.540  0.00  0.00    -0.389 NA
ATOM      4  C   UNL     1      36.347 -23.231 -16.330  0.00  0.00    +0.063 C 
ATOM      5  C   UNL     1      35.276 -23.136 -17.138  0.00  0.00    +0.089 C 
ATOM      6  C   UNL     1      37.490 -22.392 -16.620  0.00  0.00    +0.020 C 
ATOM      7  C   UNL     1      37.498 -21.544 -17.654  0.00  0.00    +0.050 C 
ATOM      8  C   UNL     1      36.306 -21.446 -18.540  0.00  0.00    +0.193 C 
ATOM      9  C   UNL     1      34.057 -22.251 -19.009  0.00  0.00    +0.242 C 
ATOM     10  C   UNL     1      35.208 -20.572 -20.319  0.00  0.00    +0.139 C 
ATOM     11  C   UNL     1      34.100 -21.299 -20.144  0.00  0.00    +0.146 C 
ENDROOT
BRANCH  10  15
ATOM     12  N   UNL     1      35.208 -17.632 -22.413  0.00  0.00    -0.178 N 
ATOM     13  N   UNL     1      35.204 -18.355 -21.263  0.00  0.00    -0.173 NA
ATOM     14  N   UNL     1      35.217 -17.130 -24.583  0.00  0.00    -0.392 NA
ATOM     15  C   UNL     1      35.209 -19.644 -21.454  0.00  0.00    +0.124 C 
ATOM     16  C   UNL     1      35.218 -20.305 -22.794  0.00  0.00    +0.023 C 
ATOM     17  C   UNL     1      35.221 -19.532 -23.896  0.00  0.00    +0.025 C 
ATOM     18  C   UNL     1      35.216 -18.117 -23.708  0.00  0.00    +0.198 C 
ATOM     19  C   UNL     1      35.204 -16.265 -22.493  0.00  0.00    +0.173 C 
ATOM     20  C   UNL     1      35.210 -15.981 -23.837  0.00  0.00    +0.111 C 
ATOM     21  C   UNL     1      35.230 -20.176 -25.259  0.00  0.00    +0.035 C 
ATOM     22  C   UNL     1      35.210 -14.664 -24.491  0.00  0.00    +0.063 C 
ENDBRANCH  10  15
BRANCH   4  24
ATOM     23  N   UNL     1      36.275 -25.230 -12.637  0.00  0.00    +0.389 N 
ATOM     24  N   UNL     1      36.417 -24.071 -15.256  0.00  0.00    -0.311 N 
ATOM     25  C   UNL     1      37.388 -24.326 -13.029  0.00  0.00    -0.027 C 
ATOM     26  C   UNL     1      38.571 -24.211 -12.094  0.00  0.00    -0.020 C 
ATOM     27  C   UNL     1      37.611 -23.066 -12.219  0.00  0.00    -0.020 C 
ATOM     28  C   UNL     1      37.666 -24.281 -14.517  0.00  0.00    +0.071 C 
ATOM     29  C   UNL     1      35.060 -24.885 -13.379  0.00  0.00    -0.060 C 
ATOM     30  C   UNL     1      35.305 -24.951 -14.887  0.00  0.00    +0.067 C 
ATOM     31  H   UNL     1      36.098 -25.133 -11.638  0.00  0.00    -0.084 HD
ATOM     32  H   UNL     1      36.536 -26.192 -12.853  0.00  0.00    -0.084 HD
ENDBRANCH   4  24
TORSDOF 2
ENDMDL
MODEL 2
REMARK VINA RESULT:     -10.7      6.340     11.142
REMARK  Name = 118513932
REMARK  2 active torsions:
REMARK  status: ('A' for Active; 'I' for Inactive)
REMARK    1  A    between atoms: C_4  and  N_24
REMARK    2  A    between atoms: C_10  and  C_15
REMARK                            x       y       z     vdW  Elec       q    Type
REMARK                         _______ _______ _______ _____ _____    ______ ____
ROOT
ATOM      1  O   UNL     1      34.191 -12.794 -26.364  0.00  0.00    -0.274 OA
ATOM      2  N   UNL     1      34.148 -13.428 -24.101  0.00  0.00    -0.209 N 
ATOM      3  N   UNL     1      33.472 -11.818 -22.472  0.00  0.00    -0.389 NA
ATOM      4  C   UNL     1      34.765 -15.642 -23.390  0.00  0.00    +0.063 C 
ATOM      5  C   UNL     1      34.580 -14.724 -24.356  0.00  0.00    +0.089 C 
ATOM      6  C   UNL     1      34.497 -15.249 -22.023  0.00  0.00    +0.020 C 
ATOM      7  C   UNL     1      34.080 -14.017 -21.712  0.00  0.00    +0.050 C 
ATOM      8  C   UNL     1      33.878 -13.010 -22.790  0.00  0.00    +0.193 C 
ATOM      9  C   UNL     1      33.988 -12.546 -25.177  0.00  0.00    +0.242 C 
ATOM     10  C   UNL     1      33.306 -10.936 -23.502  0.00  0.00    +0.139 C 
ATOM     11  C   UNL     1      33.523 -11.191 -24.796  0.00  0.00    +0.146 C 
ENDROOT
BRANCH  10  15
ATOM     12  N   UNL     1      32.238  -7.491 -23.633  0.00  0.00    -0.178 N 
ATOM     13  N   UNL     1      32.663  -8.693 -24.101  0.00  0.00    -0.173 NA
ATOM     14  N   UNL     1      31.593  -5.891 -22.224  0.00  0.00    -0.392 NA
ATOM     15  C   UNL     1      32.848  -9.584 -23.169  0.00  0.00    +0.124 C 
ATOM     16  C   UNL     1      32.626  -9.347 -21.710  0.00  0.00    +0.023 C 
ATOM     17  C   UNL     1      32.204  -8.133 -21.309  0.00  0.00    +0.025 C 
ATOM     18  C   UNL     1      31.995  -7.143 -22.316  0.00  0.00    +0.198 C 
ATOM     19  C   UNL     1      31.969  -6.389 -24.399  0.00  0.00    +0.173 C 
ATOM     20  C   UNL     1      31.574  -5.418 -23.510  0.00  0.00    +0.111 C 
ATOM     21  C   UNL     1      31.974  -7.871 -19.844  0.00  0.00    +0.035 C 
ATOM     22  C   UNL     1      31.167  -4.034 -23.793  0.00  0.00    +0.063 C 
ENDBRANCH  10  15
BRANCH   4  24
ATOM     23  N   UNL     1      35.378 -19.770 -23.864  0.00  0.00    +0.389 N 
ATOM     24  N   UNL     1      35.188 -16.918 -23.625  0.00  0.00    -0.311 N 
ATOM     25  C   UNL     1      35.570 -19.083 -22.560  0.00  0.00    -0.027 C 
ATOM     26  C   UNL     1      36.096 -19.898 -21.400  0.00  0.00    -0.020 C 
ATOM     27  C   UNL     1      34.662 -19.461 -21.408  0.00  0.00    -0.020 C 
ATOM     28  C   UNL     1      36.030 -17.644 -22.668  0.00  0.00    +0.071 C 
ATOM     29  C   UNL     1      34.466 -18.999 -24.710  0.00  0.00    -0.060 C 
ATOM     30  C   UNL     1      34.985 -17.576 -24.919  0.00  0.00    +0.067 C 
ATOM     31  H   UNL     1      34.986 -20.697 -23.703  0.00  0.00    -0.084 HD
ATOM     32  H   UNL     1      36.280 -19.850 -24.333  0.00  0.00    -0.084 HD
ENDBRANCH   4  24
TORSDOF 2
ENDMDL
MODEL 3
REMARK VINA RESULT:     -10.4      6.198     11.096
REMARK  Name = 118513932
REMARK  2 active torsions:
REMARK  status: ('A' for Active; 'I' for Inactive)
REMARK    1  A    between atoms: C_4  and  N_24
REMARK    2  A    between atoms: C_10  and  C_15
REMARK                            x       y       z     vdW  Elec       q    Type
REMARK                         _______ _______ _______ _____ _____    ______ ____
ROOT
ATOM      1  O   UNL     1      34.071 -13.166 -26.770  0.00  0.00    -0.274 OA
ATOM      2  N   UNL     1      34.317 -13.577 -24.469  0.00  0.00    -0.209 N 
ATOM      3  N   UNL     1      33.979 -11.775 -22.939  0.00  0.00    -0.389 NA
ATOM      4  C   UNL     1      34.898 -15.753 -23.624  0.00  0.00    +0.063 C 
ATOM      5  C   UNL     1      34.631 -14.920 -24.645  0.00  0.00    +0.089 C 
ATOM      6  C   UNL     1      34.854 -15.214 -22.281  0.00  0.00    +0.020 C 
ATOM      7  C   UNL     1      34.559 -13.931 -22.045  0.00  0.00    +0.050 C 
ATOM      8  C   UNL     1      34.264 -13.019 -23.184  0.00  0.00    +0.193 C 
ATOM      9  C   UNL     1      34.055 -12.792 -25.599  0.00  0.00    +0.242 C 
ATOM     10  C   UNL     1      33.718 -10.986 -24.023  0.00  0.00    +0.139 C 
ATOM     11  C   UNL     1      33.731 -11.377 -25.301  0.00  0.00    +0.146 C 
ENDROOT
BRANCH  10  15
ATOM     12  N   UNL     1      32.136  -7.904 -23.009  0.00  0.00    -0.178 N 
ATOM     13  N   UNL     1      32.290  -9.244 -23.167  0.00  0.00    -0.173 NA
ATOM     14  N   UNL     1      32.538  -5.715 -23.099  0.00  0.00    -0.392 NA
ATOM     15  C   UNL     1      33.394  -9.578 -23.772  0.00  0.00    +0.124 C 
ATOM     16  C   UNL     1      34.421  -8.609 -24.263  0.00  0.00    +0.023 C 
ATOM     17  C   UNL     1      34.209  -7.293 -24.076  0.00  0.00    +0.025 C 
ATOM     18  C   UNL     1      33.005  -6.907 -23.414  0.00  0.00    +0.198 C 
ATOM     19  C   UNL     1      31.069  -7.291 -22.407  0.00  0.00    +0.173 C 
ATOM     20  C   UNL     1      31.340  -5.946 -22.474  0.00  0.00    +0.111 C 
ATOM     21  C   UNL     1      35.230  -6.297 -24.562  0.00  0.00    +0.035 C 
ATOM     22  C   UNL     1      30.526  -4.827 -21.978  0.00  0.00    +0.063 C 
ENDBRANCH  10  15
BRANCH   4  24
ATOM     23  N   UNL     1      35.154 -19.941 -23.824  0.00  0.00    +0.389 N 
ATOM     24  N   UNL     1      35.207 -17.074 -23.780  0.00  0.00    -0.311 N 
ATOM     25  C   UNL     1      35.445 -19.187 -22.577  0.00  0.00    -0.027 C 
ATOM     26  C   UNL     1      35.942 -19.963 -21.378  0.00  0.00    -0.020 C 
ATOM     27  C   UNL     1      34.548 -19.408 -21.377  0.00  0.00    -0.020 C 
ATOM     28  C   UNL     1      36.017 -17.802 -22.799  0.00  0.00    +0.071 C 
ATOM     29  C   UNL     1      34.280 -19.154 -24.697  0.00  0.00    -0.060 C 
ATOM     30  C   UNL     1      34.907 -17.798 -25.019  0.00  0.00    +0.067 C 
ATOM     31  H   UNL     1      34.693 -20.819 -23.588  0.00  0.00    -0.084 HD
ATOM     32  H   UNL     1      36.030 -20.128 -24.312  0.00  0.00    -0.084 HD
ENDBRANCH   4  24
TORSDOF 2
ENDMDL
MODEL 4
REMARK VINA RESULT:     -10.4      7.511     14.504
REMARK  Name = 118513932
REMARK  2 active torsions:
REMARK  status: ('A' for Active; 'I' for Inactive)
REMARK    1  A    between atoms: C_4  and  N_24
REMARK    2  A    between atoms: C_10  and  C_15
REMARK                            x       y       z     vdW  Elec       q    Type
REMARK                         _______ _______ _______ _____ _____    ______ ____
ROOT
ATOM      1  O   UNL     1      30.902 -10.821 -21.052  0.00  0.00    -0.274 OA
ATOM      2  N   UNL     1      32.460  -9.804 -22.488  0.00  0.00    -0.209 N 
ATOM      3  N   UNL     1      33.959 -11.193 -23.724  0.00  0.00    -0.389 NA
ATOM      4  C   UNL     1      32.582  -7.415 -22.741  0.00  0.00    +0.063 C 
ATOM      5  C   UNL     1      32.035  -8.514 -22.192  0.00  0.00    +0.089 C 
ATOM      6  C   UNL     1      33.666  -7.596 -23.683  0.00  0.00    +0.020 C 
ATOM      7  C   UNL     1      34.120  -8.810 -24.010  0.00  0.00    +0.050 C 
ATOM      8  C   UNL     1      33.506 -10.020 -23.396  0.00  0.00    +0.193 C 
ATOM      9  C   UNL     1      31.825 -10.884 -21.862  0.00  0.00    +0.242 C 
ATOM     10  C   UNL     1      33.357 -12.265 -23.129  0.00  0.00    +0.139 C 
ATOM     11  C   UNL     1      32.353 -12.214 -22.248  0.00  0.00    +0.146 C 
ENDROOT
BRANCH  10  15
ATOM     12  N   UNL     1      34.861 -15.546 -23.082  0.00  0.00    -0.178 N 
ATOM     13  N   UNL     1      34.467 -14.338 -22.602  0.00  0.00    -0.173 NA
ATOM     14  N   UNL     1      35.188 -17.251 -24.478  0.00  0.00    -0.392 NA
ATOM     15  C   UNL     1      33.851 -13.600 -23.482  0.00  0.00    +0.124 C 
ATOM     16  C   UNL     1      33.582 -14.006 -24.894  0.00  0.00    +0.023 C 
ATOM     17  C   UNL     1      33.999 -15.217 -25.309  0.00  0.00    +0.025 C 
ATOM     18  C   UNL     1      34.676 -16.041 -24.360  0.00  0.00    +0.198 C 
ATOM     19  C   UNL     1      35.525 -16.507 -22.368  0.00  0.00    +0.173 C 
ATOM     20  C   UNL     1      35.714 -17.545 -23.247  0.00  0.00    +0.111 C 
ATOM     21  C   UNL     1      33.740 -15.649 -26.729  0.00  0.00    +0.035 C 
ATOM     22  C   UNL     1      36.376 -18.836 -23.006  0.00  0.00    +0.063 C 
ENDBRANCH  10  15
BRANCH   4  24
ATOM     23  N   UNL     1      30.779  -3.638 -22.382  0.00  0.00    +0.389 N 
ATOM     24  N   UNL     1      32.175  -6.142 -22.460  0.00  0.00    -0.311 N 
ATOM     25  C   UNL     1      31.747  -3.956 -23.464  0.00  0.00    -0.027 C 
ATOM     26  C   UNL     1      32.158  -2.841 -24.399  0.00  0.00    -0.020 C 
ATOM     27  C   UNL     1      31.259  -3.933 -24.897  0.00  0.00    -0.020 C 
ATOM     28  C   UNL     1      32.804  -4.973 -23.083  0.00  0.00    +0.071 C 
ATOM     29  C   UNL     1      30.157  -4.867 -21.885  0.00  0.00    -0.060 C 
ATOM     30  C   UNL     1      31.216  -5.853 -21.390  0.00  0.00    +0.067 C 
ATOM     31  H   UNL     1      30.056  -3.019 -22.747  0.00  0.00    -0.084 HD
ATOM     32  H   UNL     1      31.274  -3.181 -21.616  0.00  0.00    -0.084 HD
ENDBRANCH   4  24
TORSDOF 2
ENDMDL
MODEL 5
REMARK VINA RESULT:     -10.3      1.388      1.967
REMARK  Name = 118513932
REMARK  2 active torsions:
REMARK  status: ('A' for Active; 'I' for Inactive)
REMARK    1  A    between atoms: C_4  and  N_24
REMARK    2  A    between atoms: C_10  and  C_15
REMARK                            x       y       z     vdW  Elec       q    Type
REMARK                         _______ _______ _______ _____ _____    ______ ____
ROOT
ATOM      1  O   UNL     1      38.094 -21.047 -17.838  0.00  0.00    -0.274 OA
ATOM      2  N   UNL     1      35.933 -21.933 -18.099  0.00  0.00    -0.209 N 
ATOM      3  N   UNL     1      34.604 -21.193 -19.940  0.00  0.00    -0.389 NA
ATOM      4  C   UNL     1      35.032 -23.555 -16.567  0.00  0.00    +0.063 C 
ATOM      5  C   UNL     1      36.025 -22.745 -16.974  0.00  0.00    +0.089 C 
ATOM      6  C   UNL     1      33.811 -23.572 -17.345  0.00  0.00    +0.020 C 
ATOM      7  C   UNL     1      33.659 -22.815 -18.436  0.00  0.00    +0.050 C 
ATOM      8  C   UNL     1      34.767 -21.923 -18.878  0.00  0.00    +0.193 C 
ATOM      9  C   UNL     1      37.025 -21.125 -18.439  0.00  0.00    +0.242 C 
ATOM     10  C   UNL     1      35.654 -20.395 -20.297  0.00  0.00    +0.139 C 
ATOM     11  C   UNL     1      36.822 -20.300 -19.654  0.00  0.00    +0.146 C 
ENDROOT
BRANCH  10  15
ATOM     12  N   UNL     1      35.308 -17.633 -22.594  0.00  0.00    -0.178 N 
ATOM     13  N   UNL     1      35.459 -18.261 -21.400  0.00  0.00    -0.173 NA
ATOM     14  N   UNL     1      35.060 -17.306 -24.784  0.00  0.00    -0.392 NA
ATOM     15  C   UNL     1      35.494 -19.561 -21.492  0.00  0.00    +0.124 C 
ATOM     16  C   UNL     1      35.382 -20.326 -22.770  0.00  0.00    +0.023 C 
ATOM     17  C   UNL     1      35.234 -19.643 -23.921  0.00  0.00    +0.025 C 
ATOM     18  C   UNL     1      35.193 -18.219 -23.841  0.00  0.00    +0.198 C 
ATOM     19  C   UNL     1      35.242 -16.277 -22.777  0.00  0.00    +0.173 C 
ATOM     20  C   UNL     1      35.089 -16.101 -24.130  0.00  0.00    +0.111 C 
ATOM     21  C   UNL     1      35.119 -20.393 -25.223  0.00  0.00    +0.035 C 
ATOM     22  C   UNL     1      34.965 -14.841 -24.878  0.00  0.00    +0.063 C 
ENDBRANCH  10  15
BRANCH   4  24
ATOM     23  N   UNL     1      35.645 -25.445 -12.867  0.00  0.00    +0.389 N 
ATOM     24  N   UNL     1      35.109 -24.358 -15.466  0.00  0.00    -0.311 N 
ATOM     25  C   UNL     1      36.676 -25.443 -13.938  0.00  0.00    -0.027 C 
ATOM     26  C   UNL     1      37.943 -26.235 -13.704  0.00  0.00    -0.020 C 
ATOM     27  C   UNL     1      37.988 -24.736 -13.671  0.00  0.00    -0.020 C 
ATOM     28  C   UNL     1      36.119 -25.414 -15.347  0.00  0.00    +0.071 C 
ATOM     29  C   UNL     1      34.736 -24.311 -13.040  0.00  0.00    -0.060 C 
ATOM     30  C   UNL     1      34.081 -24.341 -14.421  0.00  0.00    +0.067 C 
ATOM     31  H   UNL     1      36.102 -25.376 -11.958  0.00  0.00    -0.084 HD
ATOM     32  H   UNL     1      35.110 -26.312 -12.922  0.00  0.00    -0.084 HD
ENDBRANCH   4  24
TORSDOF 2
ENDMDL
MODEL 6
REMARK VINA RESULT:     -10.0      6.612     14.041
REMARK  Name = 118513932
REMARK  2 active torsions:
REMARK  status: ('A' for Active; 'I' for Inactive)
REMARK    1  A    between atoms: C_4  and  N_24
REMARK    2  A    between atoms: C_10  and  C_15
REMARK                            x       y       z     vdW  Elec       q    Type
REMARK                         _______ _______ _______ _____ _____    ______ ____
ROOT
ATOM      1  O   UNL     1      31.200 -11.357 -21.577  0.00  0.00    -0.274 OA
ATOM      2  N   UNL     1      32.988 -10.627 -22.917  0.00  0.00    -0.209 N 
ATOM      3  N   UNL     1      34.571 -12.238 -23.693  0.00  0.00    -0.389 NA
ATOM      4  C   UNL     1      33.261  -8.315 -23.521  0.00  0.00    +0.063 C 
ATOM      5  C   UNL     1      32.590  -9.295 -22.891  0.00  0.00    +0.089 C 
ATOM      6  C   UNL     1      34.453  -8.675 -24.259  0.00  0.00    +0.020 C 
ATOM      7  C   UNL     1      34.887  -9.938 -24.323  0.00  0.00    +0.050 C 
ATOM      8  C   UNL     1      34.136 -11.015 -23.622  0.00  0.00    +0.193 C 
ATOM      9  C   UNL     1      32.220 -11.574 -22.227  0.00  0.00    +0.242 C 
ATOM     10  C   UNL     1      33.842 -13.183 -23.030  0.00  0.00    +0.139 C 
ATOM     11  C   UNL     1      32.730 -12.963 -22.320  0.00  0.00    +0.146 C 
ENDROOT
BRANCH  10  15
ATOM     12  N   UNL     1      35.124 -16.465 -22.248  0.00  0.00    -0.178 N 
ATOM     13  N   UNL     1      34.723 -15.188 -22.023  0.00  0.00    -0.173 NA
ATOM     14  N   UNL     1      35.592 -18.368 -23.306  0.00  0.00    -0.392 NA
ATOM     15  C   UNL     1      34.312 -14.570 -23.095  0.00  0.00    +0.124 C 
ATOM     16  C   UNL     1      34.272 -15.174 -24.461  0.00  0.00    +0.023 C 
ATOM     17  C   UNL     1      34.685 -16.446 -24.618  0.00  0.00    +0.025 C 
ATOM     18  C   UNL     1      35.138 -17.139 -23.455  0.00  0.00    +0.198 C 
ATOM     19  C   UNL     1      35.598 -17.329 -21.297  0.00  0.00    +0.173 C 
ATOM     20  C   UNL     1      35.878 -18.492 -21.971  0.00  0.00    +0.111 C 
ATOM     21  C   UNL     1      34.654 -17.076 -25.986  0.00  0.00    +0.035 C 
ATOM     22  C   UNL     1      36.413 -19.752 -21.434  0.00  0.00    +0.063 C 
ENDBRANCH  10  15
BRANCH   4  24
ATOM     23  N   UNL     1      31.733  -4.448 -24.115  0.00  0.00    +0.389 N 
ATOM     24  N   UNL     1      32.883  -7.003 -23.504  0.00  0.00    -0.311 N 
ATOM     25  C   UNL     1      32.974  -4.921 -24.780  0.00  0.00    -0.027 C 
ATOM     26  C   UNL     1      33.751  -3.932 -25.619  0.00  0.00    -0.020 C 
ATOM     27  C   UNL     1      32.984  -5.032 -26.290  0.00  0.00    -0.020 C 
ATOM     28  C   UNL     1      33.768  -5.936 -23.982  0.00  0.00    +0.071 C 
ATOM     29  C   UNL     1      30.891  -5.588 -23.747  0.00  0.00    -0.060 C 
ATOM     30  C   UNL     1      31.651  -6.560 -22.844  0.00  0.00    +0.067 C 
ATOM     31  H   UNL     1      31.218  -3.841 -24.752  0.00  0.00    -0.084 HD
ATOM     32  H   UNL     1      31.983  -3.933 -23.270  0.00  0.00    -0.084 HD
ENDBRANCH   4  24
TORSDOF 2
ENDMDL
MODEL 7
REMARK VINA RESULT:      -9.4      6.149     11.028
REMARK  Name = 118513932
REMARK  2 active torsions:
REMARK  status: ('A' for Active; 'I' for Inactive)
REMARK    1  A    between atoms: C_4  and  N_24
REMARK    2  A    between atoms: C_10  and  C_15
REMARK                            x       y       z     vdW  Elec       q    Type
REMARK                         _______ _______ _______ _____ _____    ______ ____
ROOT
ATOM      1  O   UNL     1      32.811 -14.061 -20.494  0.00  0.00    -0.274 OA
ATOM      2  N   UNL     1      33.675 -13.798 -22.664  0.00  0.00    -0.209 N 
ATOM      3  N   UNL     1      33.561 -11.646 -23.691  0.00  0.00    -0.389 NA
ATOM      4  C   UNL     1      34.664 -15.632 -23.867  0.00  0.00    +0.063 C 
ATOM      5  C   UNL     1      34.065 -15.128 -22.773  0.00  0.00    +0.089 C 
ATOM      6  C   UNL     1      34.909 -14.736 -24.978  0.00  0.00    +0.020 C 
ATOM      7  C   UNL     1      34.558 -13.447 -24.934  0.00  0.00    +0.050 C 
ATOM      8  C   UNL     1      33.896 -12.901 -23.718  0.00  0.00    +0.193 C 
ATOM      9  C   UNL     1      33.057 -13.372 -21.481  0.00  0.00    +0.242 C 
ATOM     10  C   UNL     1      32.957 -11.201 -22.549  0.00  0.00    +0.139 C 
ATOM     11  C   UNL     1      32.683 -11.938 -21.468  0.00  0.00    +0.146 C 
ENDROOT
BRANCH  10  15
ATOM     12  N   UNL     1      32.006  -7.818 -23.370  0.00  0.00    -0.178 N 
ATOM     13  N   UNL     1      32.359  -9.111 -23.588  0.00  0.00    -0.173 NA
ATOM     14  N   UNL     1      31.504  -5.923 -22.312  0.00  0.00    -0.392 NA
ATOM     15  C   UNL     1      32.569  -9.788 -22.494  0.00  0.00    +0.124 C 
ATOM     16  C   UNL     1      32.444  -9.233 -21.113  0.00  0.00    +0.023 C 
ATOM     17  C   UNL     1      32.090  -7.943 -20.964  0.00  0.00    +0.025 C 
ATOM     18  C   UNL     1      31.856  -7.184 -22.150  0.00  0.00    +0.198 C 
ATOM     19  C   UNL     1      31.730  -6.894 -24.343  0.00  0.00    +0.173 C 
ATOM     20  C   UNL     1      31.425  -5.738 -23.667  0.00  0.00    +0.111 C 
ATOM     21  C   UNL     1      31.958  -7.361 -19.581  0.00  0.00    +0.035 C 
ATOM     22  C   UNL     1      31.051  -4.429 -24.223  0.00  0.00    +0.063 C 
ENDBRANCH  10  15
BRANCH   4  24
ATOM     23  N   UNL     1      35.182 -19.799 -23.938  0.00  0.00    +0.389 N 
ATOM     24  N   UNL     1      35.052 -16.934 -23.989  0.00  0.00    -0.311 N 
ATOM     25  C   UNL     1      35.453 -18.986 -22.725  0.00  0.00    -0.027 C 
ATOM     26  C   UNL     1      36.027 -19.689 -21.514  0.00  0.00    -0.020 C 
ATOM     27  C   UNL     1      34.602 -19.223 -21.495  0.00  0.00    -0.020 C 
ATOM     28  C   UNL     1      35.931 -17.576 -23.005  0.00  0.00    +0.071 C 
ATOM     29  C   UNL     1      34.239 -19.100 -24.813  0.00  0.00    -0.060 C 
ATOM     30  C   UNL     1      34.770 -17.718 -25.196  0.00  0.00    +0.067 C 
ATOM     31  H   UNL     1      34.784 -20.696 -23.662  0.00  0.00    -0.084 HD
ATOM     32  H   UNL     1      36.056 -19.948 -24.442  0.00  0.00    -0.084 HD
ENDBRANCH   4  24
TORSDOF 2
ENDMDL
MODEL 8
REMARK VINA RESULT:      -9.0      6.409     13.700
REMARK  Name = 118513932
REMARK  2 active torsions:
REMARK  status: ('A' for Active; 'I' for Inactive)
REMARK    1  A    between atoms: C_4  and  N_24
REMARK    2  A    between atoms: C_10  and  C_15
REMARK                            x       y       z     vdW  Elec       q    Type
REMARK                         _______ _______ _______ _____ _____    ______ ____
ROOT
ATOM      1  O   UNL     1      35.035 -10.973 -25.858  0.00  0.00    -0.274 OA
ATOM      2  N   UNL     1      33.791 -10.955 -23.864  0.00  0.00    -0.209 N 
ATOM      3  N   UNL     1      33.547 -12.994 -22.645  0.00  0.00    -0.389 NA
ATOM      4  C   UNL     1      32.764  -8.947 -23.027  0.00  0.00    +0.063 C 
ATOM      5  C   UNL     1      33.499  -9.598 -23.945  0.00  0.00    +0.089 C 
ATOM      6  C   UNL     1      32.256  -9.706 -21.904  0.00  0.00    +0.020 C 
ATOM      7  C   UNL     1      32.501 -11.014 -21.768  0.00  0.00    +0.050 C 
ATOM      8  C   UNL     1      33.317 -11.723 -22.791  0.00  0.00    +0.193 C 
ATOM      9  C   UNL     1      34.565 -11.540 -24.874  0.00  0.00    +0.242 C 
ATOM     10  C   UNL     1      34.301 -13.592 -23.615  0.00  0.00    +0.139 C 
ATOM     11  C   UNL     1      34.818 -12.989 -24.690  0.00  0.00    +0.146 C 
ENDROOT
BRANCH  10  15
ATOM     12  N   UNL     1      35.195 -16.859 -22.370  0.00  0.00    -0.178 N 
ATOM     13  N   UNL     1      34.990 -15.517 -22.340  0.00  0.00    -0.173 NA
ATOM     14  N   UNL     1      35.307 -18.955 -23.116  0.00  0.00    -0.392 NA
ATOM     15  C   UNL     1      34.573 -15.025 -23.473  0.00  0.00    +0.124 C 
ATOM     16  C   UNL     1      34.332 -15.827 -24.711  0.00  0.00    +0.023 C 
ATOM     17  C   UNL     1      34.555 -17.154 -24.675  0.00  0.00    +0.025 C 
ATOM     18  C   UNL     1      35.011 -17.712 -23.443  0.00  0.00    +0.198 C 
ATOM     19  C   UNL     1      35.630 -17.621 -21.318  0.00  0.00    +0.173 C 
ATOM     20  C   UNL     1      35.691 -18.905 -21.801  0.00  0.00    +0.111 C 
ATOM     21  C   UNL     1      34.319 -17.983 -25.911  0.00  0.00    +0.035 C 
ATOM     22  C   UNL     1      36.096 -20.127 -21.093  0.00  0.00    +0.063 C 
ENDBRANCH  10  15
BRANCH   4  24
ATOM     23  N   UNL     1      31.548  -5.023 -23.901  0.00  0.00    +0.389 N 
ATOM     24  N   UNL     1      32.470  -7.616 -23.093  0.00  0.00    -0.311 N 
ATOM     25  C   UNL     1      32.815  -5.597 -24.424  0.00  0.00    -0.027 C 
ATOM     26  C   UNL     1      33.730  -4.690 -25.217  0.00  0.00    -0.020 C 
ATOM     27  C   UNL     1      32.962  -5.768 -25.922  0.00  0.00    -0.020 C 
ATOM     28  C   UNL     1      33.462  -6.623 -23.518  0.00  0.00    +0.071 C 
ATOM     29  C   UNL     1      30.604  -6.095 -23.578  0.00  0.00    -0.060 C 
ATOM     30  C   UNL     1      31.212  -7.073 -22.572  0.00  0.00    +0.067 C 
ATOM     31  H   UNL     1      31.137  -4.413 -24.606  0.00  0.00    -0.084 HD
ATOM     32  H   UNL     1      31.749  -4.490 -23.055  0.00  0.00    -0.084 HD
ENDBRANCH   4  24
TORSDOF 2
ENDMDL
MODEL 9
REMARK VINA RESULT:      -8.8      1.863      2.648
REMARK  Name = 118513932
REMARK  2 active torsions:
REMARK  status: ('A' for Active; 'I' for Inactive)
REMARK    1  A    between atoms: C_4  and  N_24
REMARK    2  A    between atoms: C_10  and  C_15
REMARK                            x       y       z     vdW  Elec       q    Type
REMARK                         _______ _______ _______ _____ _____    ______ ____
ROOT
ATOM      1  O   UNL     1      38.626 -18.967 -18.803  0.00  0.00    -0.274 OA
ATOM      2  N   UNL     1      36.922 -20.583 -18.898  0.00  0.00    -0.209 N 
ATOM      3  N   UNL     1      35.399 -20.538 -20.737  0.00  0.00    -0.389 NA
ATOM      4  C   UNL     1      36.675 -22.268 -17.200  0.00  0.00    +0.063 C 
ATOM      5  C   UNL     1      37.310 -21.201 -17.714  0.00  0.00    +0.089 C 
ATOM      6  C   UNL     1      35.533 -22.791 -17.921  0.00  0.00    +0.020 C 
ATOM      7  C   UNL     1      35.111 -22.241 -19.064  0.00  0.00    +0.050 C 
ATOM      8  C   UNL     1      35.822 -21.060 -19.625  0.00  0.00    +0.193 C 
ATOM      9  C   UNL     1      37.649 -19.475 -19.350  0.00  0.00    +0.242 C 
ATOM     10  C   UNL     1      36.091 -19.455 -21.203  0.00  0.00    +0.139 C 
ATOM     11  C   UNL     1      37.154 -18.893 -20.620  0.00  0.00    +0.146 C 
ENDROOT
BRANCH  10  15
ATOM     12  N   UNL     1      35.095 -17.147 -23.793  0.00  0.00    -0.178 N 
ATOM     13  N   UNL     1      35.531 -17.553 -22.572  0.00  0.00    -0.173 NA
ATOM     14  N   UNL     1      34.377 -17.214 -25.900  0.00  0.00    -0.392 NA
ATOM     15  C   UNL     1      35.632 -18.847 -22.456  0.00  0.00    +0.124 C 
ATOM     16  C   UNL     1      35.309 -19.827 -23.537  0.00  0.00    +0.023 C 
ATOM     17  C   UNL     1      34.881 -19.359 -24.725  0.00  0.00    +0.025 C 
ATOM     18  C   UNL     1      34.764 -17.945 -24.873  0.00  0.00    +0.198 C 
ATOM     19  C   UNL     1      34.903 -15.846 -24.176  0.00  0.00    +0.173 C 
ATOM     20  C   UNL     1      34.462 -15.913 -25.475  0.00  0.00    +0.111 C 
ATOM     21  C   UNL     1      34.549 -20.328 -25.831  0.00  0.00    +0.035 C 
ATOM     22  C   UNL     1      34.103 -14.807 -26.375  0.00  0.00    +0.063 C 
ENDBRANCH  10  15
BRANCH   4  24
ATOM     23  N   UNL     1      37.511 -24.791 -13.947  0.00  0.00    +0.389 N 
ATOM     24  N   UNL     1      37.044 -22.886 -16.040  0.00  0.00    -0.311 N 
ATOM     25  C   UNL     1      36.185 -24.147 -14.131  0.00  0.00    -0.027 C 
ATOM     26  C   UNL     1      35.145 -24.341 -13.050  0.00  0.00    -0.020 C 
ATOM     27  C   UNL     1      34.982 -25.034 -14.370  0.00  0.00    -0.020 C 
ATOM     28  C   UNL     1      36.230 -22.799 -14.823  0.00  0.00    +0.071 C 
ATOM     29  C   UNL     1      38.205 -24.893 -15.232  0.00  0.00    -0.060 C 
ATOM     30  C   UNL     1      38.358 -23.517 -15.882  0.00  0.00    +0.067 C 
ATOM     31  H   UNL     1      37.383 -25.724 -13.558  0.00  0.00    -0.084 HD
ATOM     32  H   UNL     1      38.071 -24.223 -13.310  0.00  0.00    -0.084 HD
ENDBRANCH   4  24
TORSDOF 2
ENDMDL
