MODEL 1
REMARK VINA RESULT:     -12.1      0.000      0.000
REMARK  Name = 25184541
REMARK  4 active torsions:
REMARK  status: ('A' for Active; 'I' for Inactive)
REMARK    1  A    between atoms: C_4  and  N_19
REMARK    2  A    between atoms: C_5  and  N_11
REMARK    3  A    between atoms: C_20  and  C_23
REMARK    4  A    between atoms: C_23  and  N_25
REMARK                            x       y       z     vdW  Elec       q    Type
REMARK                         _______ _______ _______ _____ _____    ______ ____
ROOT
ATOM      1  F   UNL     1      32.665 -21.685 -19.463  0.00  0.00    -0.200 F 
ATOM      2  F   UNL     1      32.746 -20.012 -21.600  0.00  0.00    -0.200 F 
ATOM      3  F   UNL     1      37.482 -19.833 -21.278  0.00  0.00    -0.203 F 
ATOM      4  C   UNL     1      35.031 -21.619 -19.273  0.00  0.00    +0.089 C 
ATOM      5  C   UNL     1      35.115 -19.899 -21.467  0.00  0.00    +0.110 C 
ATOM      6  C   UNL     1      33.848 -21.234 -19.903  0.00  0.00    +0.182 C 
ATOM      7  C   UNL     1      36.257 -21.144 -19.741  0.00  0.00    +0.048 C 
ATOM      8  C   UNL     1      33.890 -20.374 -21.001  0.00  0.00    +0.184 C 
ATOM      9  C   UNL     1      36.298 -20.284 -20.838  0.00  0.00    +0.157 C 
ENDROOT
BRANCH   5  11
ATOM     10  O   UNL     1      35.223 -16.449 -25.741  0.00  0.00    -0.291 OA
ATOM     11  N   UNL     1      35.158 -19.021 -22.583  0.00  0.00    -0.282 N 
ATOM     12  C   UNL     1      35.847 -17.731 -22.406  0.00  0.00    +0.104 C 
ATOM     13  C   UNL     1      35.274 -16.672 -23.347  0.00  0.00    +0.091 C 
ATOM     14  C   UNL     1      34.749 -19.388 -23.856  0.00  0.00    +0.068 C 
ATOM     15  C   UNL     1      35.119 -17.186 -24.763  0.00  0.00    +0.176 C 
ATOM     16  C   UNL     1      34.737 -18.606 -24.940  0.00  0.00    +0.054 C 
ENDBRANCH   5  11
BRANCH   4  19
ATOM     17  O   UNL     1      35.519 -23.579 -16.244  0.00  0.00    -0.434 OA
ATOM     18  O   UNL     1      36.983 -22.008 -16.973  0.00  0.00    -0.226 OA
ATOM     19  N   UNL     1      34.992 -22.497 -18.153  0.00  0.00    -0.219 N 
ATOM     20  C   UNL     1      34.174 -23.961 -16.558  0.00  0.00    +0.210 C 
ATOM     21  C   UNL     1      33.978 -23.504 -17.988  0.00  0.00    +0.147 C 
ATOM     22  C   UNL     1      35.929 -22.608 -17.130  0.00  0.00    +0.409 C 
BRANCH  20  23
ATOM     23  C   UNL     1      33.227 -23.282 -15.577  0.00  0.00    +0.134 C 
BRANCH  23  25
ATOM     24  O   UNL     1      29.334 -22.709 -17.353  0.00  0.00    -0.349 OA
ATOM     25  N   UNL     1      32.002 -24.032 -15.477  0.00  0.00    -0.312 N 
ATOM     26  N   UNL     1      30.658 -22.635 -16.939  0.00  0.00    -0.062 NA
ATOM     27  C   UNL     1      30.829 -23.688 -16.134  0.00  0.00    +0.171 C 
ATOM     28  C   UNL     1      29.659 -24.454 -16.003  0.00  0.00    +0.081 C 
ATOM     29  C   UNL     1      28.749 -23.798 -16.788  0.00  0.00    +0.215 C 
ATOM     30  H   UNL     1      31.996 -24.837 -14.909  0.00  0.00    +0.148 HD
ENDBRANCH  23  25
ENDBRANCH  20  23
ENDBRANCH   4  19
TORSDOF 4
ENDMDL
MODEL 2
REMARK VINA RESULT:     -12.0      5.629      8.139
REMARK  Name = 25184541
REMARK  4 active torsions:
REMARK  status: ('A' for Active; 'I' for Inactive)
REMARK    1  A    between atoms: C_4  and  N_19
REMARK    2  A    between atoms: C_5  and  N_11
REMARK    3  A    between atoms: C_20  and  C_23
REMARK    4  A    between atoms: C_23  and  N_25
REMARK                            x       y       z     vdW  Elec       q    Type
REMARK                         _______ _______ _______ _____ _____    ______ ____
ROOT
ATOM      1  F   UNL     1      35.541 -23.149 -17.495  0.00  0.00    -0.200 F 
ATOM      2  F   UNL     1      32.859 -22.741 -17.629  0.00  0.00    -0.200 F 
ATOM      3  F   UNL     1      32.306 -25.030 -13.503  0.00  0.00    -0.203 F 
ATOM      4  C   UNL     1      35.301 -24.298 -15.430  0.00  0.00    +0.089 C 
ATOM      5  C   UNL     1      32.546 -23.881 -15.569  0.00  0.00    +0.110 C 
ATOM      6  C   UNL     1      34.753 -23.613 -16.514  0.00  0.00    +0.182 C 
ATOM      7  C   UNL     1      34.471 -24.775 -14.415  0.00  0.00    +0.048 C 
ATOM      8  C   UNL     1      33.375 -23.404 -16.583  0.00  0.00    +0.184 C 
ATOM      9  C   UNL     1      33.094 -24.566 -14.485  0.00  0.00    +0.157 C 
ENDROOT
BRANCH   5  11
ATOM     10  O   UNL     1      27.125 -23.073 -15.933  0.00  0.00    -0.291 OA
ATOM     11  N   UNL     1      31.144 -23.671 -15.640  0.00  0.00    -0.282 N 
ATOM     12  C   UNL     1      30.308 -24.807 -16.065  0.00  0.00    +0.104 C 
ATOM     13  C   UNL     1      29.021 -24.320 -16.729  0.00  0.00    +0.091 C 
ATOM     14  C   UNL     1      30.520 -22.528 -15.163  0.00  0.00    +0.068 C 
ATOM     15  C   UNL     1      28.345 -23.221 -15.935  0.00  0.00    +0.176 C 
ATOM     16  C   UNL     1      29.213 -22.256 -15.224  0.00  0.00    +0.054 C 
ENDBRANCH   5  11
BRANCH   4  19
ATOM     17  O   UNL     1      38.935 -24.172 -15.262  0.00  0.00    -0.434 OA
ATOM     18  O   UNL     1      37.619 -22.330 -15.390  0.00  0.00    -0.226 OA
ATOM     19  N   UNL     1      36.707 -24.512 -15.356  0.00  0.00    -0.219 N 
ATOM     20  C   UNL     1      38.735 -25.568 -15.002  0.00  0.00    +0.210 C 
ATOM     21  C   UNL     1      37.298 -25.823 -15.405  0.00  0.00    +0.147 C 
ATOM     22  C   UNL     1      37.711 -23.548 -15.333  0.00  0.00    +0.409 C 
BRANCH  20  23
ATOM     23  C   UNL     1      39.001 -25.837 -13.527  0.00  0.00    +0.134 C 
BRANCH  23  25
ATOM     24  O   UNL     1      35.635 -25.462 -10.850  0.00  0.00    -0.349 OA
ATOM     25  N   UNL     1      38.518 -24.736 -12.732  0.00  0.00    -0.312 N 
ATOM     26  N   UNL     1      36.613 -25.873 -11.746  0.00  0.00    -0.062 NA
ATOM     27  C   UNL     1      37.397 -24.805 -11.918  0.00  0.00    +0.171 C 
ATOM     28  C   UNL     1      36.967 -23.701 -11.162  0.00  0.00    +0.081 C 
ATOM     29  C   UNL     1      35.856 -24.166 -10.509  0.00  0.00    +0.215 C 
ATOM     30  H   UNL     1      39.012 -23.885 -12.772  0.00  0.00    +0.148 HD
ENDBRANCH  23  25
ENDBRANCH  20  23
ENDBRANCH   4  19
TORSDOF 4
ENDMDL
MODEL 3
REMARK VINA RESULT:     -11.9      0.780      1.816
REMARK  Name = 25184541
REMARK  4 active torsions:
REMARK  status: ('A' for Active; 'I' for Inactive)
REMARK    1  A    between atoms: C_4  and  N_19
REMARK    2  A    between atoms: C_5  and  N_11
REMARK    3  A    between atoms: C_20  and  C_23
REMARK    4  A    between atoms: C_23  and  N_25
REMARK                            x       y       z     vdW  Elec       q    Type
REMARK                         _______ _______ _______ _____ _____    ______ ____
ROOT
ATOM      1  F   UNL     1      37.070 -21.935 -18.921  0.00  0.00    -0.200 F 
ATOM      2  F   UNL     1      37.300 -20.240 -21.031  0.00  0.00    -0.200 F 
ATOM      3  F   UNL     1      32.567 -19.978 -21.337  0.00  0.00    -0.203 F 
ATOM      4  C   UNL     1      34.701 -21.827 -19.046  0.00  0.00    +0.089 C 
ATOM      5  C   UNL     1      34.937 -20.087 -21.213  0.00  0.00    +0.110 C 
ATOM      6  C   UNL     1      35.963 -21.459 -19.510  0.00  0.00    +0.182 C 
ATOM      7  C   UNL     1      33.556 -21.324 -19.665  0.00  0.00    +0.048 C 
ATOM      8  C   UNL     1      36.081 -20.589 -20.594  0.00  0.00    +0.184 C 
ATOM      9  C   UNL     1      33.675 -20.455 -20.748  0.00  0.00    +0.157 C 
ENDROOT
BRANCH   5  11
ATOM     10  O   UNL     1      35.343 -16.614 -25.450  0.00  0.00    -0.291 OA
ATOM     11  N   UNL     1      35.057 -19.204 -22.318  0.00  0.00    -0.282 N 
ATOM     12  C   UNL     1      35.778 -17.937 -22.101  0.00  0.00    +0.104 C 
ATOM     13  C   UNL     1      35.281 -16.855 -23.058  0.00  0.00    +0.091 C 
ATOM     14  C   UNL     1      34.695 -19.550 -23.611  0.00  0.00    +0.068 C 
ATOM     15  C   UNL     1      35.173 -17.354 -24.484  0.00  0.00    +0.176 C 
ATOM     16  C   UNL     1      34.755 -18.760 -24.688  0.00  0.00    +0.054 C 
ENDBRANCH   5  11
BRANCH   4  19
ATOM     17  O   UNL     1      34.945 -23.796 -15.993  0.00  0.00    -0.434 OA
ATOM     18  O   UNL     1      36.430 -22.182 -16.569  0.00  0.00    -0.226 OA
ATOM     19  N   UNL     1      34.576 -22.714 -17.939  0.00  0.00    -0.219 N 
ATOM     20  C   UNL     1      33.647 -24.211 -16.438  0.00  0.00    +0.210 C 
ATOM     21  C   UNL     1      33.578 -23.749 -17.878  0.00  0.00    +0.147 C 
ATOM     22  C   UNL     1      35.413 -22.808 -16.830  0.00  0.00    +0.409 C 
BRANCH  20  23
ATOM     23  C   UNL     1      32.592 -23.564 -15.550  0.00  0.00    +0.134 C 
BRANCH  23  25
ATOM     24  O   UNL     1      28.875 -22.285 -17.335  0.00  0.00    -0.349 OA
ATOM     25  N   UNL     1      31.326 -24.230 -15.725  0.00  0.00    -0.312 N 
ATOM     26  N   UNL     1      30.167 -22.411 -16.839  0.00  0.00    -0.062 NA
ATOM     27  C   UNL     1      30.225 -23.647 -16.334  0.00  0.00    +0.171 C 
ATOM     28  C   UNL     1      29.012 -24.340 -16.480  0.00  0.00    +0.081 C 
ATOM     29  C   UNL     1      28.196 -23.441 -17.115  0.00  0.00    +0.215 C 
ATOM     30  H   UNL     1      31.239 -25.153 -15.392  0.00  0.00    +0.148 HD
ENDBRANCH  23  25
ENDBRANCH  20  23
ENDBRANCH   4  19
TORSDOF 4
ENDMDL
MODEL 4
REMARK VINA RESULT:     -11.6      8.749     13.821
REMARK  Name = 25184541
REMARK  4 active torsions:
REMARK  status: ('A' for Active; 'I' for Inactive)
REMARK    1  A    between atoms: C_4  and  N_19
REMARK    2  A    between atoms: C_5  and  N_11
REMARK    3  A    between atoms: C_20  and  C_23
REMARK    4  A    between atoms: C_23  and  N_25
REMARK                            x       y       z     vdW  Elec       q    Type
REMARK                         _______ _______ _______ _____ _____    ______ ____
ROOT
ATOM      1  F   UNL     1      31.267 -11.096 -21.166  0.00  0.00    -0.200 F 
ATOM      2  F   UNL     1      31.990 -13.533 -22.120  0.00  0.00    -0.200 F 
ATOM      3  F   UNL     1      34.864 -11.445 -25.273  0.00  0.00    -0.203 F 
ATOM      4  C   UNL     1      32.694 -10.019 -22.729  0.00  0.00    +0.089 C 
ATOM      5  C   UNL     1      33.436 -12.522 -23.710  0.00  0.00    +0.110 C 
ATOM      6  C   UNL     1      32.148 -11.176 -22.173  0.00  0.00    +0.182 C 
ATOM      7  C   UNL     1      33.612 -10.114 -23.775  0.00  0.00    +0.048 C 
ATOM      8  C   UNL     1      32.520 -12.428 -22.664  0.00  0.00    +0.184 C 
ATOM      9  C   UNL     1      33.982 -11.365 -24.266  0.00  0.00    +0.157 C 
ENDROOT
BRANCH   5  11
ATOM     10  O   UNL     1      34.975 -17.426 -25.650  0.00  0.00    -0.291 OA
ATOM     11  N   UNL     1      33.811 -13.796 -24.212  0.00  0.00    -0.282 N 
ATOM     12  C   UNL     1      34.495 -14.716 -23.287  0.00  0.00    +0.104 C 
ATOM     13  C   UNL     1      35.401 -15.684 -24.048  0.00  0.00    +0.091 C 
ATOM     14  C   UNL     1      33.412 -14.274 -25.451  0.00  0.00    +0.068 C 
ATOM     15  C   UNL     1      34.708 -16.296 -25.248  0.00  0.00    +0.176 C 
ATOM     16  C   UNL     1      33.751 -15.447 -25.994  0.00  0.00    +0.054 C 
ENDBRANCH   5  11
BRANCH   4  19
ATOM     17  O   UNL     1      31.987  -6.970 -20.868  0.00  0.00    -0.434 OA
ATOM     18  O   UNL     1      32.975  -8.797 -19.957  0.00  0.00    -0.226 OA
ATOM     19  N   UNL     1      32.318  -8.739 -22.230  0.00  0.00    -0.219 N 
ATOM     20  C   UNL     1      31.679  -6.515 -22.193  0.00  0.00    +0.210 C 
ATOM     21  C   UNL     1      31.579  -7.784 -23.012  0.00  0.00    +0.147 C 
ATOM     22  C   UNL     1      32.492  -8.249 -20.938  0.00  0.00    +0.409 C 
BRANCH  20  23
ATOM     23  C   UNL     1      32.789  -5.584 -22.663  0.00  0.00    +0.134 C 
BRANCH  23  25
ATOM     24  O   UNL     1      35.371  -5.510 -26.122  0.00  0.00    -0.349 OA
ATOM     25  N   UNL     1      32.558  -5.197 -24.031  0.00  0.00    -0.312 N 
ATOM     26  N   UNL     1      34.794  -5.640 -24.865  0.00  0.00    -0.062 NA
ATOM     27  C   UNL     1      33.528  -5.241 -25.021  0.00  0.00    +0.171 C 
ATOM     28  C   UNL     1      33.252  -4.852 -26.342  0.00  0.00    +0.081 C 
ATOM     29  C   UNL     1      34.442  -5.040 -26.994  0.00  0.00    +0.215 C 
ATOM     30  H   UNL     1      31.658  -4.880 -24.278  0.00  0.00    +0.148 HD
ENDBRANCH  23  25
ENDBRANCH  20  23
ENDBRANCH   4  19
TORSDOF 4
ENDMDL
MODEL 5
REMARK VINA RESULT:     -11.5      0.933      1.072
REMARK  Name = 25184541
REMARK  4 active torsions:
REMARK  status: ('A' for Active; 'I' for Inactive)
REMARK    1  A    between atoms: C_4  and  N_19
REMARK    2  A    between atoms: C_5  and  N_11
REMARK    3  A    between atoms: C_20  and  C_23
REMARK    4  A    between atoms: C_23  and  N_25
REMARK                            x       y       z     vdW  Elec       q    Type
REMARK                         _______ _______ _______ _____ _____    ______ ____
ROOT
ATOM      1  F   UNL     1      32.867 -21.710 -19.418  0.00  0.00    -0.200 F 
ATOM      2  F   UNL     1      32.830 -20.090 -21.597  0.00  0.00    -0.200 F 
ATOM      3  F   UNL     1      37.564 -19.744 -21.419  0.00  0.00    -0.203 F 
ATOM      4  C   UNL     1      35.234 -21.560 -19.300  0.00  0.00    +0.089 C 
ATOM      5  C   UNL     1      35.196 -19.894 -21.537  0.00  0.00    +0.110 C 
ATOM      6  C   UNL     1      34.021 -21.231 -19.904  0.00  0.00    +0.182 C 
ATOM      7  C   UNL     1      36.429 -21.056 -19.815  0.00  0.00    +0.048 C 
ATOM      8  C   UNL     1      34.002 -20.398 -21.023  0.00  0.00    +0.184 C 
ATOM      9  C   UNL     1      36.410 -20.224 -20.933  0.00  0.00    +0.157 C 
ENDROOT
BRANCH   5  11
ATOM     10  O   UNL     1      35.066 -16.551 -25.894  0.00  0.00    -0.291 OA
ATOM     11  N   UNL     1      35.177 -19.044 -22.674  0.00  0.00    -0.282 N 
ATOM     12  C   UNL     1      35.857 -17.742 -22.560  0.00  0.00    +0.104 C 
ATOM     13  C   UNL     1      35.228 -16.714 -23.500  0.00  0.00    +0.091 C 
ATOM     14  C   UNL     1      34.717 -19.448 -23.918  0.00  0.00    +0.068 C 
ATOM     15  C   UNL     1      35.016 -17.265 -24.895  0.00  0.00    +0.176 C 
ATOM     16  C   UNL     1      34.646 -18.693 -25.019  0.00  0.00    +0.054 C 
ENDBRANCH   5  11
BRANCH   4  19
ATOM     17  O   UNL     1      35.890 -23.446 -16.256  0.00  0.00    -0.434 OA
ATOM     18  O   UNL     1      37.313 -21.898 -17.105  0.00  0.00    -0.226 OA
ATOM     19  N   UNL     1      35.257 -22.410 -18.158  0.00  0.00    -0.219 N 
ATOM     20  C   UNL     1      34.528 -23.832 -16.484  0.00  0.00    +0.210 C 
ATOM     21  C   UNL     1      34.252 -23.410 -17.911  0.00  0.00    +0.147 C 
ATOM     22  C   UNL     1      36.250 -22.499 -17.187  0.00  0.00    +0.409 C 
BRANCH  20  23
ATOM     23  C   UNL     1      33.640 -23.126 -15.467  0.00  0.00    +0.134 C 
BRANCH  23  25
ATOM     24  O   UNL     1      30.174 -25.601 -14.760  0.00  0.00    -0.349 OA
ATOM     25  N   UNL     1      32.288 -23.057 -15.961  0.00  0.00    -0.312 N 
ATOM     26  N   UNL     1      31.428 -25.004 -14.793  0.00  0.00    -0.062 NA
ATOM     27  C   UNL     1      31.292 -23.959 -15.615  0.00  0.00    +0.171 C 
ATOM     28  C   UNL     1      29.988 -23.847 -16.125  0.00  0.00    +0.081 C 
ATOM     29  C   UNL     1      29.324 -24.902 -15.557  0.00  0.00    +0.215 C 
ATOM     30  H   UNL     1      32.058 -22.326 -16.581  0.00  0.00    +0.148 HD
ENDBRANCH  23  25
ENDBRANCH  20  23
ENDBRANCH   4  19
TORSDOF 4
ENDMDL
MODEL 6
REMARK VINA RESULT:     -11.5      9.132     14.163
REMARK  Name = 25184541
REMARK  4 active torsions:
REMARK  status: ('A' for Active; 'I' for Inactive)
REMARK    1  A    between atoms: C_4  and  N_19
REMARK    2  A    between atoms: C_5  and  N_11
REMARK    3  A    between atoms: C_20  and  C_23
REMARK    4  A    between atoms: C_23  and  N_25
REMARK                            x       y       z     vdW  Elec       q    Type
REMARK                         _______ _______ _______ _____ _____    ______ ____
ROOT
ATOM      1  F   UNL     1      34.252  -8.788 -24.160  0.00  0.00    -0.200 F 
ATOM      2  F   UNL     1      35.046 -11.155 -25.229  0.00  0.00    -0.200 F 
ATOM      3  F   UNL     1      32.026 -13.456 -22.375  0.00  0.00    -0.203 F 
ATOM      4  C   UNL     1      32.731  -9.907 -22.719  0.00  0.00    +0.089 C 
ATOM      5  C   UNL     1      33.548 -12.338 -23.816  0.00  0.00    +0.110 C 
ATOM      6  C   UNL     1      33.704  -9.929 -23.718  0.00  0.00    +0.182 C 
ATOM      7  C   UNL     1      32.166 -11.100 -22.269  0.00  0.00    +0.048 C 
ATOM      8  C   UNL     1      34.112 -11.145 -24.267  0.00  0.00    +0.184 C 
ATOM      9  C   UNL     1      32.575 -12.315 -22.817  0.00  0.00    +0.157 C 
ENDROOT
BRANCH   5  11
ATOM     10  O   UNL     1      35.078 -17.155 -25.968  0.00  0.00    -0.291 OA
ATOM     11  N   UNL     1      33.965 -13.576 -24.372  0.00  0.00    -0.282 N 
ATOM     12  C   UNL     1      33.641 -13.830 -25.786  0.00  0.00    +0.104 C 
ATOM     13  C   UNL     1      33.517 -15.328 -26.058  0.00  0.00    +0.091 C 
ATOM     14  C   UNL     1      34.805 -14.461 -23.712  0.00  0.00    +0.068 C 
ATOM     15  C   UNL     1      34.661 -16.118 -25.457  0.00  0.00    +0.176 C 
ATOM     16  C   UNL     1      35.213 -15.651 -24.165  0.00  0.00    +0.054 C 
ENDBRANCH   5  11
BRANCH   4  19
ATOM     17  O   UNL     1      31.936  -6.972 -20.716  0.00  0.00    -0.434 OA
ATOM     18  O   UNL     1      33.025  -8.789 -19.906  0.00  0.00    -0.226 OA
ATOM     19  N   UNL     1      32.311  -8.667 -22.158  0.00  0.00    -0.219 N 
ATOM     20  C   UNL     1      31.576  -6.478 -22.013  0.00  0.00    +0.210 C 
ATOM     21  C   UNL     1      31.512  -7.715 -22.882  0.00  0.00    +0.147 C 
ATOM     22  C   UNL     1      32.495  -8.223 -20.852  0.00  0.00    +0.409 C 
BRANCH  20  23
ATOM     23  C   UNL     1      32.631  -5.478 -22.468  0.00  0.00    +0.134 C 
BRANCH  23  25
ATOM     24  O   UNL     1      32.742  -3.078 -26.055  0.00  0.00    -0.349 OA
ATOM     25  N   UNL     1      33.040  -5.777 -23.817  0.00  0.00    -0.312 N 
ATOM     26  N   UNL     1      32.596  -3.590 -24.771  0.00  0.00    -0.062 NA
ATOM     27  C   UNL     1      33.004  -4.859 -24.856  0.00  0.00    +0.171 C 
ATOM     28  C   UNL     1      33.415  -5.201 -26.155  0.00  0.00    +0.081 C 
ATOM     29  C   UNL     1      33.231  -4.048 -26.870  0.00  0.00    +0.215 C 
ATOM     30  H   UNL     1      33.364  -6.687 -24.012  0.00  0.00    +0.148 HD
ENDBRANCH  23  25
ENDBRANCH  20  23
ENDBRANCH   4  19
TORSDOF 4
ENDMDL
MODEL 7
REMARK VINA RESULT:     -11.3      3.279      9.101
REMARK  Name = 25184541
REMARK  4 active torsions:
REMARK  status: ('A' for Active; 'I' for Inactive)
REMARK    1  A    between atoms: C_4  and  N_19
REMARK    2  A    between atoms: C_5  and  N_11
REMARK    3  A    between atoms: C_20  and  C_23
REMARK    4  A    between atoms: C_23  and  N_25
REMARK                            x       y       z     vdW  Elec       q    Type
REMARK                         _______ _______ _______ _____ _____    ______ ____
ROOT
ATOM      1  F   UNL     1      37.427 -20.896 -18.564  0.00  0.00    -0.200 F 
ATOM      2  F   UNL     1      37.945 -22.269 -16.279  0.00  0.00    -0.200 F 
ATOM      3  F   UNL     1      33.663 -24.308 -16.534  0.00  0.00    -0.203 F 
ATOM      4  C   UNL     1      35.279 -21.897 -18.723  0.00  0.00    +0.089 C 
ATOM      5  C   UNL     1      35.811 -23.306 -16.375  0.00  0.00    +0.110 C 
ATOM      6  C   UNL     1      36.501 -21.730 -18.070  0.00  0.00    +0.182 C 
ATOM      7  C   UNL     1      34.324 -22.769 -18.201  0.00  0.00    +0.048 C 
ATOM      8  C   UNL     1      36.767 -22.435 -16.897  0.00  0.00    +0.184 C 
ATOM      9  C   UNL     1      34.590 -23.473 -17.027  0.00  0.00    +0.157 C 
ENDROOT
BRANCH   5  11
ATOM     10  O   UNL     1      36.902 -26.007 -11.717  0.00  0.00    -0.291 OA
ATOM     11  N   UNL     1      36.080 -24.022 -15.179  0.00  0.00    -0.282 N 
ATOM     12  C   UNL     1      35.452 -23.533 -13.939  0.00  0.00    +0.104 C 
ATOM     13  C   UNL     1      36.291 -23.907 -12.718  0.00  0.00    +0.091 C 
ATOM     14  C   UNL     1      36.744 -25.239 -15.153  0.00  0.00    +0.068 C 
ATOM     15  C   UNL     1      36.733 -25.355 -12.746  0.00  0.00    +0.176 C 
ATOM     16  C   UNL     1      37.054 -25.949 -14.063  0.00  0.00    +0.054 C 
ENDBRANCH   5  11
BRANCH   4  19
ATOM     17  O   UNL     1      33.940 -20.063 -21.568  0.00  0.00    -0.434 OA
ATOM     18  O   UNL     1      32.673 -20.790 -19.834  0.00  0.00    -0.226 OA
ATOM     19  N   UNL     1      35.005 -21.179 -19.922  0.00  0.00    -0.219 N 
ATOM     20  C   UNL     1      35.342 -19.923 -21.836  0.00  0.00    +0.210 C 
ATOM     21  C   UNL     1      36.000 -20.946 -20.934  0.00  0.00    +0.147 C 
ATOM     22  C   UNL     1      33.775 -20.695 -20.357  0.00  0.00    +0.409 C 
BRANCH  20  23
ATOM     23  C   UNL     1      35.762 -18.492 -21.526  0.00  0.00    +0.134 C 
BRANCH  23  25
ATOM     24  O   UNL     1      34.657 -14.354 -22.072  0.00  0.00    -0.349 OA
ATOM     25  N   UNL     1      35.632 -17.675 -22.706  0.00  0.00    -0.312 N 
ATOM     26  N   UNL     1      34.970 -15.621 -21.595  0.00  0.00    -0.062 NA
ATOM     27  C   UNL     1      35.259 -16.340 -22.684  0.00  0.00    +0.171 C 
ATOM     28  C   UNL     1      35.147 -15.587 -23.864  0.00  0.00    +0.081 C 
ATOM     29  C   UNL     1      34.766 -14.346 -23.426  0.00  0.00    +0.215 C 
ATOM     30  H   UNL     1      35.819 -18.091 -23.579  0.00  0.00    +0.148 HD
ENDBRANCH  23  25
ENDBRANCH  20  23
ENDBRANCH   4  19
TORSDOF 4
ENDMDL
MODEL 8
REMARK VINA RESULT:     -11.0      2.442      4.085
REMARK  Name = 25184541
REMARK  4 active torsions:
REMARK  status: ('A' for Active; 'I' for Inactive)
REMARK    1  A    between atoms: C_4  and  N_19
REMARK    2  A    between atoms: C_5  and  N_11
REMARK    3  A    between atoms: C_20  and  C_23
REMARK    4  A    between atoms: C_23  and  N_25
REMARK                            x       y       z     vdW  Elec       q    Type
REMARK                         _______ _______ _______ _____ _____    ______ ____
ROOT
ATOM      1  F   UNL     1      37.137 -21.782 -18.796  0.00  0.00    -0.200 F 
ATOM      2  F   UNL     1      37.344 -20.074 -20.898  0.00  0.00    -0.200 F 
ATOM      3  F   UNL     1      32.621 -20.114 -21.394  0.00  0.00    -0.203 F 
ATOM      4  C   UNL     1      34.773 -21.824 -19.016  0.00  0.00    +0.089 C 
ATOM      5  C   UNL     1      34.986 -20.071 -21.175  0.00  0.00    +0.110 C 
ATOM      6  C   UNL     1      36.027 -21.377 -19.430  0.00  0.00    +0.182 C 
ATOM      7  C   UNL     1      33.625 -21.395 -19.681  0.00  0.00    +0.048 C 
ATOM      8  C   UNL     1      36.133 -20.500 -20.510  0.00  0.00    +0.184 C 
ATOM      9  C   UNL     1      33.731 -20.519 -20.761  0.00  0.00    +0.157 C 
ENDROOT
BRANCH   5  11
ATOM     10  O   UNL     1      35.343 -16.574 -25.397  0.00  0.00    -0.291 OA
ATOM     11  N   UNL     1      35.094 -19.181 -22.276  0.00  0.00    -0.282 N 
ATOM     12  C   UNL     1      35.767 -17.892 -22.044  0.00  0.00    +0.104 C 
ATOM     13  C   UNL     1      35.249 -16.824 -23.007  0.00  0.00    +0.091 C 
ATOM     14  C   UNL     1      34.764 -19.536 -23.576  0.00  0.00    +0.068 C 
ATOM     15  C   UNL     1      35.181 -17.323 -24.435  0.00  0.00    +0.176 C 
ATOM     16  C   UNL     1      34.816 -18.741 -24.650  0.00  0.00    +0.054 C 
ENDBRANCH   5  11
BRANCH   4  19
ATOM     17  O   UNL     1      34.236 -24.541 -16.653  0.00  0.00    -0.434 OA
ATOM     18  O   UNL     1      33.737 -24.680 -18.860  0.00  0.00    -0.226 OA
ATOM     19  N   UNL     1      34.661 -22.719 -17.913  0.00  0.00    -0.219 N 
ATOM     20  C   UNL     1      34.979 -23.644 -15.816  0.00  0.00    +0.210 C 
ATOM     21  C   UNL     1      34.949 -22.326 -16.560  0.00  0.00    +0.147 C 
ATOM     22  C   UNL     1      34.181 -24.025 -17.927  0.00  0.00    +0.409 C 
BRANCH  20  23
ATOM     23  C   UNL     1      36.387 -24.196 -15.632  0.00  0.00    +0.134 C 
BRANCH  23  25
ATOM     24  O   UNL     1      35.294 -25.001 -11.533  0.00  0.00    -0.349 OA
ATOM     25  N   UNL     1      36.933 -23.739 -14.380  0.00  0.00    -0.312 N 
ATOM     26  N   UNL     1      35.409 -24.933 -12.916  0.00  0.00    -0.062 NA
ATOM     27  C   UNL     1      36.440 -24.112 -13.139  0.00  0.00    +0.171 C 
ATOM     28  C   UNL     1      37.009 -23.637 -11.946  0.00  0.00    +0.081 C 
ATOM     29  C   UNL     1      36.254 -24.225 -10.966  0.00  0.00    +0.215 C 
ATOM     30  H   UNL     1      37.702 -23.123 -14.407  0.00  0.00    +0.148 HD
ENDBRANCH  23  25
ENDBRANCH  20  23
ENDBRANCH   4  19
TORSDOF 4
ENDMDL
MODEL 9
REMARK VINA RESULT:     -10.9      2.597      4.171
REMARK  Name = 25184541
REMARK  4 active torsions:
REMARK  status: ('A' for Active; 'I' for Inactive)
REMARK    1  A    between atoms: C_4  and  N_19
REMARK    2  A    between atoms: C_5  and  N_11
REMARK    3  A    between atoms: C_20  and  C_23
REMARK    4  A    between atoms: C_23  and  N_25
REMARK                            x       y       z     vdW  Elec       q    Type
REMARK                         _______ _______ _______ _____ _____    ______ ____
ROOT
ATOM      1  F   UNL     1      32.646 -21.772 -19.109  0.00  0.00    -0.200 F 
ATOM      2  F   UNL     1      32.755 -20.092 -21.241  0.00  0.00    -0.200 F 
ATOM      3  F   UNL     1      37.499 -20.101 -21.004  0.00  0.00    -0.203 F 
ATOM      4  C   UNL     1      35.016 -21.799 -18.962  0.00  0.00    +0.089 C 
ATOM      5  C   UNL     1      35.128 -20.073 -21.150  0.00  0.00    +0.110 C 
ATOM      6  C   UNL     1      33.837 -21.365 -19.569  0.00  0.00    +0.182 C 
ATOM      7  C   UNL     1      36.250 -21.371 -19.450  0.00  0.00    +0.048 C 
ATOM      8  C   UNL     1      33.894 -20.502 -20.664  0.00  0.00    +0.184 C 
ATOM      9  C   UNL     1      36.306 -20.508 -20.544  0.00  0.00    +0.157 C 
ENDROOT
BRANCH   5  11
ATOM     10  O   UNL     1      35.291 -16.612 -25.413  0.00  0.00    -0.291 OA
ATOM     11  N   UNL     1      35.185 -19.192 -22.262  0.00  0.00    -0.282 N 
ATOM     12  C   UNL     1      35.849 -17.891 -22.065  0.00  0.00    +0.104 C 
ATOM     13  C   UNL     1      35.283 -16.840 -23.019  0.00  0.00    +0.091 C 
ATOM     14  C   UNL     1      34.817 -19.563 -23.547  0.00  0.00    +0.068 C 
ATOM     15  C   UNL     1      35.173 -17.353 -24.440  0.00  0.00    +0.176 C 
ATOM     16  C   UNL     1      34.820 -18.778 -24.629  0.00  0.00    +0.054 C 
ENDBRANCH   5  11
BRANCH   4  19
ATOM     17  O   UNL     1      34.516 -24.449 -16.516  0.00  0.00    -0.434 OA
ATOM     18  O   UNL     1      33.692 -24.517 -18.628  0.00  0.00    -0.226 OA
ATOM     19  N   UNL     1      34.962 -22.681 -17.845  0.00  0.00    -0.219 N 
ATOM     20  C   UNL     1      35.470 -23.649 -15.805  0.00  0.00    +0.210 C 
ATOM     21  C   UNL     1      35.484 -22.331 -16.551  0.00  0.00    +0.147 C 
ATOM     22  C   UNL     1      34.338 -23.923 -17.776  0.00  0.00    +0.409 C 
BRANCH  20  23
ATOM     23  C   UNL     1      36.816 -24.360 -15.819  0.00  0.00    +0.134 C 
BRANCH  23  25
ATOM     24  O   UNL     1      38.327 -22.803 -12.087  0.00  0.00    -0.349 OA
ATOM     25  N   UNL     1      37.057 -24.981 -14.541  0.00  0.00    -0.312 N 
ATOM     26  N   UNL     1      37.881 -23.012 -13.386  0.00  0.00    -0.062 NA
ATOM     27  C   UNL     1      37.555 -24.307 -13.436  0.00  0.00    +0.171 C 
ATOM     28  C   UNL     1      37.772 -24.959 -12.211  0.00  0.00    +0.081 C 
ATOM     29  C   UNL     1      38.257 -23.970 -11.396  0.00  0.00    +0.215 C 
ATOM     30  H   UNL     1      36.856 -25.941 -14.447  0.00  0.00    +0.148 HD
ENDBRANCH  23  25
ENDBRANCH  20  23
ENDBRANCH   4  19
TORSDOF 4
ENDMDL
