MODEL 1
REMARK VINA RESULT:     -12.1      0.000      0.000
REMARK  Name = 24864821
REMARK  5 active torsions:
REMARK  status: ('A' for Active; 'I' for Inactive)
REMARK    1  A    between atoms: C_5  and  C_16
REMARK    2  A    between atoms: C_7  and  C_10
REMARK    3  A    between atoms: C_16  and  O_17
REMARK    4  A    between atoms: O_17  and  C_20
REMARK    5  A    between atoms: C_25  and  O_28
REMARK                            x       y       z     vdW  Elec       q    Type
REMARK                         _______ _______ _______ _____ _____    ______ ____
ROOT
ATOM      1  N   UNL     1      36.502 -23.139 -15.946  0.00  0.00    -0.191 N 
ATOM      2  N   UNL     1      35.172 -22.906 -16.075  0.00  0.00    -0.163 NA
ATOM      3  N   UNL     1      38.672 -22.987 -16.212  0.00  0.00    -0.128 NA
ATOM      4  N   UNL     1      38.420 -23.983 -15.291  0.00  0.00    -0.127 NA
ATOM      5  C   UNL     1      37.516 -22.494 -16.593  0.00  0.00    +0.208 A 
ATOM      6  C   UNL     1      37.116 -24.067 -15.137  0.00  0.00    +0.186 A 
ATOM      7  C   UNL     1      34.429 -23.670 -15.324  0.00  0.00    +0.101 C 
ATOM      8  C   UNL     1      36.287 -24.890 -14.351  0.00  0.00    +0.042 C 
ATOM      9  C   UNL     1      34.958 -24.733 -14.410  0.00  0.00    +0.024 C 
ENDROOT
BRANCH   7  10
ATOM     10  C   UNL     1      32.952 -23.508 -15.372  0.00  0.00    +0.019 C 
ATOM     11  C   UNL     1      32.326 -23.172 -16.572  0.00  0.00    +0.002 C 
ATOM     12  C   UNL     1      32.193 -23.694 -14.217  0.00  0.00    +0.002 C 
ATOM     13  C   UNL     1      30.941 -23.022 -16.617  0.00  0.00    +0.000 C 
ATOM     14  C   UNL     1      30.807 -23.544 -14.262  0.00  0.00    +0.000 C 
ATOM     15  C   UNL     1      30.180 -23.208 -15.462  0.00  0.00    +0.000 C 
ENDBRANCH   7  10
BRANCH   5  16
ATOM     16  C   UNL     1      37.285 -21.390 -17.583  0.00  0.00    +0.272 C 
BRANCH  16  17
ATOM     17  O   UNL     1      37.029 -21.961 -18.865  0.00  0.00    -0.467 OA
BRANCH  17  20
ATOM     18  N   UNL     1      33.592 -20.710 -20.817  0.00  0.00    -0.248 NA
ATOM     19  C   UNL     1      35.965 -20.495 -20.460  0.00  0.00    +0.030 C 
ATOM     20  C   UNL     1      35.912 -21.533 -19.519  0.00  0.00    +0.138 C 
ATOM     21  C   UNL     1      34.765 -20.110 -21.094  0.00  0.00    +0.066 C 
ATOM     22  C   UNL     1      37.172 -19.847 -20.773  0.00  0.00    +0.059 C 
ATOM     23  C   UNL     1      34.819 -19.080 -22.028  0.00  0.00    +0.109 C 
ATOM     24  C   UNL     1      34.704 -22.152 -19.232  0.00  0.00    +0.057 C 
ATOM     25  C   UNL     1      36.019 -18.436 -22.339  0.00  0.00    +0.118 C 
ATOM     26  C   UNL     1      37.197 -18.820 -21.711  0.00  0.00    +0.011 C 
ATOM     27  C   UNL     1      33.583 -21.707 -19.904  0.00  0.00    +0.102 C 
BRANCH  25  28
ATOM     28  O   UNL     1      36.033 -17.433 -23.260  0.00  0.00    -0.476 OA
ATOM     29  C   UNL     1      35.136 -17.553 -24.364  0.00  0.00    +0.252 C 
ENDBRANCH  25  28
ENDBRANCH  17  20
ENDBRANCH  16  17
ENDBRANCH   5  16
TORSDOF 5
ENDMDL
MODEL 2
REMARK VINA RESULT:     -11.4      7.139     12.030
REMARK  Name = 24864821
REMARK  5 active torsions:
REMARK  status: ('A' for Active; 'I' for Inactive)
REMARK    1  A    between atoms: C_5  and  C_16
REMARK    2  A    between atoms: C_7  and  C_10
REMARK    3  A    between atoms: C_16  and  O_17
REMARK    4  A    between atoms: O_17  and  C_20
REMARK    5  A    between atoms: C_25  and  O_28
REMARK                            x       y       z     vdW  Elec       q    Type
REMARK                         _______ _______ _______ _____ _____    ______ ____
ROOT
ATOM      1  N   UNL     1      32.457 -11.954 -21.476  0.00  0.00    -0.191 N 
ATOM      2  N   UNL     1      32.443 -10.730 -22.062  0.00  0.00    -0.163 NA
ATOM      3  N   UNL     1      32.704 -14.111 -21.178  0.00  0.00    -0.128 NA
ATOM      4  N   UNL     1      32.270 -13.559 -19.990  0.00  0.00    -0.127 NA
ATOM      5  C   UNL     1      32.810 -13.138 -22.054  0.00  0.00    +0.208 A 
ATOM      6  C   UNL     1      32.125 -12.265 -20.178  0.00  0.00    +0.186 A 
ATOM      7  C   UNL     1      32.070  -9.769 -21.264  0.00  0.00    +0.101 C 
ATOM      8  C   UNL     1      31.708 -11.209 -19.345  0.00  0.00    +0.042 C 
ATOM      9  C   UNL     1      31.663  -9.963 -19.835  0.00  0.00    +0.024 C 
ENDROOT
BRANCH   7  10
ATOM     10  C   UNL     1      32.018  -8.379 -21.788  0.00  0.00    +0.019 C 
ATOM     11  C   UNL     1      32.421  -7.314 -20.983  0.00  0.00    +0.002 C 
ATOM     12  C   UNL     1      31.568  -8.140 -23.087  0.00  0.00    +0.002 C 
ATOM     13  C   UNL     1      32.374  -6.011 -21.476  0.00  0.00    +0.000 C 
ATOM     14  C   UNL     1      31.520  -6.837 -23.580  0.00  0.00    +0.000 C 
ATOM     15  C   UNL     1      31.923  -5.771 -22.775  0.00  0.00    +0.000 C 
ENDBRANCH   7  10
BRANCH   5  16
ATOM     16  C   UNL     1      33.248 -13.253 -23.485  0.00  0.00    +0.272 C 
BRANCH  16  17
ATOM     17  O   UNL     1      34.501 -13.934 -23.534  0.00  0.00    -0.467 OA
BRANCH  17  20
ATOM     18  N   UNL     1      34.568 -17.521 -25.612  0.00  0.00    -0.248 NA
ATOM     19  C   UNL     1      34.934 -16.308 -23.563  0.00  0.00    +0.030 C 
ATOM     20  C   UNL     1      34.531 -15.125 -24.197  0.00  0.00    +0.138 C 
ATOM     21  C   UNL     1      34.938 -17.499 -24.318  0.00  0.00    +0.066 C 
ATOM     22  C   UNL     1      35.327 -16.322 -22.213  0.00  0.00    +0.059 C 
ATOM     23  C   UNL     1      35.339 -18.673 -23.687  0.00  0.00    +0.109 C 
ATOM     24  C   UNL     1      34.149 -15.144 -25.531  0.00  0.00    +0.057 C 
ATOM     25  C   UNL     1      35.729 -18.688 -22.346  0.00  0.00    +0.118 C 
ATOM     26  C   UNL     1      35.724 -17.510 -21.608  0.00  0.00    +0.011 C 
ATOM     27  C   UNL     1      34.185 -16.358 -26.188  0.00  0.00    +0.102 C 
BRANCH  25  28
ATOM     28  O   UNL     1      36.114 -19.856 -21.762  0.00  0.00    -0.476 OA
ATOM     29  C   UNL     1      35.224 -20.426 -20.802  0.00  0.00    +0.252 C 
ENDBRANCH  25  28
ENDBRANCH  17  20
ENDBRANCH  16  17
ENDBRANCH   5  16
TORSDOF 5
ENDMDL
MODEL 3
REMARK VINA RESULT:     -11.4      7.613     12.837
REMARK  Name = 24864821
REMARK  5 active torsions:
REMARK  status: ('A' for Active; 'I' for Inactive)
REMARK    1  A    between atoms: C_5  and  C_16
REMARK    2  A    between atoms: C_7  and  C_10
REMARK    3  A    between atoms: C_16  and  O_17
REMARK    4  A    between atoms: O_17  and  C_20
REMARK    5  A    between atoms: C_25  and  O_28
REMARK                            x       y       z     vdW  Elec       q    Type
REMARK                         _______ _______ _______ _____ _____    ______ ____
ROOT
ATOM      1  N   UNL     1      32.265 -11.050 -21.464  0.00  0.00    -0.191 N 
ATOM      2  N   UNL     1      32.466 -10.052 -22.361  0.00  0.00    -0.163 NA
ATOM      3  N   UNL     1      31.998 -13.049 -20.608  0.00  0.00    -0.128 NA
ATOM      4  N   UNL     1      31.930 -12.129 -19.583  0.00  0.00    -0.127 NA
ATOM      5  C   UNL     1      32.198 -12.387 -21.725  0.00  0.00    +0.208 A 
ATOM      6  C   UNL     1      32.092 -10.933 -20.105  0.00  0.00    +0.186 A 
ATOM      7  C   UNL     1      32.494  -8.863 -21.827  0.00  0.00    +0.101 C 
ATOM      8  C   UNL     1      32.109  -9.634 -19.559  0.00  0.00    +0.042 C 
ATOM      9  C   UNL     1      32.302  -8.584 -20.367  0.00  0.00    +0.024 C 
ENDROOT
BRANCH   7  10
ATOM     10  C   UNL     1      32.711  -7.684 -22.706  0.00  0.00    +0.019 C 
ATOM     11  C   UNL     1      31.637  -6.866 -23.055  0.00  0.00    +0.002 C 
ATOM     12  C   UNL     1      33.990  -7.396 -23.181  0.00  0.00    +0.002 C 
ATOM     13  C   UNL     1      31.842  -5.760 -23.878  0.00  0.00    +0.000 C 
ATOM     14  C   UNL     1      34.195  -6.289 -24.005  0.00  0.00    +0.000 C 
ATOM     15  C   UNL     1      33.121  -5.471 -24.355  0.00  0.00    +0.000 C 
ENDBRANCH   7  10
BRANCH   5  16
ATOM     16  C   UNL     1      32.340 -12.962 -23.104  0.00  0.00    +0.272 C 
BRANCH  16  17
ATOM     17  O   UNL     1      33.718 -13.233 -23.355  0.00  0.00    -0.467 OA
BRANCH  17  20
ATOM     18  N   UNL     1      34.551 -16.397 -25.902  0.00  0.00    -0.248 NA
ATOM     19  C   UNL     1      34.593 -15.458 -23.684  0.00  0.00    +0.030 C 
ATOM     20  C   UNL     1      34.001 -14.286 -24.174  0.00  0.00    +0.138 C 
ATOM     21  C   UNL     1      34.854 -16.502 -24.595  0.00  0.00    +0.066 C 
ATOM     22  C   UNL     1      34.923 -15.603 -22.325  0.00  0.00    +0.059 C 
ATOM     23  C   UNL     1      35.442 -17.666 -24.107  0.00  0.00    +0.109 C 
ATOM     24  C   UNL     1      33.687 -14.174 -25.521  0.00  0.00    +0.057 C 
ATOM     25  C   UNL     1      35.770 -17.810 -22.756  0.00  0.00    +0.118 C 
ATOM     26  C   UNL     1      35.510 -16.777 -21.864  0.00  0.00    +0.011 C 
ATOM     27  C   UNL     1      33.980 -15.250 -26.336  0.00  0.00    +0.102 C 
BRANCH  25  28
ATOM     28  O   UNL     1      36.343 -18.963 -22.316  0.00  0.00    -0.476 OA
ATOM     29  C   UNL     1      35.540 -19.816 -21.500  0.00  0.00    +0.252 C 
ENDBRANCH  25  28
ENDBRANCH  17  20
ENDBRANCH  16  17
ENDBRANCH   5  16
TORSDOF 5
ENDMDL
MODEL 4
REMARK VINA RESULT:     -10.9      4.574     10.049
REMARK  Name = 24864821
REMARK  5 active torsions:
REMARK  status: ('A' for Active; 'I' for Inactive)
REMARK    1  A    between atoms: C_5  and  C_16
REMARK    2  A    between atoms: C_7  and  C_10
REMARK    3  A    between atoms: C_16  and  O_17
REMARK    4  A    between atoms: O_17  and  C_20
REMARK    5  A    between atoms: C_25  and  O_28
REMARK                            x       y       z     vdW  Elec       q    Type
REMARK                         _______ _______ _______ _____ _____    ______ ____
ROOT
ATOM      1  N   UNL     1      34.365 -15.291 -24.067  0.00  0.00    -0.191 N 
ATOM      2  N   UNL     1      33.960 -14.552 -23.003  0.00  0.00    -0.163 NA
ATOM      3  N   UNL     1      35.316 -16.862 -25.262  0.00  0.00    -0.128 NA
ATOM      4  N   UNL     1      34.659 -16.006 -26.121  0.00  0.00    -0.127 NA
ATOM      5  C   UNL     1      35.131 -16.419 -24.039  0.00  0.00    +0.208 A 
ATOM      6  C   UNL     1      34.091 -15.067 -25.396  0.00  0.00    +0.186 A 
ATOM      7  C   UNL     1      33.225 -13.525 -23.326  0.00  0.00    +0.101 C 
ATOM      8  C   UNL     1      33.310 -13.939 -25.715  0.00  0.00    +0.042 C 
ATOM      9  C   UNL     1      32.863 -13.149 -24.731  0.00  0.00    +0.024 C 
ENDROOT
BRANCH   7  10
ATOM     10  C   UNL     1      32.715 -12.638 -22.247  0.00  0.00    +0.019 C 
ATOM     11  C   UNL     1      32.377 -11.316 -22.533  0.00  0.00    +0.002 C 
ATOM     12  C   UNL     1      32.573 -13.130 -20.950  0.00  0.00    +0.002 C 
ATOM     13  C   UNL     1      31.897 -10.486 -21.521  0.00  0.00    +0.000 C 
ATOM     14  C   UNL     1      32.093 -12.300 -19.938  0.00  0.00    +0.000 C 
ATOM     15  C   UNL     1      31.754 -10.977 -20.222  0.00  0.00    +0.000 C 
ENDBRANCH   7  10
BRANCH   5  16
ATOM     16  C   UNL     1      35.655 -17.024 -22.769  0.00  0.00    +0.272 C 
BRANCH  16  17
ATOM     17  O   UNL     1      35.121 -18.339 -22.625  0.00  0.00    -0.467 OA
BRANCH  17  20
ATOM     18  N   UNL     1      36.954 -20.750 -19.794  0.00  0.00    -0.248 NA
ATOM     19  C   UNL     1      34.957 -20.081 -20.963  0.00  0.00    +0.030 C 
ATOM     20  C   UNL     1      35.703 -19.142 -21.689  0.00  0.00    +0.138 C 
ATOM     21  C   UNL     1      35.632 -20.874 -20.012  0.00  0.00    +0.066 C 
ATOM     22  C   UNL     1      33.575 -20.237 -21.164  0.00  0.00    +0.059 C 
ATOM     23  C   UNL     1      34.890 -21.806 -19.291  0.00  0.00    +0.109 C 
ATOM     24  C   UNL     1      37.066 -19.012 -21.467  0.00  0.00    +0.057 C 
ATOM     25  C   UNL     1      33.516 -21.962 -19.491  0.00  0.00    +0.118 C 
ATOM     26  C   UNL     1      32.858 -21.176 -20.429  0.00  0.00    +0.011 C 
ATOM     27  C   UNL     1      37.639 -19.834 -20.516  0.00  0.00    +0.102 C 
BRANCH  25  28
ATOM     28  O   UNL     1      32.825 -22.884 -18.768  0.00  0.00    -0.476 OA
ATOM     29  C   UNL     1      33.378 -23.271 -17.510  0.00  0.00    +0.252 C 
ENDBRANCH  25  28
ENDBRANCH  17  20
ENDBRANCH  16  17
ENDBRANCH   5  16
TORSDOF 5
ENDMDL
MODEL 5
REMARK VINA RESULT:     -10.9      1.844      4.278
REMARK  Name = 24864821
REMARK  5 active torsions:
REMARK  status: ('A' for Active; 'I' for Inactive)
REMARK    1  A    between atoms: C_5  and  C_16
REMARK    2  A    between atoms: C_7  and  C_10
REMARK    3  A    between atoms: C_16  and  O_17
REMARK    4  A    between atoms: O_17  and  C_20
REMARK    5  A    between atoms: C_25  and  O_28
REMARK                            x       y       z     vdW  Elec       q    Type
REMARK                         _______ _______ _______ _____ _____    ______ ____
ROOT
ATOM      1  N   UNL     1      33.803 -23.432 -17.065  0.00  0.00    -0.191 N 
ATOM      2  N   UNL     1      34.941 -23.985 -16.576  0.00  0.00    -0.163 NA
ATOM      3  N   UNL     1      32.380 -22.474 -18.429  0.00  0.00    -0.128 NA
ATOM      4  N   UNL     1      31.740 -22.699 -17.227  0.00  0.00    -0.127 NA
ATOM      5  C   UNL     1      33.612 -22.917 -18.314  0.00  0.00    +0.208 A 
ATOM      6  C   UNL     1      32.601 -23.275 -16.416  0.00  0.00    +0.186 A 
ATOM      7  C   UNL     1      34.835 -24.406 -15.347  0.00  0.00    +0.101 C 
ATOM      8  C   UNL     1      32.522 -23.723 -15.083  0.00  0.00    +0.042 C 
ATOM      9  C   UNL     1      33.596 -24.284 -14.513  0.00  0.00    +0.024 C 
ENDROOT
BRANCH   7  10
ATOM     10  C   UNL     1      36.014 -25.036 -14.698  0.00  0.00    +0.019 C 
ATOM     11  C   UNL     1      36.563 -24.471 -13.548  0.00  0.00    +0.002 C 
ATOM     12  C   UNL     1      36.571 -26.195 -15.239  0.00  0.00    +0.002 C 
ATOM     13  C   UNL     1      37.669 -25.064 -12.939  0.00  0.00    +0.000 C 
ATOM     14  C   UNL     1      37.676 -26.788 -14.630  0.00  0.00    +0.000 C 
ATOM     15  C   UNL     1      38.226 -26.223 -13.480  0.00  0.00    +0.000 C 
ENDBRANCH   7  10
BRANCH   5  16
ATOM     16  C   UNL     1      34.684 -22.889 -19.363  0.00  0.00    +0.272 C 
BRANCH  16  17
ATOM     17  O   UNL     1      34.450 -21.786 -20.237  0.00  0.00    -0.467 OA
BRANCH  17  20
ATOM     18  N   UNL     1      37.576 -19.091 -20.635  0.00  0.00    -0.248 NA
ATOM     19  C   UNL     1      35.490 -19.978 -21.451  0.00  0.00    +0.030 C 
ATOM     20  C   UNL     1      35.468 -20.891 -20.388  0.00  0.00    +0.138 C 
ATOM     21  C   UNL     1      36.577 -19.084 -21.538  0.00  0.00    +0.066 C 
ATOM     22  C   UNL     1      34.464 -19.942 -22.412  0.00  0.00    +0.059 C 
ATOM     23  C   UNL     1      36.599 -18.178 -22.594  0.00  0.00    +0.109 C 
ATOM     24  C   UNL     1      36.496 -20.901 -19.456  0.00  0.00    +0.057 C 
ATOM     25  C   UNL     1      35.579 -18.142 -23.549  0.00  0.00    +0.118 C 
ATOM     26  C   UNL     1      34.511 -19.026 -23.458  0.00  0.00    +0.011 C 
ATOM     27  C   UNL     1      37.518 -19.987 -19.623  0.00  0.00    +0.102 C 
BRANCH  25  28
ATOM     28  O   UNL     1      35.633 -17.240 -24.567  0.00  0.00    -0.476 OA
ATOM     29  C   UNL     1      34.536 -17.226 -25.480  0.00  0.00    +0.252 C 
ENDBRANCH  25  28
ENDBRANCH  17  20
ENDBRANCH  16  17
ENDBRANCH   5  16
TORSDOF 5
ENDMDL
MODEL 6
REMARK VINA RESULT:     -10.6      1.233      1.514
REMARK  Name = 24864821
REMARK  5 active torsions:
REMARK  status: ('A' for Active; 'I' for Inactive)
REMARK    1  A    between atoms: C_5  and  C_16
REMARK    2  A    between atoms: C_7  and  C_10
REMARK    3  A    between atoms: C_16  and  O_17
REMARK    4  A    between atoms: O_17  and  C_20
REMARK    5  A    between atoms: C_25  and  O_28
REMARK                            x       y       z     vdW  Elec       q    Type
REMARK                         _______ _______ _______ _____ _____    ______ ____
ROOT
ATOM      1  N   UNL     1      35.918 -23.381 -14.881  0.00  0.00    -0.191 N 
ATOM      2  N   UNL     1      34.616 -23.380 -15.260  0.00  0.00    -0.163 NA
ATOM      3  N   UNL     1      38.081 -23.031 -14.882  0.00  0.00    -0.128 NA
ATOM      4  N   UNL     1      37.756 -23.717 -13.729  0.00  0.00    -0.127 NA
ATOM      5  C   UNL     1      36.971 -22.840 -15.558  0.00  0.00    +0.208 A 
ATOM      6  C   UNL     1      36.457 -23.922 -13.737  0.00  0.00    +0.186 A 
ATOM      7  C   UNL     1      33.820 -23.965 -14.410  0.00  0.00    +0.101 C 
ATOM      8  C   UNL     1      35.575 -24.564 -12.846  0.00  0.00    +0.042 C 
ATOM      9  C   UNL     1      34.268 -24.612 -13.135  0.00  0.00    +0.024 C 
ENDROOT
BRANCH   7  10
ATOM     10  C   UNL     1      32.365 -24.025 -14.711  0.00  0.00    +0.019 C 
ATOM     11  C   UNL     1      31.734 -22.942 -15.323  0.00  0.00    +0.002 C 
ATOM     12  C   UNL     1      31.632 -25.165 -14.382  0.00  0.00    +0.002 C 
ATOM     13  C   UNL     1      30.370 -23.000 -15.606  0.00  0.00    +0.000 C 
ATOM     14  C   UNL     1      30.268 -25.223 -14.666  0.00  0.00    +0.000 C 
ATOM     15  C   UNL     1      29.635 -24.140 -15.278  0.00  0.00    +0.000 C 
ENDBRANCH   7  10
BRANCH   5  16
ATOM     16  C   UNL     1      36.825 -22.138 -16.877  0.00  0.00    +0.272 C 
BRANCH  16  17
ATOM     17  O   UNL     1      36.137 -22.995 -17.785  0.00  0.00    -0.467 OA
BRANCH  17  20
ATOM     18  N   UNL     1      32.870 -21.408 -19.786  0.00  0.00    -0.248 NA
ATOM     19  C   UNL     1      35.257 -21.515 -19.477  0.00  0.00    +0.030 C 
ATOM     20  C   UNL     1      35.077 -22.460 -18.457  0.00  0.00    +0.138 C 
ATOM     21  C   UNL     1      34.111 -21.008 -20.123  0.00  0.00    +0.066 C 
ATOM     22  C   UNL     1      36.537 -21.075 -19.855  0.00  0.00    +0.059 C 
ATOM     23  C   UNL     1      34.290 -20.070 -21.136  0.00  0.00    +0.109 C 
ATOM     24  C   UNL     1      33.800 -22.873 -18.107  0.00  0.00    +0.057 C 
ATOM     25  C   UNL     1      35.563 -19.633 -21.512  0.00  0.00    +0.118 C 
ATOM     26  C   UNL     1      36.688 -20.136 -20.870  0.00  0.00    +0.011 C 
ATOM     27  C   UNL     1      32.739 -22.321 -18.797  0.00  0.00    +0.102 C 
BRANCH  25  28
ATOM     28  O   UNL     1      35.699 -18.715 -22.508  0.00  0.00    -0.476 OA
ATOM     29  C   UNL     1      37.023 -18.459 -22.977  0.00  0.00    +0.252 C 
ENDBRANCH  25  28
ENDBRANCH  17  20
ENDBRANCH  16  17
ENDBRANCH   5  16
TORSDOF 5
ENDMDL
MODEL 7
REMARK VINA RESULT:     -10.6      2.750      6.768
REMARK  Name = 24864821
REMARK  5 active torsions:
REMARK  status: ('A' for Active; 'I' for Inactive)
REMARK    1  A    between atoms: C_5  and  C_16
REMARK    2  A    between atoms: C_7  and  C_10
REMARK    3  A    between atoms: C_16  and  O_17
REMARK    4  A    between atoms: O_17  and  C_20
REMARK    5  A    between atoms: C_25  and  O_28
REMARK                            x       y       z     vdW  Elec       q    Type
REMARK                         _______ _______ _______ _____ _____    ______ ____
ROOT
ATOM      1  N   UNL     1      36.421 -23.365 -16.168  0.00  0.00    -0.191 N 
ATOM      2  N   UNL     1      35.603 -22.923 -17.155  0.00  0.00    -0.163 NA
ATOM      3  N   UNL     1      37.154 -24.438 -14.403  0.00  0.00    -0.128 NA
ATOM      4  N   UNL     1      38.188 -23.672 -14.902  0.00  0.00    -0.127 NA
ATOM      5  C   UNL     1      36.106 -24.241 -15.171  0.00  0.00    +0.208 A 
ATOM      6  C   UNL     1      37.740 -23.033 -15.960  0.00  0.00    +0.186 A 
ATOM      7  C   UNL     1      36.176 -22.092 -17.981  0.00  0.00    +0.101 C 
ATOM      8  C   UNL     1      38.327 -22.120 -16.858  0.00  0.00    +0.042 C 
ATOM      9  C   UNL     1      37.596 -21.629 -17.867  0.00  0.00    +0.024 C 
ENDROOT
BRANCH   7  10
ATOM     10  C   UNL     1      35.384 -21.539 -19.110  0.00  0.00    +0.019 C 
ATOM     11  C   UNL     1      34.013 -21.785 -19.187  0.00  0.00    +0.002 C 
ATOM     12  C   UNL     1      36.011 -20.772 -20.092  0.00  0.00    +0.002 C 
ATOM     13  C   UNL     1      33.270 -21.264 -20.245  0.00  0.00    +0.000 C 
ATOM     14  C   UNL     1      35.267 -20.251 -21.150  0.00  0.00    +0.000 C 
ATOM     15  C   UNL     1      33.896 -20.497 -21.228  0.00  0.00    +0.000 C 
ENDBRANCH   7  10
BRANCH   5  16
ATOM     16  C   UNL     1      34.747 -24.861 -15.023  0.00  0.00    +0.272 C 
BRANCH  16  17
ATOM     17  O   UNL     1      33.777 -23.825 -14.881  0.00  0.00    -0.467 OA
BRANCH  17  20
ATOM     18  N   UNL     1      29.905 -25.038 -14.028  0.00  0.00    -0.248 NA
ATOM     19  C   UNL     1      31.423 -23.781 -15.413  0.00  0.00    +0.030 C 
ATOM     20  C   UNL     1      32.496 -24.211 -14.620  0.00  0.00    +0.138 C 
ATOM     21  C   UNL     1      30.127 -24.224 -15.077  0.00  0.00    +0.066 C 
ATOM     22  C   UNL     1      31.618 -22.931 -16.516  0.00  0.00    +0.059 C 
ATOM     23  C   UNL     1      29.063 -23.796 -15.866  0.00  0.00    +0.109 C 
ATOM     24  C   UNL     1      32.270 -25.050 -13.538  0.00  0.00    +0.057 C 
ATOM     25  C   UNL     1      29.257 -22.952 -16.962  0.00  0.00    +0.118 C 
ATOM     26  C   UNL     1      30.537 -22.519 -17.287  0.00  0.00    +0.011 C 
ATOM     27  C   UNL     1      30.966 -25.431 -13.287  0.00  0.00    +0.102 C 
BRANCH  25  28
ATOM     28  O   UNL     1      28.192 -22.556 -17.711  0.00  0.00    -0.476 OA
ATOM     29  C   UNL     1      27.016 -22.156 -17.007  0.00  0.00    +0.252 C 
ENDBRANCH  25  28
ENDBRANCH  17  20
ENDBRANCH  16  17
ENDBRANCH   5  16
TORSDOF 5
ENDMDL
MODEL 8
REMARK VINA RESULT:     -10.6      4.137      9.584
REMARK  Name = 24864821
REMARK  5 active torsions:
REMARK  status: ('A' for Active; 'I' for Inactive)
REMARK    1  A    between atoms: C_5  and  C_16
REMARK    2  A    between atoms: C_7  and  C_10
REMARK    3  A    between atoms: C_16  and  O_17
REMARK    4  A    between atoms: O_17  and  C_20
REMARK    5  A    between atoms: C_25  and  O_28
REMARK                            x       y       z     vdW  Elec       q    Type
REMARK                         _______ _______ _______ _____ _____    ______ ____
ROOT
ATOM      1  N   UNL     1      34.611 -15.913 -23.742  0.00  0.00    -0.191 N 
ATOM      2  N   UNL     1      34.145 -15.105 -22.757  0.00  0.00    -0.163 NA
ATOM      3  N   UNL     1      35.602 -17.577 -24.768  0.00  0.00    -0.128 NA
ATOM      4  N   UNL     1      35.051 -16.748 -25.724  0.00  0.00    -0.127 NA
ATOM      5  C   UNL     1      35.330 -17.063 -23.590  0.00  0.00    +0.208 A 
ATOM      6  C   UNL     1      34.459 -15.754 -25.099  0.00  0.00    +0.186 A 
ATOM      7  C   UNL     1      33.478 -14.074 -23.194  0.00  0.00    +0.101 C 
ATOM      8  C   UNL     1      33.749 -14.620 -25.542  0.00  0.00    +0.042 C 
ATOM      9  C   UNL     1      33.249 -13.764 -24.642  0.00  0.00    +0.024 C 
ENDROOT
BRANCH   7  10
ATOM     10  C   UNL     1      32.911 -13.115 -22.210  0.00  0.00    +0.019 C 
ATOM     11  C   UNL     1      32.602 -11.813 -22.603  0.00  0.00    +0.002 C 
ATOM     12  C   UNL     1      32.688 -13.517 -20.894  0.00  0.00    +0.002 C 
ATOM     13  C   UNL     1      32.069 -10.914 -21.680  0.00  0.00    +0.000 C 
ATOM     14  C   UNL     1      32.154 -12.618 -19.971  0.00  0.00    +0.000 C 
ATOM     15  C   UNL     1      31.845 -11.316 -20.363  0.00  0.00    +0.000 C 
ENDBRANCH   7  10
BRANCH   5  16
ATOM     16  C   UNL     1      35.723 -17.613 -22.250  0.00  0.00    +0.272 C 
BRANCH  16  17
ATOM     17  O   UNL     1      35.842 -19.031 -22.348  0.00  0.00    -0.467 OA
BRANCH  17  20
ATOM     18  N   UNL     1      33.050 -21.271 -20.254  0.00  0.00    -0.248 NA
ATOM     19  C   UNL     1      35.332 -20.555 -20.547  0.00  0.00    +0.030 C 
ATOM     20  C   UNL     1      34.941 -19.776 -21.644  0.00  0.00    +0.138 C 
ATOM     21  C   UNL     1      34.341 -21.297 -19.872  0.00  0.00    +0.066 C 
ATOM     22  C   UNL     1      36.670 -20.607 -20.120  0.00  0.00    +0.059 C 
ATOM     23  C   UNL     1      34.730 -22.072 -18.782  0.00  0.00    +0.109 C 
ATOM     24  C   UNL     1      33.612 -19.747 -22.041  0.00  0.00    +0.057 C 
ATOM     25  C   UNL     1      36.060 -22.122 -18.357  0.00  0.00    +0.118 C 
ATOM     26  C   UNL     1      37.031 -21.389 -19.028  0.00  0.00    +0.011 C 
ATOM     27  C   UNL     1      32.713 -20.506 -21.318  0.00  0.00    +0.102 C 
BRANCH  25  28
ATOM     28  O   UNL     1      36.402 -22.889 -17.287  0.00  0.00    -0.476 OA
ATOM     29  C   UNL     1      37.578 -22.515 -16.569  0.00  0.00    +0.252 C 
ENDBRANCH  25  28
ENDBRANCH  17  20
ENDBRANCH  16  17
ENDBRANCH   5  16
TORSDOF 5
ENDMDL
MODEL 9
REMARK VINA RESULT:     -10.5     10.168     14.357
REMARK  Name = 24864821
REMARK  5 active torsions:
REMARK  status: ('A' for Active; 'I' for Inactive)
REMARK    1  A    between atoms: C_5  and  C_16
REMARK    2  A    between atoms: C_7  and  C_10
REMARK    3  A    between atoms: C_16  and  O_17
REMARK    4  A    between atoms: O_17  and  C_20
REMARK    5  A    between atoms: C_25  and  O_28
REMARK                            x       y       z     vdW  Elec       q    Type
REMARK                         _______ _______ _______ _____ _____    ______ ____
ROOT
ATOM      1  N   UNL     1      32.491 -11.422 -21.848  0.00  0.00    -0.191 N 
ATOM      2  N   UNL     1      33.039 -12.158 -22.847  0.00  0.00    -0.163 NA
ATOM      3  N   UNL     1      31.675  -9.726 -20.726  0.00  0.00    -0.128 NA
ATOM      4  N   UNL     1      31.615 -10.844 -19.920  0.00  0.00    -0.127 NA
ATOM      5  C   UNL     1      32.201 -10.089 -21.873  0.00  0.00    +0.208 A 
ATOM      6  C   UNL     1      32.106 -11.856 -20.601  0.00  0.00    +0.186 A 
ATOM      7  C   UNL     1      33.196 -13.417 -22.547  0.00  0.00    +0.101 C 
ATOM      8  C   UNL     1      32.305 -13.218 -20.299  0.00  0.00    +0.042 C 
ATOM      9  C   UNL     1      32.840 -14.025 -21.225  0.00  0.00    +0.024 C 
ENDROOT
BRANCH   7  10
ATOM     10  C   UNL     1      33.784 -14.329 -23.563  0.00  0.00    +0.019 C 
ATOM     11  C   UNL     1      34.769 -15.245 -23.191  0.00  0.00    +0.002 C 
ATOM     12  C   UNL     1      33.350 -14.271 -24.887  0.00  0.00    +0.002 C 
ATOM     13  C   UNL     1      35.319 -16.102 -24.144  0.00  0.00    +0.000 C 
ATOM     14  C   UNL     1      33.899 -15.128 -25.839  0.00  0.00    +0.000 C 
ATOM     15  C   UNL     1      34.885 -16.044 -25.469  0.00  0.00    +0.000 C 
ENDBRANCH   7  10
BRANCH   5  16
ATOM     16  C   UNL     1      32.464  -9.215 -23.065  0.00  0.00    +0.272 C 
BRANCH  16  17
ATOM     17  O   UNL     1      33.153  -8.042 -22.637  0.00  0.00    -0.467 OA
BRANCH  17  20
ATOM     18  N   UNL     1      31.408  -4.407 -23.603  0.00  0.00    -0.248 NA
ATOM     19  C   UNL     1      33.136  -6.041 -23.987  0.00  0.00    +0.030 C 
ATOM     20  C   UNL     1      32.596  -6.843 -22.972  0.00  0.00    +0.138 C 
ATOM     21  C   UNL     1      32.502  -4.814 -24.273  0.00  0.00    +0.066 C 
ATOM     22  C   UNL     1      34.277  -6.434 -24.707  0.00  0.00    +0.059 C 
ATOM     23  C   UNL     1      33.039  -4.018 -25.281  0.00  0.00    +0.109 C 
ATOM     24  C   UNL     1      31.468  -6.425 -22.279  0.00  0.00    +0.057 C 
ATOM     25  C   UNL     1      34.173  -4.409 -25.997  0.00  0.00    +0.118 C 
ATOM     26  C   UNL     1      34.793  -5.619 -25.709  0.00  0.00    +0.011 C 
ATOM     27  C   UNL     1      30.917  -5.209 -22.631  0.00  0.00    +0.102 C 
BRANCH  25  28
ATOM     28  O   UNL     1      34.669  -3.605 -26.976  0.00  0.00    -0.476 OA
ATOM     29  C   UNL     1      34.615  -4.102 -28.314  0.00  0.00    +0.252 C 
ENDBRANCH  25  28
ENDBRANCH  17  20
ENDBRANCH  16  17
ENDBRANCH   5  16
TORSDOF 5
ENDMDL
