MODEL 1
REMARK VINA RESULT:     -11.0      0.000      0.000
REMARK  Name = 1150567
REMARK  6 active torsions:
REMARK  status: ('A' for Active; 'I' for Inactive)
REMARK    1  A    between atoms: C_1  and  C_3
REMARK    2  A    between atoms: C_1  and  C_17
REMARK    3  A    between atoms: C_10  and  O_12
REMARK    4  A    between atoms: C_11  and  O_14
REMARK    5  A    between atoms: N_16  and  C_23
REMARK    6  A    between atoms: C_23  and  C_24
REMARK                            x       y       z     vdW  Elec       q    Type
REMARK                         _______ _______ _______ _____ _____    ______ ____
ROOT
ATOM      1  C   UNL     1      35.213 -19.830 -23.030  0.00  0.00    +0.008 C 
ENDROOT
BRANCH   1   3
ATOM      2  O   UNL     1      32.729 -20.412 -21.413  0.00  0.00    -0.291 OA
ATOM      3  C   UNL     1      35.047 -19.633 -21.535  0.00  0.00    +0.066 C 
ATOM      4  C   UNL     1      36.269 -20.132 -20.730  0.00  0.00    +0.034 C 
ATOM      5  C   UNL     1      33.875 -20.438 -21.001  0.00  0.00    +0.173 C 
ATOM      6  C   UNL     1      35.687 -21.078 -19.729  0.00  0.00    -0.016 C 
ATOM      7  C   UNL     1      34.320 -21.262 -19.889  0.00  0.00    +0.034 C 
ATOM      8  C   UNL     1      36.359 -21.758 -18.726  0.00  0.00    +0.036 C 
ATOM      9  C   UNL     1      33.574 -22.105 -19.086  0.00  0.00    +0.043 C 
ATOM     10  C   UNL     1      35.631 -22.617 -17.895  0.00  0.00    +0.172 C 
ATOM     11  C   UNL     1      34.249 -22.789 -18.075  0.00  0.00    +0.172 C 
BRANCH  10  12
ATOM     12  O   UNL     1      36.283 -23.292 -16.906  0.00  0.00    -0.468 OA
ATOM     13  C   UNL     1      37.432 -22.664 -16.343  0.00  0.00    +0.253 C 
ENDBRANCH  10  12
BRANCH  11  14
ATOM     14  O   UNL     1      33.551 -23.631 -17.260  0.00  0.00    -0.468 OA
ATOM     15  C   UNL     1      32.244 -23.217 -16.869  0.00  0.00    +0.253 C 
ENDBRANCH  11  14
ENDBRANCH   1   3
BRANCH   1  17
ATOM     16  N   UNL     1      34.454 -15.850 -24.526  0.00  0.00    +0.390 N 
ATOM     17  C   UNL     1      35.434 -18.501 -23.746  0.00  0.00    -0.004 C 
ATOM     18  C   UNL     1      34.406 -18.300 -24.864  0.00  0.00    -0.023 C 
ATOM     19  C   UNL     1      35.364 -17.327 -22.763  0.00  0.00    -0.023 C 
ATOM     20  C   UNL     1      34.558 -16.925 -25.520  0.00  0.00    -0.077 C 
ATOM     21  C   UNL     1      35.485 -15.985 -23.487  0.00  0.00    -0.077 C 
ATOM     22  H   UNL     1      33.542 -15.924 -24.075  0.00  0.00    -0.079 HD
BRANCH  16  23
ATOM     23  C   UNL     1      34.549 -14.542 -25.174  0.00  0.00    -0.050 C 
BRANCH  23  24
ATOM     24  C   UNL     1      33.929 -13.454 -24.338  0.00  0.00    -0.043 C 
ATOM     25  C   UNL     1      33.105 -13.797 -23.273  0.00  0.00    -0.006 C 
ATOM     26  C   UNL     1      34.187 -12.126 -24.642  0.00  0.00    -0.006 C 
ATOM     27  C   UNL     1      32.530 -12.790 -22.498  0.00  0.00    -0.000 C 
ATOM     28  C   UNL     1      33.611 -11.118 -23.866  0.00  0.00    -0.000 C 
ATOM     29  C   UNL     1      32.783 -11.452 -22.794  0.00  0.00    -0.000 C 
ENDBRANCH  23  24
ENDBRANCH  16  23
ENDBRANCH   1  17
TORSDOF 6
ENDMDL
MODEL 2
REMARK VINA RESULT:     -10.9      2.000      3.874
REMARK  Name = 1150567
REMARK  6 active torsions:
REMARK  status: ('A' for Active; 'I' for Inactive)
REMARK    1  A    between atoms: C_1  and  C_3
REMARK    2  A    between atoms: C_1  and  C_17
REMARK    3  A    between atoms: C_10  and  O_12
REMARK    4  A    between atoms: C_11  and  O_14
REMARK    5  A    between atoms: N_16  and  C_23
REMARK    6  A    between atoms: C_23  and  C_24
REMARK                            x       y       z     vdW  Elec       q    Type
REMARK                         _______ _______ _______ _____ _____    ______ ____
ROOT
ATOM      1  C   UNL     1      36.538 -20.533 -19.559  0.00  0.00    +0.008 C 
ENDROOT
BRANCH   1   3
ATOM      2  O   UNL     1      37.480 -22.257 -17.264  0.00  0.00    -0.291 OA
ATOM      3  C   UNL     1      36.089 -21.949 -19.255  0.00  0.00    +0.066 C 
ATOM      4  C   UNL     1      34.559 -22.130 -19.393  0.00  0.00    +0.034 C 
ATOM      5  C   UNL     1      36.397 -22.328 -17.817  0.00  0.00    +0.173 C 
ATOM      6  C   UNL     1      34.139 -22.709 -18.080  0.00  0.00    -0.016 C 
ATOM      7  C   UNL     1      35.186 -22.813 -17.174  0.00  0.00    +0.034 C 
ATOM      8  C   UNL     1      32.866 -23.110 -17.707  0.00  0.00    +0.036 C 
ATOM      9  C   UNL     1      35.028 -23.306 -15.892  0.00  0.00    +0.043 C 
ATOM     10  C   UNL     1      32.674 -23.615 -16.417  0.00  0.00    +0.172 C 
ATOM     11  C   UNL     1      33.747 -23.712 -15.516  0.00  0.00    +0.172 C 
BRANCH  10  12
ATOM     12  O   UNL     1      31.425 -24.012 -16.040  0.00  0.00    -0.468 OA
ATOM     13  C   UNL     1      30.350 -23.118 -16.317  0.00  0.00    +0.253 C 
ENDBRANCH  10  12
BRANCH  11  14
ATOM     14  O   UNL     1      33.546 -24.204 -14.260  0.00  0.00    -0.468 OA
ATOM     15  C   UNL     1      34.685 -24.279 -13.405  0.00  0.00    +0.253 C 
ENDBRANCH  11  14
ENDBRANCH   1   3
BRANCH   1  17
ATOM     16  N   UNL     1      35.617 -18.281 -23.127  0.00  0.00    +0.390 N 
ATOM     17  C   UNL     1      36.362 -20.196 -21.036  0.00  0.00    -0.004 C 
ATOM     18  C   UNL     1      34.904 -19.849 -21.352  0.00  0.00    -0.023 C 
ATOM     19  C   UNL     1      37.271 -19.034 -21.449  0.00  0.00    -0.023 C 
ATOM     20  C   UNL     1      34.738 -19.414 -22.810  0.00  0.00    -0.077 C 
ATOM     21  C   UNL     1      37.028 -18.625 -22.903  0.00  0.00    -0.077 C 
ATOM     22  H   UNL     1      35.378 -17.512 -22.502  0.00  0.00    -0.079 HD
BRANCH  16  23
ATOM     23  C   UNL     1      35.410 -17.843 -24.507  0.00  0.00    -0.050 C 
BRANCH  23  24
ATOM     24  C   UNL     1      34.861 -16.443 -24.576  0.00  0.00    -0.043 C 
ATOM     25  C   UNL     1      34.159 -16.040 -25.704  0.00  0.00    -0.006 C 
ATOM     26  C   UNL     1      35.066 -15.575 -23.513  0.00  0.00    -0.006 C 
ATOM     27  C   UNL     1      33.650 -14.742 -25.769  0.00  0.00    -0.000 C 
ATOM     28  C   UNL     1      34.556 -14.277 -23.578  0.00  0.00    -0.000 C 
ATOM     29  C   UNL     1      33.848 -13.862 -24.706  0.00  0.00    -0.000 C 
ENDBRANCH  23  24
ENDBRANCH  16  23
ENDBRANCH   1  17
TORSDOF 6
ENDMDL
MODEL 3
REMARK VINA RESULT:     -10.4      2.145      3.581
REMARK  Name = 1150567
REMARK  6 active torsions:
REMARK  status: ('A' for Active; 'I' for Inactive)
REMARK    1  A    between atoms: C_1  and  C_3
REMARK    2  A    between atoms: C_1  and  C_17
REMARK    3  A    between atoms: C_10  and  O_12
REMARK    4  A    between atoms: C_11  and  O_14
REMARK    5  A    between atoms: N_16  and  C_23
REMARK    6  A    between atoms: C_23  and  C_24
REMARK                            x       y       z     vdW  Elec       q    Type
REMARK                         _______ _______ _______ _____ _____    ______ ____
ROOT
ATOM      1  C   UNL     1      36.226 -16.866 -22.324  0.00  0.00    +0.008 C 
ENDROOT
BRANCH   1   3
ATOM      2  O   UNL     1      38.043 -19.047 -21.292  0.00  0.00    -0.291 OA
ATOM      3  C   UNL     1      36.047 -18.358 -22.531  0.00  0.00    +0.066 C 
ATOM      4  C   UNL     1      34.585 -18.816 -22.324  0.00  0.00    +0.034 C 
ATOM      5  C   UNL     1      36.851 -19.154 -21.519  0.00  0.00    +0.173 C 
ATOM      6  C   UNL     1      34.684 -19.912 -21.312  0.00  0.00    -0.016 C 
ATOM      7  C   UNL     1      35.978 -20.100 -20.842  0.00  0.00    +0.034 C 
ATOM      8  C   UNL     1      33.654 -20.698 -20.819  0.00  0.00    +0.036 C 
ATOM      9  C   UNL     1      36.304 -21.048 -19.890  0.00  0.00    +0.043 C 
ATOM     10  C   UNL     1      33.953 -21.667 -19.856  0.00  0.00    +0.172 C 
ATOM     11  C   UNL     1      35.268 -21.840 -19.395  0.00  0.00    +0.172 C 
BRANCH  10  12
ATOM     12  O   UNL     1      32.946 -22.446 -19.365  0.00  0.00    -0.468 OA
ATOM     13  C   UNL     1      32.749 -22.433 -17.953  0.00  0.00    +0.253 C 
ENDBRANCH  10  12
BRANCH  11  14
ATOM     14  O   UNL     1      35.546 -22.788 -18.454  0.00  0.00    -0.468 OA
ATOM     15  C   UNL     1      36.345 -22.383 -17.345  0.00  0.00    +0.253 C 
ENDBRANCH  11  14
ENDBRANCH   1   3
BRANCH   1  17
ATOM     16  N   UNL     1      33.382 -13.616 -22.365  0.00  0.00    +0.390 N 
ATOM     17  C   UNL     1      34.895 -16.127 -22.421  0.00  0.00    -0.004 C 
ATOM     18  C   UNL     1      34.581 -15.384 -21.118  0.00  0.00    -0.023 C 
ATOM     19  C   UNL     1      34.899 -15.138 -23.592  0.00  0.00    -0.023 C 
ATOM     20  C   UNL     1      33.298 -14.559 -21.243  0.00  0.00    -0.077 C 
ATOM     21  C   UNL     1      33.606 -14.321 -23.636  0.00  0.00    -0.077 C 
ATOM     22  H   UNL     1      34.180 -13.002 -22.202  0.00  0.00    -0.079 HD
BRANCH  16  23
ATOM     23  C   UNL     1      32.171 -12.799 -22.440  0.00  0.00    -0.050 C 
BRANCH  23  24
ATOM     24  C   UNL     1      32.082 -11.821 -21.299  0.00  0.00    -0.043 C 
ATOM     25  C   UNL     1      31.907 -12.296 -20.006  0.00  0.00    -0.006 C 
ATOM     26  C   UNL     1      32.173 -10.461 -21.555  0.00  0.00    -0.006 C 
ATOM     27  C   UNL     1      31.824 -11.391 -18.947  0.00  0.00    -0.000 C 
ATOM     28  C   UNL     1      32.090  -9.555 -20.496  0.00  0.00    -0.000 C 
ATOM     29  C   UNL     1      31.915 -10.021 -19.193  0.00  0.00    -0.000 C 
ENDBRANCH  23  24
ENDBRANCH  16  23
ENDBRANCH   1  17
TORSDOF 6
ENDMDL
MODEL 4
REMARK VINA RESULT:     -10.3      2.333      4.086
REMARK  Name = 1150567
REMARK  6 active torsions:
REMARK  status: ('A' for Active; 'I' for Inactive)
REMARK    1  A    between atoms: C_1  and  C_3
REMARK    2  A    between atoms: C_1  and  C_17
REMARK    3  A    between atoms: C_10  and  O_12
REMARK    4  A    between atoms: C_11  and  O_14
REMARK    5  A    between atoms: N_16  and  C_23
REMARK    6  A    between atoms: C_23  and  C_24
REMARK                            x       y       z     vdW  Elec       q    Type
REMARK                         _______ _______ _______ _____ _____    ______ ____
ROOT
ATOM      1  C   UNL     1      34.952 -22.600 -19.844  0.00  0.00    +0.008 C 
ENDROOT
BRANCH   1   3
ATOM      2  O   UNL     1      32.339 -22.578 -18.328  0.00  0.00    -0.291 OA
ATOM      3  C   UNL     1      34.728 -22.053 -18.447  0.00  0.00    +0.066 C 
ATOM      4  C   UNL     1      35.849 -22.459 -17.462  0.00  0.00    +0.034 C 
ATOM      5  C   UNL     1      33.453 -22.609 -17.837  0.00  0.00    +0.173 C 
ATOM      6  C   UNL     1      35.121 -23.096 -16.322  0.00  0.00    -0.016 C 
ATOM      7  C   UNL     1      33.753 -23.192 -16.539  0.00  0.00    +0.034 C 
ATOM      8  C   UNL     1      35.665 -23.585 -15.145  0.00  0.00    +0.036 C 
ATOM      9  C   UNL     1      32.883 -23.760 -15.626  0.00  0.00    +0.043 C 
ATOM     10  C   UNL     1      34.811 -24.164 -14.201  0.00  0.00    +0.172 C 
ATOM     11  C   UNL     1      33.430 -24.251 -14.440  0.00  0.00    +0.172 C 
BRANCH  10  12
ATOM     12  O   UNL     1      35.337 -24.648 -13.040  0.00  0.00    -0.468 OA
ATOM     13  C   UNL     1      36.646 -25.208 -13.107  0.00  0.00    +0.253 C 
ENDBRANCH  10  12
BRANCH  11  14
ATOM     14  O   UNL     1      32.608 -24.820 -13.513  0.00  0.00    -0.468 OA
ATOM     15  C   UNL     1      31.209 -24.791 -13.784  0.00  0.00    +0.253 C 
ENDBRANCH  11  14
ENDBRANCH   1   3
BRANCH   1  17
ATOM     16  N   UNL     1      35.878 -18.680 -21.401  0.00  0.00    +0.390 N 
ATOM     17  C   UNL     1      35.452 -21.516 -20.793  0.00  0.00    -0.004 C 
ATOM     18  C   UNL     1      34.311 -20.585 -21.216  0.00  0.00    -0.023 C 
ATOM     19  C   UNL     1      36.577 -20.697 -20.152  0.00  0.00    -0.023 C 
ATOM     20  C   UNL     1      34.823 -19.436 -22.087  0.00  0.00    -0.077 C 
ATOM     21  C   UNL     1      37.015 -19.545 -21.059  0.00  0.00    -0.077 C 
ATOM     22  H   UNL     1      35.489 -18.314 -20.533  0.00  0.00    -0.079 HD
BRANCH  16  23
ATOM     23  C   UNL     1      36.321 -17.555 -22.225  0.00  0.00    -0.050 C 
BRANCH  23  24
ATOM     24  C   UNL     1      35.396 -16.373 -22.106  0.00  0.00    -0.043 C 
ATOM     25  C   UNL     1      35.021 -15.682 -23.250  0.00  0.00    -0.006 C 
ATOM     26  C   UNL     1      34.933 -15.990 -20.855  0.00  0.00    -0.006 C 
ATOM     27  C   UNL     1      34.165 -14.586 -23.141  0.00  0.00    -0.000 C 
ATOM     28  C   UNL     1      34.076 -14.894 -20.746  0.00  0.00    -0.000 C 
ATOM     29  C   UNL     1      33.692 -14.192 -21.890  0.00  0.00    -0.000 C 
ENDBRANCH  23  24
ENDBRANCH  16  23
ENDBRANCH   1  17
TORSDOF 6
ENDMDL
MODEL 5
REMARK VINA RESULT:     -10.1      4.279      9.662
REMARK  Name = 1150567
REMARK  6 active torsions:
REMARK  status: ('A' for Active; 'I' for Inactive)
REMARK    1  A    between atoms: C_1  and  C_3
REMARK    2  A    between atoms: C_1  and  C_17
REMARK    3  A    between atoms: C_10  and  O_12
REMARK    4  A    between atoms: C_11  and  O_14
REMARK    5  A    between atoms: N_16  and  C_23
REMARK    6  A    between atoms: C_23  and  C_24
REMARK                            x       y       z     vdW  Elec       q    Type
REMARK                         _______ _______ _______ _____ _____    ______ ____
ROOT
ATOM      1  C   UNL     1      34.560 -15.269 -24.280  0.00  0.00    +0.008 C 
ENDROOT
BRANCH   1   3
ATOM      2  O   UNL     1      34.680 -12.375 -25.140  0.00  0.00    -0.291 OA
ATOM      3  C   UNL     1      34.747 -14.068 -23.373  0.00  0.00    +0.066 C 
ATOM      4  C   UNL     1      33.886 -14.151 -22.091  0.00  0.00    +0.034 C 
ATOM      5  C   UNL     1      34.305 -12.787 -24.057  0.00  0.00    +0.173 C 
ATOM      6  C   UNL     1      33.120 -12.867 -22.082  0.00  0.00    -0.016 C 
ATOM      7  C   UNL     1      33.350 -12.090 -23.210  0.00  0.00    +0.034 C 
ATOM      8  C   UNL     1      32.239 -12.421 -21.109  0.00  0.00    +0.036 C 
ATOM      9  C   UNL     1      32.738 -10.869 -23.422  0.00  0.00    +0.043 C 
ATOM     10  C   UNL     1      31.605 -11.188 -21.294  0.00  0.00    +0.172 C 
ATOM     11  C   UNL     1      31.852 -10.418 -22.442  0.00  0.00    +0.172 C 
BRANCH  10  12
ATOM     12  O   UNL     1      30.737 -10.740 -20.343  0.00  0.00    -0.468 OA
ATOM     13  C   UNL     1      31.068 -11.013 -18.984  0.00  0.00    +0.253 C 
ENDBRANCH  10  12
BRANCH  11  14
ATOM     14  O   UNL     1      31.226  -9.219 -22.612  0.00  0.00    -0.468 OA
ATOM     15  C   UNL     1      31.989  -8.046 -22.339  0.00  0.00    +0.253 C 
ENDBRANCH  11  14
ENDBRANCH   1   3
BRANCH   1  17
ATOM     16  N   UNL     1      35.415 -18.985 -22.253  0.00  0.00    +0.390 N 
ATOM     17  C   UNL     1      35.338 -16.478 -23.772  0.00  0.00    -0.004 C 
ATOM     18  C   UNL     1      35.366 -16.512 -22.241  0.00  0.00    -0.023 C 
ATOM     19  C   UNL     1      34.738 -17.783 -24.307  0.00  0.00    -0.023 C 
ATOM     20  C   UNL     1      36.057 -17.776 -21.724  0.00  0.00    -0.077 C 
ATOM     21  C   UNL     1      35.450 -19.005 -23.722  0.00  0.00    -0.077 C 
ATOM     22  H   UNL     1      34.438 -18.976 -21.962  0.00  0.00    -0.079 HD
BRANCH  16  23
ATOM     23  C   UNL     1      36.053 -20.184 -21.710  0.00  0.00    -0.050 C 
BRANCH  23  24
ATOM     24  C   UNL     1      35.173 -20.885 -20.710  0.00  0.00    -0.043 C 
ATOM     25  C   UNL     1      35.734 -21.804 -19.833  0.00  0.00    -0.006 C 
ATOM     26  C   UNL     1      33.815 -20.604 -20.678  0.00  0.00    -0.006 C 
ATOM     27  C   UNL     1      34.919 -22.455 -18.906  0.00  0.00    -0.000 C 
ATOM     28  C   UNL     1      33.000 -21.254 -19.750  0.00  0.00    -0.000 C 
ATOM     29  C   UNL     1      33.553 -22.179 -18.864  0.00  0.00    -0.000 C 
ENDBRANCH  23  24
ENDBRANCH  16  23
ENDBRANCH   1  17
TORSDOF 6
ENDMDL
MODEL 6
REMARK VINA RESULT:     -10.1      1.689      3.153
REMARK  Name = 1150567
REMARK  6 active torsions:
REMARK  status: ('A' for Active; 'I' for Inactive)
REMARK    1  A    between atoms: C_1  and  C_3
REMARK    2  A    between atoms: C_1  and  C_17
REMARK    3  A    between atoms: C_10  and  O_12
REMARK    4  A    between atoms: C_11  and  O_14
REMARK    5  A    between atoms: N_16  and  C_23
REMARK    6  A    between atoms: C_23  and  C_24
REMARK                            x       y       z     vdW  Elec       q    Type
REMARK                         _______ _______ _______ _____ _____    ______ ____
ROOT
ATOM      1  C   UNL     1      36.093 -17.149 -21.981  0.00  0.00    +0.008 C 
ENDROOT
BRANCH   1   3
ATOM      2  O   UNL     1      37.827 -19.486 -21.171  0.00  0.00    -0.291 OA
ATOM      3  C   UNL     1      35.797 -18.616 -22.227  0.00  0.00    +0.066 C 
ATOM      4  C   UNL     1      34.326 -18.985 -21.926  0.00  0.00    +0.034 C 
ATOM      5  C   UNL     1      36.617 -19.505 -21.309  0.00  0.00    +0.173 C 
ATOM      6  C   UNL     1      34.424 -20.126 -20.965  0.00  0.00    -0.016 C 
ATOM      7  C   UNL     1      35.733 -20.418 -20.602  0.00  0.00    +0.034 C 
ATOM      8  C   UNL     1      33.382 -20.862 -20.423  0.00  0.00    +0.036 C 
ATOM      9  C   UNL     1      36.062 -21.423 -19.713  0.00  0.00    +0.043 C 
ATOM     10  C   UNL     1      33.683 -21.888 -19.522  0.00  0.00    +0.172 C 
ATOM     11  C   UNL     1      35.014 -22.166 -19.169  0.00  0.00    +0.172 C 
BRANCH  10  12
ATOM     12  O   UNL     1      32.664 -22.617 -18.983  0.00  0.00    -0.468 OA
ATOM     13  C   UNL     1      32.359 -22.386 -17.610  0.00  0.00    +0.253 C 
ENDBRANCH  10  12
BRANCH  11  14
ATOM     14  O   UNL     1      35.294 -23.167 -18.287  0.00  0.00    -0.468 OA
ATOM     15  C   UNL     1      35.757 -22.780 -16.995  0.00  0.00    +0.253 C 
ENDBRANCH  11  14
ENDBRANCH   1   3
BRANCH   1  17
ATOM     16  N   UNL     1      34.287 -13.691 -23.833  0.00  0.00    +0.390 N 
ATOM     17  C   UNL     1      35.038 -16.253 -22.621  0.00  0.00    -0.004 C 
ATOM     18  C   UNL     1      34.816 -14.984 -21.791  0.00  0.00    -0.023 C 
ATOM     19  C   UNL     1      35.432 -15.873 -24.052  0.00  0.00    -0.023 C 
ATOM     20  C   UNL     1      33.834 -14.033 -22.479  0.00  0.00    -0.077 C 
ATOM     21  C   UNL     1      34.429 -14.894 -24.665  0.00  0.00    -0.077 C 
ATOM     22  H   UNL     1      35.204 -13.251 -23.756  0.00  0.00    -0.079 HD
BRANCH  16  23
ATOM     23  C   UNL     1      33.365 -12.742 -24.457  0.00  0.00    -0.050 C 
BRANCH  23  24
ATOM     24  C   UNL     1      33.803 -11.316 -24.254  0.00  0.00    -0.043 C 
ATOM     25  C   UNL     1      34.987 -10.877 -24.831  0.00  0.00    -0.006 C 
ATOM     26  C   UNL     1      33.019 -10.462 -23.492  0.00  0.00    -0.006 C 
ATOM     27  C   UNL     1      35.394  -9.556 -24.642  0.00  0.00    -0.000 C 
ATOM     28  C   UNL     1      33.427  -9.140 -23.304  0.00  0.00    -0.000 C 
ATOM     29  C   UNL     1      34.614  -8.688 -23.880  0.00  0.00    -0.000 C 
ENDBRANCH  23  24
ENDBRANCH  16  23
ENDBRANCH   1  17
TORSDOF 6
ENDMDL
MODEL 7
REMARK VINA RESULT:     -10.0      2.842      5.095
REMARK  Name = 1150567
REMARK  6 active torsions:
REMARK  status: ('A' for Active; 'I' for Inactive)
REMARK    1  A    between atoms: C_1  and  C_3
REMARK    2  A    between atoms: C_1  and  C_17
REMARK    3  A    between atoms: C_10  and  O_12
REMARK    4  A    between atoms: C_11  and  O_14
REMARK    5  A    between atoms: N_16  and  C_23
REMARK    6  A    between atoms: C_23  and  C_24
REMARK                            x       y       z     vdW  Elec       q    Type
REMARK                         _______ _______ _______ _____ _____    ______ ____
ROOT
ATOM      1  C   UNL     1      34.567 -22.944 -19.393  0.00  0.00    +0.008 C 
ENDROOT
BRANCH   1   3
ATOM      2  O   UNL     1      31.899 -22.780 -17.986  0.00  0.00    -0.291 OA
ATOM      3  C   UNL     1      34.309 -22.351 -18.021  0.00  0.00    +0.066 C 
ATOM      4  C   UNL     1      35.373 -22.772 -16.981  0.00  0.00    +0.034 C 
ATOM      5  C   UNL     1      32.990 -22.840 -17.449  0.00  0.00    +0.173 C 
ATOM      6  C   UNL     1      34.576 -23.350 -15.856  0.00  0.00    -0.016 C 
ATOM      7  C   UNL     1      33.215 -23.400 -16.125  0.00  0.00    +0.034 C 
ATOM      8  C   UNL     1      35.054 -23.827 -14.646  0.00  0.00    +0.036 C 
ATOM      9  C   UNL     1      32.288 -23.909 -15.235  0.00  0.00    +0.043 C 
ATOM     10  C   UNL     1      34.141 -24.347 -13.722  0.00  0.00    +0.172 C 
ATOM     11  C   UNL     1      32.768 -24.388 -14.015  0.00  0.00    +0.172 C 
BRANCH  10  12
ATOM     12  O   UNL     1      34.601 -24.819 -12.529  0.00  0.00    -0.468 OA
ATOM     13  C   UNL     1      35.778 -24.212 -12.003  0.00  0.00    +0.253 C 
ENDBRANCH  10  12
BRANCH  11  14
ATOM     14  O   UNL     1      31.888 -24.899 -13.108  0.00  0.00    -0.468 OA
ATOM     15  C   UNL     1      30.535 -25.051 -13.533  0.00  0.00    +0.253 C 
ENDBRANCH  11  14
ENDBRANCH   1   3
BRANCH   1  17
ATOM     16  N   UNL     1      35.949 -19.141 -20.902  0.00  0.00    +0.390 N 
ATOM     17  C   UNL     1      35.083 -21.890 -20.367  0.00  0.00    -0.004 C 
ATOM     18  C   UNL     1      34.095 -20.727 -20.498  0.00  0.00    -0.023 C 
ATOM     19  C   UNL     1      36.452 -21.359 -19.929  0.00  0.00    -0.023 C 
ATOM     20  C   UNL     1      34.652 -19.620 -21.395  0.00  0.00    -0.077 C 
ATOM     21  C   UNL     1      36.932 -20.231 -20.846  0.00  0.00    -0.077 C 
ATOM     22  H   UNL     1      35.815 -18.789 -19.954  0.00  0.00    -0.079 HD
BRANCH  16  23
ATOM     23  C   UNL     1      36.444 -18.048 -21.740  0.00  0.00    -0.050 C 
BRANCH  23  24
ATOM     24  C   UNL     1      35.708 -17.968 -23.050  0.00  0.00    -0.043 C 
ATOM     25  C   UNL     1      35.363 -16.725 -23.564  0.00  0.00    -0.006 C 
ATOM     26  C   UNL     1      35.384 -19.135 -23.726  0.00  0.00    -0.006 C 
ATOM     27  C   UNL     1      34.681 -16.649 -24.779  0.00  0.00    -0.000 C 
ATOM     28  C   UNL     1      34.701 -19.059 -24.941  0.00  0.00    -0.000 C 
ATOM     29  C   UNL     1      34.351 -17.815 -25.467  0.00  0.00    -0.000 C 
ENDBRANCH  23  24
ENDBRANCH  16  23
ENDBRANCH   1  17
TORSDOF 6
ENDMDL
MODEL 8
REMARK VINA RESULT:     -10.0      3.016      9.628
REMARK  Name = 1150567
REMARK  6 active torsions:
REMARK  status: ('A' for Active; 'I' for Inactive)
REMARK    1  A    between atoms: C_1  and  C_3
REMARK    2  A    between atoms: C_1  and  C_17
REMARK    3  A    between atoms: C_10  and  O_12
REMARK    4  A    between atoms: C_11  and  O_14
REMARK    5  A    between atoms: N_16  and  C_23
REMARK    6  A    between atoms: C_23  and  C_24
REMARK                            x       y       z     vdW  Elec       q    Type
REMARK                         _______ _______ _______ _____ _____    ______ ____
ROOT
ATOM      1  C   UNL     1      36.530 -19.390 -21.407  0.00  0.00    +0.008 C 
ENDROOT
BRANCH   1   3
ATOM      2  O   UNL     1      35.416 -16.689 -20.643  0.00  0.00    -0.291 OA
ATOM      3  C   UNL     1      35.271 -18.749 -21.957  0.00  0.00    +0.066 C 
ATOM      4  C   UNL     1      35.148 -18.902 -23.491  0.00  0.00    +0.034 C 
ATOM      5  C   UNL     1      35.264 -17.251 -21.713  0.00  0.00    +0.173 C 
ATOM      6  C   UNL     1      34.957 -17.503 -23.983  0.00  0.00    -0.016 C 
ATOM      7  C   UNL     1      35.034 -16.556 -22.970  0.00  0.00    +0.034 C 
ATOM      8  C   UNL     1      34.741 -17.093 -25.289  0.00  0.00    +0.036 C 
ATOM      9  C   UNL     1      34.904 -15.199 -23.195  0.00  0.00    +0.043 C 
ATOM     10  C   UNL     1      34.602 -15.726 -25.549  0.00  0.00    +0.172 C 
ATOM     11  C   UNL     1      34.684 -14.785 -24.509  0.00  0.00    +0.172 C 
BRANCH  10  12
ATOM     12  O   UNL     1      34.389 -15.313 -26.831  0.00  0.00    -0.468 OA
ATOM     13  C   UNL     1      33.352 -14.358 -27.039  0.00  0.00    +0.253 C 
ENDBRANCH  10  12
BRANCH  11  14
ATOM     14  O   UNL     1      34.550 -13.455 -24.775  0.00  0.00    -0.468 OA
ATOM     15  C   UNL     1      33.907 -12.658 -23.783  0.00  0.00    +0.253 C 
ENDBRANCH  11  14
ENDBRANCH   1   3
BRANCH   1  17
ATOM     16  N   UNL     1      35.040 -22.198 -18.483  0.00  0.00    +0.390 N 
ATOM     17  C   UNL     1      36.226 -20.717 -20.718  0.00  0.00    -0.004 C 
ATOM     18  C   UNL     1      36.882 -20.784 -19.336  0.00  0.00    -0.023 C 
ATOM     19  C   UNL     1      34.715 -20.934 -20.584  0.00  0.00    -0.023 C 
ATOM     20  C   UNL     1      36.498 -22.069 -18.598  0.00  0.00    -0.077 C 
ATOM     21  C   UNL     1      34.402 -22.214 -19.806  0.00  0.00    -0.077 C 
ATOM     22  H   UNL     1      34.692 -21.385 -17.975  0.00  0.00    -0.079 HD
BRANCH  16  23
ATOM     23  C   UNL     1      34.690 -23.403 -17.731  0.00  0.00    -0.050 C 
BRANCH  23  24
ATOM     24  C   UNL     1      33.475 -23.194 -16.868  0.00  0.00    -0.043 C 
ATOM     25  C   UNL     1      32.240 -22.983 -17.467  0.00  0.00    -0.006 C 
ATOM     26  C   UNL     1      33.605 -23.212 -15.487  0.00  0.00    -0.006 C 
ATOM     27  C   UNL     1      31.113 -22.788 -16.669  0.00  0.00    -0.000 C 
ATOM     28  C   UNL     1      32.477 -23.018 -14.688  0.00  0.00    -0.000 C 
ATOM     29  C   UNL     1      31.232 -22.806 -15.280  0.00  0.00    -0.000 C 
ENDBRANCH  23  24
ENDBRANCH  16  23
ENDBRANCH   1  17
TORSDOF 6
ENDMDL
MODEL 9
REMARK VINA RESULT:      -9.9      4.143      7.556
REMARK  Name = 1150567
REMARK  6 active torsions:
REMARK  status: ('A' for Active; 'I' for Inactive)
REMARK    1  A    between atoms: C_1  and  C_3
REMARK    2  A    between atoms: C_1  and  C_17
REMARK    3  A    between atoms: C_10  and  O_12
REMARK    4  A    between atoms: C_11  and  O_14
REMARK    5  A    between atoms: N_16  and  C_23
REMARK    6  A    between atoms: C_23  and  C_24
REMARK                            x       y       z     vdW  Elec       q    Type
REMARK                         _______ _______ _______ _____ _____    ______ ____
ROOT
ATOM      1  C   UNL     1      34.394 -12.324 -25.298  0.00  0.00    +0.008 C 
ENDROOT
BRANCH   1   3
ATOM      2  O   UNL     1      33.871 -15.008 -26.579  0.00  0.00    -0.291 OA
ATOM      3  C   UNL     1      33.729 -13.519 -24.642  0.00  0.00    +0.066 C 
ATOM      4  C   UNL     1      34.238 -13.767 -23.203  0.00  0.00    +0.034 C 
ATOM      5  C   UNL     1      34.041 -14.802 -25.391  0.00  0.00    +0.173 C 
ATOM      6  C   UNL     1      34.680 -15.195 -23.212  0.00  0.00    -0.016 C 
ATOM      7  C   UNL     1      34.579 -15.786 -24.465  0.00  0.00    +0.034 C 
ATOM      8  C   UNL     1      35.170 -15.930 -22.144  0.00  0.00    +0.036 C 
ATOM      9  C   UNL     1      34.946 -17.095 -24.713  0.00  0.00    +0.043 C 
ATOM     10  C   UNL     1      35.548 -17.259 -22.363  0.00  0.00    +0.172 C 
ATOM     11  C   UNL     1      35.437 -17.837 -23.638  0.00  0.00    +0.172 C 
BRANCH  10  12
ATOM     12  O   UNL     1      36.031 -17.991 -21.319  0.00  0.00    -0.468 OA
ATOM     13  C   UNL     1      37.304 -18.609 -21.496  0.00  0.00    +0.253 C 
ENDBRANCH  10  12
BRANCH  11  14
ATOM     14  O   UNL     1      35.811 -19.133 -23.839  0.00  0.00    -0.468 OA
ATOM     15  C   UNL     1      34.964 -19.931 -24.662  0.00  0.00    +0.253 C 
ENDBRANCH  11  14
ENDBRANCH   1   3
BRANCH   1  17
ATOM     16  N   UNL     1      33.946  -8.307 -23.777  0.00  0.00    +0.390 N 
ATOM     17  C   UNL     1      34.469 -11.135 -24.345  0.00  0.00    -0.004 C 
ATOM     18  C   UNL     1      35.318 -10.006 -24.938  0.00  0.00    -0.023 C 
ATOM     19  C   UNL     1      33.069 -10.608 -24.010  0.00  0.00    -0.023 C 
ATOM     20  C   UNL     1      35.314  -8.772 -24.033  0.00  0.00    -0.077 C 
ATOM     21  C   UNL     1      33.139  -9.355 -23.135  0.00  0.00    -0.077 C 
ATOM     22  H   UNL     1      33.515  -8.084 -24.674  0.00  0.00    -0.079 HD
BRANCH  16  23
ATOM     23  C   UNL     1      33.961  -7.098 -22.953  0.00  0.00    -0.050 C 
BRANCH  23  24
ATOM     24  C   UNL     1      33.400  -5.910 -23.689  0.00  0.00    -0.043 C 
ATOM     25  C   UNL     1      32.374  -5.172 -23.113  0.00  0.00    -0.006 C 
ATOM     26  C   UNL     1      33.915  -5.570 -24.932  0.00  0.00    -0.006 C 
ATOM     27  C   UNL     1      31.853  -4.072 -23.795  0.00  0.00    -0.000 C 
ATOM     28  C   UNL     1      33.394  -4.468 -25.613  0.00  0.00    -0.000 C 
ATOM     29  C   UNL     1      32.363  -3.720 -25.043  0.00  0.00    -0.000 C 
ENDBRANCH  23  24
ENDBRANCH  16  23
ENDBRANCH   1  17
TORSDOF 6
ENDMDL
