MODEL 1
REMARK VINA RESULT:     -12.1      0.000      0.000
REMARK  Name = 60870
REMARK  7 active torsions:
REMARK  status: ('A' for Active; 'I' for Inactive)
REMARK    1  A    between atoms: C_2  and  C_4
REMARK    2  A    between atoms: C_2  and  C_18
REMARK    3  A    between atoms: C_3  and  C_9
REMARK    4  A    between atoms: C_9  and  C_14
REMARK    5  A    between atoms: C_18  and  C_19
REMARK    6  A    between atoms: C_19  and  C_22
REMARK    7  A    between atoms: C_24  and  C_26
REMARK                            x       y       z     vdW  Elec       q    Type
REMARK                         _______ _______ _______ _____ _____    ______ ____
ROOT
ATOM      1  O   UNL     1      37.411 -19.062 -21.013  0.00  0.00    -0.291 OA
ATOM      2  C   UNL     1      36.262 -19.440 -21.319  0.00  0.00    +0.173 C 
ENDROOT
BRANCH   2   4
ATOM      3  C   UNL     1      34.252 -22.346 -18.997  0.00  0.00    -0.021 C 
ATOM      4  C   UNL     1      35.570 -20.439 -20.519  0.00  0.00    +0.035 C 
ATOM      5  C   UNL     1      35.631 -22.238 -18.908  0.00  0.00    -0.004 C 
ATOM      6  C   UNL     1      33.520 -21.517 -19.834  0.00  0.00    -0.004 C 
ATOM      7  C   UNL     1      36.295 -21.278 -19.674  0.00  0.00    +0.003 C 
ATOM      8  C   UNL     1      34.183 -20.557 -20.600  0.00  0.00    +0.003 C 
BRANCH   3   9
ATOM      9  C   UNL     1      33.535 -23.382 -18.169  0.00  0.00    +0.047 C 
BRANCH   9  14
ATOM     10  S   UNL     1      34.025 -23.637 -15.471  0.00  0.00    -0.048 S 
ATOM     11  O   UNL     1      30.736 -22.753 -17.288  0.00  0.00    -0.274 OA
ATOM     12  O   UNL     1      32.601 -24.806 -13.596  0.00  0.00    -0.263 OA
ATOM     13  N   UNL     1      31.478 -23.813 -15.372  0.00  0.00    -0.246 N 
ATOM     14  C   UNL     1      33.106 -22.833 -16.820  0.00  0.00    +0.137 C 
ATOM     15  C   UNL     1      31.645 -23.113 -16.548  0.00  0.00    +0.239 C 
ATOM     16  C   UNL     1      32.580 -24.185 -14.647  0.00  0.00    +0.279 C 
ATOM     17  H   UNL     1      30.576 -24.044 -15.055  0.00  0.00    +0.158 HD
ENDBRANCH   9  14
ENDBRANCH   3   9
ENDBRANCH   2   4
BRANCH   2  18
ATOM     18  C   UNL     1      35.574 -18.834 -22.557  0.00  0.00    +0.076 C 
BRANCH  18  19
ATOM     19  C   UNL     1      36.265 -17.573 -23.084  0.00  0.00    +0.066 C 
BRANCH  19  22
ATOM     20  O   UNL     1      33.977 -14.882 -24.008  0.00  0.00    -0.449 OA
ATOM     21  N   UNL     1      34.889 -15.753 -22.130  0.00  0.00    -0.373 NA
ATOM     22  C   UNL     1      35.314 -16.423 -23.231  0.00  0.00    +0.130 C 
ATOM     23  C   UNL     1      34.782 -15.920 -24.370  0.00  0.00    +0.216 C 
ATOM     24  C   UNL     1      34.095 -14.845 -22.653  0.00  0.00    +0.277 C 
ATOM     25  C   UNL     1      34.873 -16.226 -25.802  0.00  0.00    +0.055 C 
BRANCH  24  26
ATOM     26  C   UNL     1      33.331 -13.819 -22.000  0.00  0.00    +0.066 C 
ATOM     27  C   UNL     1      32.974 -13.954 -20.656  0.00  0.00    +0.006 C 
ATOM     28  C   UNL     1      32.938 -12.678 -22.707  0.00  0.00    +0.006 C 
ATOM     29  C   UNL     1      32.230 -12.957 -20.023  0.00  0.00    +0.000 C 
ATOM     30  C   UNL     1      32.194 -11.682 -22.074  0.00  0.00    +0.000 C 
ATOM     31  C   UNL     1      31.841 -11.822 -20.732  0.00  0.00    +0.000 C 
ENDBRANCH  24  26
ENDBRANCH  19  22
ENDBRANCH  18  19
ENDBRANCH   2  18
TORSDOF 7
ENDMDL
MODEL 2
REMARK VINA RESULT:     -12.0      3.309     10.985
REMARK  Name = 60870
REMARK  7 active torsions:
REMARK  status: ('A' for Active; 'I' for Inactive)
REMARK    1  A    between atoms: C_2  and  C_4
REMARK    2  A    between atoms: C_2  and  C_18
REMARK    3  A    between atoms: C_3  and  C_9
REMARK    4  A    between atoms: C_9  and  C_14
REMARK    5  A    between atoms: C_18  and  C_19
REMARK    6  A    between atoms: C_19  and  C_22
REMARK    7  A    between atoms: C_24  and  C_26
REMARK                            x       y       z     vdW  Elec       q    Type
REMARK                         _______ _______ _______ _____ _____    ______ ____
ROOT
ATOM      1  O   UNL     1      33.827 -24.276 -18.696  0.00  0.00    -0.291 OA
ATOM      2  C   UNL     1      33.625 -23.057 -18.519  0.00  0.00    +0.173 C 
ENDROOT
BRANCH   2   4
ATOM      3  C   UNL     1      35.360 -20.184 -21.091  0.00  0.00    -0.021 C 
ATOM      4  C   UNL     1      34.222 -22.067 -19.403  0.00  0.00    +0.035 C 
ATOM      5  C   UNL     1      33.979 -20.268 -20.995  0.00  0.00    -0.004 C 
ATOM      6  C   UNL     1      36.182 -21.026 -20.356  0.00  0.00    -0.004 C 
ATOM      7  C   UNL     1      33.407 -21.215 -20.146  0.00  0.00    +0.003 C 
ATOM      8  C   UNL     1      35.609 -21.973 -19.507  0.00  0.00    +0.003 C 
BRANCH   3   9
ATOM      9  C   UNL     1      35.978 -19.159 -22.007  0.00  0.00    +0.047 C 
BRANCH   9  14
ATOM     10  S   UNL     1      34.825 -18.638 -24.453  0.00  0.00    -0.048 S 
ATOM     11  O   UNL     1      35.476 -16.245 -21.495  0.00  0.00    -0.274 OA
ATOM     12  O   UNL     1      35.170 -16.609 -26.089  0.00  0.00    -0.263 OA
ATOM     13  N   UNL     1      35.351 -16.224 -23.804  0.00  0.00    -0.246 N 
ATOM     14  C   UNL     1      34.930 -18.285 -22.671  0.00  0.00    +0.137 C 
ATOM     15  C   UNL     1      35.283 -16.819 -22.562  0.00  0.00    +0.239 C 
ATOM     16  C   UNL     1      35.142 -16.982 -24.926  0.00  0.00    +0.279 C 
ATOM     17  H   UNL     1      35.547 -15.263 -23.885  0.00  0.00    +0.158 HD
ENDBRANCH   9  14
ENDBRANCH   3   9
ENDBRANCH   2   4
BRANCH   2  18
ATOM     18  C   UNL     1      32.731 -22.603 -17.349  0.00  0.00    +0.076 C 
BRANCH  18  19
ATOM     19  C   UNL     1      32.136 -23.766 -16.549  0.00  0.00    +0.066 C 
BRANCH  19  22
ATOM     20  O   UNL     1      33.428 -24.457 -13.205  0.00  0.00    -0.449 OA
ATOM     21  N   UNL     1      34.237 -23.962 -15.259  0.00  0.00    -0.373 NA
ATOM     22  C   UNL     1      32.881 -24.018 -15.272  0.00  0.00    +0.130 C 
ATOM     23  C   UNL     1      32.372 -24.313 -14.053  0.00  0.00    +0.216 C 
ATOM     24  C   UNL     1      34.508 -24.231 -14.001  0.00  0.00    +0.277 C 
ATOM     25  C   UNL     1      31.031 -24.499 -13.487  0.00  0.00    +0.055 C 
BRANCH  24  26
ATOM     26  C   UNL     1      35.782 -24.322 -13.344  0.00  0.00    +0.066 C 
ATOM     27  C   UNL     1      36.884 -24.860 -14.015  0.00  0.00    +0.006 C 
ATOM     28  C   UNL     1      35.928 -23.875 -12.027  0.00  0.00    +0.006 C 
ATOM     29  C   UNL     1      38.121 -24.950 -13.376  0.00  0.00    +0.000 C 
ATOM     30  C   UNL     1      37.165 -23.965 -11.388  0.00  0.00    +0.000 C 
ATOM     31  C   UNL     1      38.261 -24.503 -12.063  0.00  0.00    +0.000 C 
ENDBRANCH  24  26
ENDBRANCH  19  22
ENDBRANCH  18  19
ENDBRANCH   2  18
TORSDOF 7
ENDMDL
MODEL 3
REMARK VINA RESULT:     -11.7      5.117     11.566
REMARK  Name = 60870
REMARK  7 active torsions:
REMARK  status: ('A' for Active; 'I' for Inactive)
REMARK    1  A    between atoms: C_2  and  C_4
REMARK    2  A    between atoms: C_2  and  C_18
REMARK    3  A    between atoms: C_3  and  C_9
REMARK    4  A    between atoms: C_9  and  C_14
REMARK    5  A    between atoms: C_18  and  C_19
REMARK    6  A    between atoms: C_19  and  C_22
REMARK    7  A    between atoms: C_24  and  C_26
REMARK                            x       y       z     vdW  Elec       q    Type
REMARK                         _______ _______ _______ _____ _____    ______ ____
ROOT
ATOM      1  O   UNL     1      33.391 -14.658 -25.005  0.00  0.00    -0.291 OA
ATOM      2  C   UNL     1      33.836 -14.092 -23.986  0.00  0.00    +0.173 C 
ENDROOT
BRANCH   2   4
ATOM      3  C   UNL     1      33.489  -9.905 -23.510  0.00  0.00    -0.021 C 
ATOM      4  C   UNL     1      33.716 -12.651 -23.823  0.00  0.00    +0.035 C 
ATOM      5  C   UNL     1      34.366 -10.413 -24.457  0.00  0.00    -0.004 C 
ATOM      6  C   UNL     1      32.723 -10.746 -22.718  0.00  0.00    -0.004 C 
ATOM      7  C   UNL     1      34.480 -11.794 -24.614  0.00  0.00    +0.003 C 
ATOM      8  C   UNL     1      32.837 -12.128 -22.875  0.00  0.00    +0.003 C 
BRANCH   3   9
ATOM      9  C   UNL     1      33.365  -8.412 -23.341  0.00  0.00    +0.047 C 
BRANCH   9  14
ATOM     10  S   UNL     1      31.021  -6.968 -23.410  0.00  0.00    -0.048 S 
ATOM     11  O   UNL     1      33.395  -7.637 -20.442  0.00  0.00    -0.274 OA
ATOM     12  O   UNL     1      30.434  -4.642 -22.335  0.00  0.00    -0.263 OA
ATOM     13  N   UNL     1      31.939  -6.020 -21.223  0.00  0.00    -0.246 N 
ATOM     14  C   UNL     1      32.168  -8.035 -22.486  0.00  0.00    +0.137 C 
ATOM     15  C   UNL     1      32.586  -7.237 -21.272  0.00  0.00    +0.239 C 
ATOM     16  C   UNL     1      31.076  -5.675 -22.230  0.00  0.00    +0.279 C 
ATOM     17  H   UNL     1      32.095  -5.404 -20.472  0.00  0.00    +0.158 HD
ENDBRANCH   9  14
ENDBRANCH   3   9
ENDBRANCH   2   4
BRANCH   2  18
ATOM     18  C   UNL     1      34.516 -14.936 -22.892  0.00  0.00    +0.076 C 
BRANCH  18  19
ATOM     19  C   UNL     1      35.589 -15.886 -23.431  0.00  0.00    +0.066 C 
BRANCH  19  22
ATOM     20  O   UNL     1      34.681 -19.419 -23.277  0.00  0.00    -0.449 OA
ATOM     21  N   UNL     1      35.452 -17.811 -21.885  0.00  0.00    -0.373 NA
ATOM     22  C   UNL     1      35.275 -17.323 -23.139  0.00  0.00    +0.130 C 
ATOM     23  C   UNL     1      34.813 -18.267 -23.992  0.00  0.00    +0.216 C 
ATOM     24  C   UNL     1      35.082 -19.064 -22.026  0.00  0.00    +0.277 C 
ATOM     25  C   UNL     1      34.452 -18.319 -25.413  0.00  0.00    +0.055 C 
BRANCH  24  26
ATOM     26  C   UNL     1      35.041 -20.117 -21.049  0.00  0.00    +0.066 C 
ATOM     27  C   UNL     1      36.226 -20.621 -20.506  0.00  0.00    +0.006 C 
ATOM     28  C   UNL     1      33.813 -20.645 -20.637  0.00  0.00    +0.006 C 
ATOM     29  C   UNL     1      36.185 -21.644 -19.558  0.00  0.00    +0.000 C 
ATOM     30  C   UNL     1      33.773 -21.668 -19.689  0.00  0.00    +0.000 C 
ATOM     31  C   UNL     1      34.959 -22.168 -19.150  0.00  0.00    +0.000 C 
ENDBRANCH  24  26
ENDBRANCH  19  22
ENDBRANCH  18  19
ENDBRANCH   2  18
TORSDOF 7
ENDMDL
MODEL 4
REMARK VINA RESULT:     -11.7      3.332     10.882
REMARK  Name = 60870
REMARK  7 active torsions:
REMARK  status: ('A' for Active; 'I' for Inactive)
REMARK    1  A    between atoms: C_2  and  C_4
REMARK    2  A    between atoms: C_2  and  C_18
REMARK    3  A    between atoms: C_3  and  C_9
REMARK    4  A    between atoms: C_9  and  C_14
REMARK    5  A    between atoms: C_18  and  C_19
REMARK    6  A    between atoms: C_19  and  C_22
REMARK    7  A    between atoms: C_24  and  C_26
REMARK                            x       y       z     vdW  Elec       q    Type
REMARK                         _______ _______ _______ _____ _____    ______ ____
ROOT
ATOM      1  O   UNL     1      36.755 -21.780 -18.525  0.00  0.00    -0.291 OA
ATOM      2  C   UNL     1      35.905 -21.713 -19.437  0.00  0.00    +0.173 C 
ENDROOT
BRANCH   2   4
ATOM      3  C   UNL     1      36.122 -18.680 -22.375  0.00  0.00    -0.021 C 
ATOM      4  C   UNL     1      35.980 -20.668 -20.447  0.00  0.00    +0.035 C 
ATOM      5  C   UNL     1      34.958 -19.423 -22.247  0.00  0.00    -0.004 C 
ATOM      6  C   UNL     1      37.216 -18.913 -21.555  0.00  0.00    -0.004 C 
ATOM      7  C   UNL     1      34.887 -20.423 -21.277  0.00  0.00    +0.003 C 
ATOM      8  C   UNL     1      37.144 -19.914 -20.585  0.00  0.00    +0.003 C 
BRANCH   3   9
ATOM      9  C   UNL     1      36.200 -17.598 -23.422  0.00  0.00    +0.047 C 
BRANCH   9  14
ATOM     10  S   UNL     1      34.437 -17.416 -25.531  0.00  0.00    -0.048 S 
ATOM     11  O   UNL     1      35.015 -14.964 -22.607  0.00  0.00    -0.274 OA
ATOM     12  O   UNL     1      33.823 -15.361 -27.051  0.00  0.00    -0.263 OA
ATOM     13  N   UNL     1      34.384 -14.960 -24.831  0.00  0.00    -0.246 N 
ATOM     14  C   UNL     1      34.826 -17.064 -23.789  0.00  0.00    +0.137 C 
ATOM     15  C   UNL     1      34.763 -15.559 -23.648  0.00  0.00    +0.239 C 
ATOM     16  C   UNL     1      34.159 -15.736 -25.938  0.00  0.00    +0.279 C 
ATOM     17  H   UNL     1      34.277 -13.983 -24.881  0.00  0.00    +0.158 HD
ENDBRANCH   9  14
ENDBRANCH   3   9
ENDBRANCH   2   4
BRANCH   2  18
ATOM     18  C   UNL     1      34.770 -22.752 -19.487  0.00  0.00    +0.076 C 
BRANCH  18  19
ATOM     19  C   UNL     1      33.641 -22.472 -18.491  0.00  0.00    +0.066 C 
BRANCH  19  22
ATOM     20  O   UNL     1      33.485 -24.239 -15.300  0.00  0.00    -0.449 OA
ATOM     21  N   UNL     1      35.031 -23.712 -16.865  0.00  0.00    -0.373 NA
ATOM     22  C   UNL     1      33.809 -23.234 -17.210  0.00  0.00    +0.130 C 
ATOM     23  C   UNL     1      32.865 -23.536 -16.289  0.00  0.00    +0.216 C 
ATOM     24  C   UNL     1      34.779 -24.301 -15.717  0.00  0.00    +0.277 C 
ATOM     25  C   UNL     1      31.427 -23.292 -16.132  0.00  0.00    +0.055 C 
BRANCH  24  26
ATOM     26  C   UNL     1      35.672 -25.005 -14.839  0.00  0.00    +0.066 C 
ATOM     27  C   UNL     1      35.785 -24.626 -13.498  0.00  0.00    +0.006 C 
ATOM     28  C   UNL     1      36.435 -26.072 -15.321  0.00  0.00    +0.006 C 
ATOM     29  C   UNL     1      36.654 -25.308 -12.646  0.00  0.00    +0.000 C 
ATOM     30  C   UNL     1      37.304 -26.755 -14.469  0.00  0.00    +0.000 C 
ATOM     31  C   UNL     1      37.413 -26.372 -13.131  0.00  0.00    +0.000 C 
ENDBRANCH  24  26
ENDBRANCH  19  22
ENDBRANCH  18  19
ENDBRANCH   2  18
TORSDOF 7
ENDMDL
MODEL 5
REMARK VINA RESULT:     -11.5      3.038      4.997
REMARK  Name = 60870
REMARK  7 active torsions:
REMARK  status: ('A' for Active; 'I' for Inactive)
REMARK    1  A    between atoms: C_2  and  C_4
REMARK    2  A    between atoms: C_2  and  C_18
REMARK    3  A    between atoms: C_3  and  C_9
REMARK    4  A    between atoms: C_9  and  C_14
REMARK    5  A    between atoms: C_18  and  C_19
REMARK    6  A    between atoms: C_19  and  C_22
REMARK    7  A    between atoms: C_24  and  C_26
REMARK                            x       y       z     vdW  Elec       q    Type
REMARK                         _______ _______ _______ _____ _____    ______ ____
ROOT
ATOM      1  O   UNL     1      35.316 -15.943 -25.745  0.00  0.00    -0.291 OA
ATOM      2  C   UNL     1      35.124 -15.960 -24.512  0.00  0.00    +0.173 C 
ENDROOT
BRANCH   2   4
ATOM      3  C   UNL     1      35.473 -19.556 -22.316  0.00  0.00    -0.021 C 
ATOM      4  C   UNL     1      35.245 -17.197 -23.757  0.00  0.00    +0.035 C 
ATOM      5  C   UNL     1      35.063 -19.603 -23.640  0.00  0.00    -0.004 C 
ATOM      6  C   UNL     1      35.771 -18.350 -21.700  0.00  0.00    -0.004 C 
ATOM      7  C   UNL     1      34.948 -18.416 -24.365  0.00  0.00    +0.003 C 
ATOM      8  C   UNL     1      35.657 -17.163 -22.425  0.00  0.00    +0.003 C 
BRANCH   3   9
ATOM      9  C   UNL     1      35.597 -20.838 -21.533  0.00  0.00    +0.047 C 
BRANCH   9  14
ATOM     10  S   UNL     1      35.634 -21.911 -18.997  0.00  0.00    -0.048 S 
ATOM     11  O   UNL     1      32.644 -20.603 -21.057  0.00  0.00    -0.274 OA
ATOM     12  O   UNL     1      34.017 -23.653 -17.873  0.00  0.00    -0.263 OA
ATOM     13  N   UNL     1      33.134 -22.188 -19.447  0.00  0.00    -0.246 N 
ATOM     14  C   UNL     1      34.895 -20.753 -20.190  0.00  0.00    +0.137 C 
ATOM     15  C   UNL     1      33.440 -21.149 -20.301  0.00  0.00    +0.239 C 
ATOM     16  C   UNL     1      34.123 -22.735 -18.671  0.00  0.00    +0.279 C 
ATOM     17  H   UNL     1      32.215 -22.534 -19.394  0.00  0.00    +0.158 HD
ENDBRANCH   9  14
ENDBRANCH   3   9
ENDBRANCH   2   4
BRANCH   2  18
ATOM     18  C   UNL     1      34.757 -14.650 -23.790  0.00  0.00    +0.076 C 
BRANCH  18  19
ATOM     19  C   UNL     1      33.664 -13.846 -24.499  0.00  0.00    +0.066 C 
BRANCH  19  22
ATOM     20  O   UNL     1      32.683 -11.077 -22.330  0.00  0.00    -0.449 OA
ATOM     21  N   UNL     1      33.617 -11.377 -24.368  0.00  0.00    -0.373 NA
ATOM     22  C   UNL     1      33.341 -12.569 -23.782  0.00  0.00    +0.130 C 
ATOM     23  C   UNL     1      32.780 -12.417 -22.559  0.00  0.00    +0.216 C 
ATOM     24  C   UNL     1      33.203 -10.523 -23.459  0.00  0.00    +0.277 C 
ATOM     25  C   UNL     1      32.292 -13.311 -21.504  0.00  0.00    +0.055 C 
BRANCH  24  26
ATOM     26  C   UNL     1      33.223  -9.087 -23.482  0.00  0.00    +0.066 C 
ATOM     27  C   UNL     1      34.432  -8.401 -23.623  0.00  0.00    +0.006 C 
ATOM     28  C   UNL     1      32.030  -8.366 -23.361  0.00  0.00    +0.006 C 
ATOM     29  C   UNL     1      34.450  -7.006 -23.644  0.00  0.00    +0.000 C 
ATOM     30  C   UNL     1      32.049  -6.971 -23.382  0.00  0.00    +0.000 C 
ATOM     31  C   UNL     1      33.259  -6.291 -23.523  0.00  0.00    +0.000 C 
ENDBRANCH  24  26
ENDBRANCH  19  22
ENDBRANCH  18  19
ENDBRANCH   2  18
TORSDOF 7
ENDMDL
MODEL 6
REMARK VINA RESULT:     -11.3      3.683      6.720
REMARK  Name = 60870
REMARK  7 active torsions:
REMARK  status: ('A' for Active; 'I' for Inactive)
REMARK    1  A    between atoms: C_2  and  C_4
REMARK    2  A    between atoms: C_2  and  C_18
REMARK    3  A    between atoms: C_3  and  C_9
REMARK    4  A    between atoms: C_9  and  C_14
REMARK    5  A    between atoms: C_18  and  C_19
REMARK    6  A    between atoms: C_19  and  C_22
REMARK    7  A    between atoms: C_24  and  C_26
REMARK                            x       y       z     vdW  Elec       q    Type
REMARK                         _______ _______ _______ _____ _____    ______ ____
ROOT
ATOM      1  O   UNL     1      32.335 -23.919 -15.906  0.00  0.00    -0.291 OA
ATOM      2  C   UNL     1      33.364 -23.495 -16.470  0.00  0.00    +0.173 C 
ENDROOT
BRANCH   2   4
ATOM      3  C   UNL     1      37.187 -24.207 -14.812  0.00  0.00    -0.021 C 
ATOM      4  C   UNL     1      34.680 -23.740 -15.901  0.00  0.00    +0.035 C 
ATOM      5  C   UNL     1      36.434 -25.277 -15.271  0.00  0.00    -0.004 C 
ATOM      6  C   UNL     1      36.709 -22.908 -14.889  0.00  0.00    -0.004 C 
ATOM      7  C   UNL     1      35.172 -25.042 -15.819  0.00  0.00    +0.003 C 
ATOM      8  C   UNL     1      35.448 -22.672 -15.437  0.00  0.00    +0.003 C 
BRANCH   3   9
ATOM      9  C   UNL     1      38.551 -24.461 -14.221  0.00  0.00    +0.047 C 
BRANCH   9  14
ATOM     10  S   UNL     1      37.221 -25.997 -12.362  0.00  0.00    -0.048 S 
ATOM     11  O   UNL     1      38.672 -22.439 -12.007  0.00  0.00    -0.274 OA
ATOM     12  O   UNL     1      35.338 -25.333 -10.652  0.00  0.00    -0.263 OA
ATOM     13  N   UNL     1      36.939 -23.740 -11.201  0.00  0.00    -0.246 N 
ATOM     14  C   UNL     1      38.481 -24.737 -12.730  0.00  0.00    +0.137 C 
ATOM     15  C   UNL     1      38.067 -23.504 -11.958  0.00  0.00    +0.239 C 
ATOM     16  C   UNL     1      36.336 -24.969 -11.255  0.00  0.00    +0.279 C 
ATOM     17  H   UNL     1      36.570 -23.031 -10.626  0.00  0.00    +0.158 HD
ENDBRANCH   9  14
ENDBRANCH   3   9
ENDBRANCH   2   4
BRANCH   2  18
ATOM     18  C   UNL     1      33.230 -22.706 -17.786  0.00  0.00    +0.076 C 
BRANCH  18  19
ATOM     19  C   UNL     1      34.211 -23.157 -18.872  0.00  0.00    +0.066 C 
BRANCH  19  22
ATOM     20  O   UNL     1      36.372 -20.447 -20.023  0.00  0.00    -0.449 OA
ATOM     21  N   UNL     1      34.365 -21.348 -20.552  0.00  0.00    -0.373 NA
ATOM     22  C   UNL     1      34.929 -22.002 -19.505  0.00  0.00    +0.130 C 
ATOM     23  C   UNL     1      36.132 -21.481 -19.168  0.00  0.00    +0.216 C 
ATOM     24  C   UNL     1      35.268 -20.431 -20.819  0.00  0.00    +0.277 C 
ATOM     25  C   UNL     1      37.160 -21.765 -18.161  0.00  0.00    +0.055 C 
BRANCH  24  26
ATOM     26  C   UNL     1      35.261 -19.413 -21.833  0.00  0.00    +0.066 C 
ATOM     27  C   UNL     1      34.886 -19.726 -23.142  0.00  0.00    +0.006 C 
ATOM     28  C   UNL     1      35.630 -18.102 -21.515  0.00  0.00    +0.006 C 
ATOM     29  C   UNL     1      34.879 -18.737 -24.127  0.00  0.00    +0.000 C 
ATOM     30  C   UNL     1      35.624 -17.114 -22.500  0.00  0.00    +0.000 C 
ATOM     31  C   UNL     1      35.249 -17.432 -23.805  0.00  0.00    +0.000 C 
ENDBRANCH  24  26
ENDBRANCH  19  22
ENDBRANCH  18  19
ENDBRANCH   2  18
TORSDOF 7
ENDMDL
MODEL 7
REMARK VINA RESULT:     -11.3      3.488      6.581
REMARK  Name = 60870
REMARK  7 active torsions:
REMARK  status: ('A' for Active; 'I' for Inactive)
REMARK    1  A    between atoms: C_2  and  C_4
REMARK    2  A    between atoms: C_2  and  C_18
REMARK    3  A    between atoms: C_3  and  C_9
REMARK    4  A    between atoms: C_9  and  C_14
REMARK    5  A    between atoms: C_18  and  C_19
REMARK    6  A    between atoms: C_19  and  C_22
REMARK    7  A    between atoms: C_24  and  C_26
REMARK                            x       y       z     vdW  Elec       q    Type
REMARK                         _______ _______ _______ _____ _____    ______ ____
ROOT
ATOM      1  O   UNL     1      31.667 -23.869 -16.722  0.00  0.00    -0.291 OA
ATOM      2  C   UNL     1      32.743 -23.256 -16.877  0.00  0.00    +0.173 C 
ENDROOT
BRANCH   2   4
ATOM      3  C   UNL     1      35.829 -23.544 -14.000  0.00  0.00    -0.021 C 
ATOM      4  C   UNL     1      33.806 -23.356 -15.887  0.00  0.00    +0.035 C 
ATOM      5  C   UNL     1      34.638 -24.223 -13.792  0.00  0.00    -0.004 C 
ATOM      6  C   UNL     1      36.026 -22.773 -15.136  0.00  0.00    -0.004 C 
ATOM      7  C   UNL     1      33.620 -24.128 -14.741  0.00  0.00    +0.003 C 
ATOM      8  C   UNL     1      35.008 -22.679 -16.086  0.00  0.00    +0.003 C 
BRANCH   3   9
ATOM      9  C   UNL     1      36.929 -23.647 -12.975  0.00  0.00    +0.047 C 
BRANCH   9  14
ATOM     10  S   UNL     1      38.124 -25.069 -15.009  0.00  0.00    -0.048 S 
ATOM     11  O   UNL     1      36.816 -26.310 -11.597  0.00  0.00    -0.274 OA
ATOM     12  O   UNL     1      37.502 -27.411 -16.029  0.00  0.00    -0.263 OA
ATOM     13  N   UNL     1      37.093 -27.051 -13.770  0.00  0.00    -0.246 N 
ATOM     14  C   UNL     1      37.830 -24.843 -13.228  0.00  0.00    +0.137 C 
ATOM     15  C   UNL     1      37.190 -26.128 -12.750  0.00  0.00    +0.239 C 
ATOM     16  C   UNL     1      37.523 -26.713 -15.027  0.00  0.00    +0.279 C 
ATOM     17  H   UNL     1      36.719 -27.944 -13.597  0.00  0.00    +0.158 HD
ENDBRANCH   9  14
ENDBRANCH   3   9
ENDBRANCH   2   4
BRANCH   2  18
ATOM     18  C   UNL     1      32.942 -22.388 -18.133  0.00  0.00    +0.076 C 
BRANCH  18  19
ATOM     19  C   UNL     1      34.036 -22.909 -19.069  0.00  0.00    +0.066 C 
BRANCH  19  22
ATOM     20  O   UNL     1      36.325 -20.336 -20.284  0.00  0.00    -0.449 OA
ATOM     21  N   UNL     1      34.243 -21.096 -20.739  0.00  0.00    -0.373 NA
ATOM     22  C   UNL     1      34.804 -21.797 -19.722  0.00  0.00    +0.130 C 
ATOM     23  C   UNL     1      36.051 -21.362 -19.430  0.00  0.00    +0.216 C 
ATOM     24  C   UNL     1      35.194 -20.238 -21.035  0.00  0.00    +0.277 C 
ATOM     25  C   UNL     1      37.097 -21.725 -18.467  0.00  0.00    +0.055 C 
BRANCH  24  26
ATOM     26  C   UNL     1      35.214 -19.211 -22.039  0.00  0.00    +0.066 C 
ATOM     27  C   UNL     1      34.836 -19.502 -23.352  0.00  0.00    +0.006 C 
ATOM     28  C   UNL     1      35.614 -17.912 -21.708  0.00  0.00    +0.006 C 
ATOM     29  C   UNL     1      34.857 -18.504 -24.327  0.00  0.00    +0.000 C 
ATOM     30  C   UNL     1      35.635 -16.914 -22.683  0.00  0.00    +0.000 C 
ATOM     31  C   UNL     1      35.256 -17.211 -23.992  0.00  0.00    +0.000 C 
ENDBRANCH  24  26
ENDBRANCH  19  22
ENDBRANCH  18  19
ENDBRANCH   2  18
TORSDOF 7
ENDMDL
MODEL 8
REMARK VINA RESULT:     -11.3      1.875      2.677
REMARK  Name = 60870
REMARK  7 active torsions:
REMARK  status: ('A' for Active; 'I' for Inactive)
REMARK    1  A    between atoms: C_2  and  C_4
REMARK    2  A    between atoms: C_2  and  C_18
REMARK    3  A    between atoms: C_3  and  C_9
REMARK    4  A    between atoms: C_9  and  C_14
REMARK    5  A    between atoms: C_18  and  C_19
REMARK    6  A    between atoms: C_19  and  C_22
REMARK    7  A    between atoms: C_24  and  C_26
REMARK                            x       y       z     vdW  Elec       q    Type
REMARK                         _______ _______ _______ _____ _____    ______ ____
ROOT
ATOM      1  O   UNL     1      37.145 -19.358 -20.837  0.00  0.00    -0.291 OA
ATOM      2  C   UNL     1      36.015 -19.795 -21.140  0.00  0.00    +0.173 C 
ENDROOT
BRANCH   2   4
ATOM      3  C   UNL     1      34.045 -22.598 -18.663  0.00  0.00    -0.021 C 
ATOM      4  C   UNL     1      35.337 -20.759 -20.287  0.00  0.00    +0.035 C 
ATOM      5  C   UNL     1      35.417 -22.434 -18.549  0.00  0.00    -0.004 C 
ATOM      6  C   UNL     1      33.307 -21.857 -19.575  0.00  0.00    -0.004 C 
ATOM      7  C   UNL     1      36.067 -21.509 -19.366  0.00  0.00    +0.003 C 
ATOM      8  C   UNL     1      33.957 -20.932 -20.392  0.00  0.00    +0.003 C 
BRANCH   3   9
ATOM      9  C   UNL     1      33.342 -23.597 -17.780  0.00  0.00    +0.047 C 
BRANCH   9  14
ATOM     10  S   UNL     1      33.374 -23.860 -15.038  0.00  0.00    -0.048 S 
ATOM     11  O   UNL     1      30.576 -22.520 -17.335  0.00  0.00    -0.274 OA
ATOM     12  O   UNL     1      31.519 -24.749 -13.401  0.00  0.00    -0.263 OA
ATOM     13  N   UNL     1      30.846 -23.637 -15.328  0.00  0.00    -0.246 N 
ATOM     14  C   UNL     1      32.807 -22.956 -16.512  0.00  0.00    +0.137 C 
ATOM     15  C   UNL     1      31.296 -22.999 -16.465  0.00  0.00    +0.239 C 
ATOM     16  C   UNL     1      31.754 -24.158 -14.444  0.00  0.00    +0.279 C 
ATOM     17  H   UNL     1      29.881 -23.717 -15.152  0.00  0.00    +0.158 HD
ENDBRANCH   9  14
ENDBRANCH   3   9
ENDBRANCH   2   4
BRANCH   2  18
ATOM     18  C   UNL     1      35.338 -19.300 -22.432  0.00  0.00    +0.076 C 
BRANCH  18  19
ATOM     19  C   UNL     1      36.197 -18.319 -23.235  0.00  0.00    +0.066 C 
BRANCH  19  22
ATOM     20  O   UNL     1      34.547 -15.065 -23.103  0.00  0.00    -0.449 OA
ATOM     21  N   UNL     1      35.293 -16.517 -24.668  0.00  0.00    -0.373 NA
ATOM     22  C   UNL     1      35.525 -16.991 -23.418  0.00  0.00    +0.130 C 
ATOM     23  C   UNL     1      35.087 -16.139 -22.462  0.00  0.00    +0.216 C 
ATOM     24  C   UNL     1      34.708 -15.367 -24.420  0.00  0.00    +0.277 C 
ATOM     25  C   UNL     1      35.068 -16.119 -20.995  0.00  0.00    +0.055 C 
BRANCH  24  26
ATOM     26  C   UNL     1      34.214 -14.379 -25.339  0.00  0.00    +0.066 C 
ATOM     27  C   UNL     1      34.286 -13.021 -25.018  0.00  0.00    +0.006 C 
ATOM     28  C   UNL     1      33.657 -14.772 -26.559  0.00  0.00    +0.006 C 
ATOM     29  C   UNL     1      33.805 -12.062 -25.910  0.00  0.00    +0.000 C 
ATOM     30  C   UNL     1      33.176 -13.813 -27.452  0.00  0.00    +0.000 C 
ATOM     31  C   UNL     1      33.250 -12.458 -27.126  0.00  0.00    +0.000 C 
ENDBRANCH  24  26
ENDBRANCH  19  22
ENDBRANCH  18  19
ENDBRANCH   2  18
TORSDOF 7
ENDMDL
MODEL 9
REMARK VINA RESULT:     -11.2      3.053     10.013
REMARK  Name = 60870
REMARK  7 active torsions:
REMARK  status: ('A' for Active; 'I' for Inactive)
REMARK    1  A    between atoms: C_2  and  C_4
REMARK    2  A    between atoms: C_2  and  C_18
REMARK    3  A    between atoms: C_3  and  C_9
REMARK    4  A    between atoms: C_9  and  C_14
REMARK    5  A    between atoms: C_18  and  C_19
REMARK    6  A    between atoms: C_19  and  C_22
REMARK    7  A    between atoms: C_24  and  C_26
REMARK                            x       y       z     vdW  Elec       q    Type
REMARK                         _______ _______ _______ _____ _____    ______ ____
ROOT
ATOM      1  O   UNL     1      37.344 -19.647 -19.810  0.00  0.00    -0.291 OA
ATOM      2  C   UNL     1      36.558 -20.199 -20.607  0.00  0.00    +0.173 C 
ENDROOT
BRANCH   2   4
ATOM      3  C   UNL     1      35.167 -18.157 -24.038  0.00  0.00    -0.021 C 
ATOM      4  C   UNL     1      36.079 -19.496 -21.787  0.00  0.00    +0.035 C 
ATOM      5  C   UNL     1      34.458 -19.249 -23.561  0.00  0.00    -0.004 C 
ATOM      6  C   UNL     1      36.324 -17.723 -23.409  0.00  0.00    -0.004 C 
ATOM      7  C   UNL     1      34.917 -19.923 -22.428  0.00  0.00    +0.003 C 
ATOM      8  C   UNL     1      36.783 -18.396 -22.276  0.00  0.00    +0.003 C 
BRANCH   3   9
ATOM      9  C   UNL     1      34.671 -17.429 -25.261  0.00  0.00    +0.047 C 
BRANCH   9  14
ATOM     10  S   UNL     1      34.700 -15.332 -23.475  0.00  0.00    -0.048 S 
ATOM     11  O   UNL     1      33.806 -15.336 -27.230  0.00  0.00    -0.274 OA
ATOM     12  O   UNL     1      32.975 -13.380 -23.129  0.00  0.00    -0.263 OA
ATOM     13  N   UNL     1      33.265 -14.225 -25.275  0.00  0.00    -0.246 N 
ATOM     14  C   UNL     1      34.931 -15.935 -25.176  0.00  0.00    +0.137 C 
ATOM     15  C   UNL     1      33.953 -15.155 -26.026  0.00  0.00    +0.239 C 
ATOM     16  C   UNL     1      33.500 -14.141 -23.927  0.00  0.00    +0.279 C 
ATOM     17  H   UNL     1      32.611 -13.627 -25.702  0.00  0.00    +0.158 HD
ENDBRANCH   9  14
ENDBRANCH   3   9
ENDBRANCH   2   4
BRANCH   2  18
ATOM     18  C   UNL     1      36.097 -21.643 -20.331  0.00  0.00    +0.076 C 
BRANCH  18  19
ATOM     19  C   UNL     1      36.096 -22.011 -18.845  0.00  0.00    +0.066 C 
BRANCH  19  22
ATOM     20  O   UNL     1      32.577 -22.666 -18.124  0.00  0.00    -0.449 OA
ATOM     21  N   UNL     1      34.596 -23.062 -17.183  0.00  0.00    -0.373 NA
ATOM     22  C   UNL     1      34.730 -22.386 -18.352  0.00  0.00    +0.130 C 
ATOM     23  C   UNL     1      33.535 -22.136 -18.936  0.00  0.00    +0.216 C 
ATOM     24  C   UNL     1      33.292 -23.201 -17.097  0.00  0.00    +0.277 C 
ATOM     25  C   UNL     1      33.077 -21.470 -20.160  0.00  0.00    +0.055 C 
BRANCH  24  26
ATOM     26  C   UNL     1      32.509 -23.839 -16.075  0.00  0.00    +0.066 C 
ATOM     27  C   UNL     1      31.129 -23.987 -16.234  0.00  0.00    +0.006 C 
ATOM     28  C   UNL     1      33.125 -24.315 -14.913  0.00  0.00    +0.006 C 
ATOM     29  C   UNL     1      30.369 -24.605 -15.240  0.00  0.00    +0.000 C 
ATOM     30  C   UNL     1      32.366 -24.933 -13.919  0.00  0.00    +0.000 C 
ATOM     31  C   UNL     1      30.988 -25.078 -14.083  0.00  0.00    +0.000 C 
ENDBRANCH  24  26
ENDBRANCH  19  22
ENDBRANCH  18  19
ENDBRANCH   2  18
TORSDOF 7
ENDMDL
