MODEL 1
REMARK VINA RESULT:     -11.2      0.000      0.000
REMARK  Name = 28693
REMARK  5 active torsions:
REMARK  status: ('A' for Active; 'I' for Inactive)
REMARK    1  A    between atoms: C_6  and  C_20
REMARK    2  A    between atoms: C_20  and  N_22
REMARK    3  A    between atoms: C_23  and  O_25
REMARK    4  A    between atoms: O_25  and  C_26
REMARK    5  A    between atoms: C_26  and  C_27
REMARK                            x       y       z     vdW  Elec       q    Type
REMARK                         _______ _______ _______ _____ _____    ______ ____
ROOT
ATOM      1  N   UNL     1      32.425 -13.342 -21.850  0.00  0.00    +0.387 N 
ATOM      2  N   UNL     1      32.718  -7.329 -21.994  0.00  0.00    -0.284 N 
ATOM      3  C   UNL     1      33.418 -11.693 -23.470  0.00  0.00    +0.004 C 
ATOM      4  C   UNL     1      32.906 -11.945 -21.985  0.00  0.00    -0.050 C 
ATOM      5  C   UNL     1      34.509 -12.710 -23.833  0.00  0.00    +0.002 C 
ATOM      6  C   UNL     1      34.014 -14.139 -23.595  0.00  0.00    -0.001 C 
ATOM      7  C   UNL     1      31.819 -10.891 -21.542  0.00  0.00    +0.007 C 
ATOM      8  C   UNL     1      33.498 -14.303 -22.161  0.00  0.00    -0.076 C 
ATOM      9  C   UNL     1      33.857 -10.250 -23.663  0.00  0.00    -0.024 C 
ATOM     10  C   UNL     1      33.237  -9.290 -22.853  0.00  0.00    +0.007 C 
ATOM     11  C   UNL     1      32.279  -9.505 -21.842  0.00  0.00    -0.008 C 
ATOM     12  C   UNL     1      33.507  -7.938 -22.945  0.00  0.00    +0.051 C 
ATOM     13  C   UNL     1      31.898 -13.636 -20.514  0.00  0.00    -0.101 C 
ATOM     14  C   UNL     1      34.761  -9.761 -24.614  0.00  0.00    -0.004 C 
ATOM     15  C   UNL     1      31.966  -8.271 -21.321  0.00  0.00    +0.061 C 
ATOM     16  C   UNL     1      34.423  -7.443 -23.873  0.00  0.00    +0.015 C 
ATOM     17  C   UNL     1      35.041  -8.388 -24.709  0.00  0.00    +0.001 C 
ATOM     18  C   UNL     1      32.670  -5.908 -21.729  0.00  0.00    +0.117 C 
ATOM     19  H   UNL     1      31.662 -13.440 -22.519  0.00  0.00    -0.080 HD
ENDROOT
BRANCH   6  20
ATOM     20  C   UNL     1      35.126 -15.147 -23.888  0.00  0.00    +0.091 C 
BRANCH  20  22
ATOM     21  O   UNL     1      35.449 -18.034 -23.924  0.00  0.00    -0.226 OA
ATOM     22  N   UNL     1      35.332 -16.020 -22.774  0.00  0.00    -0.271 N 
ATOM     23  C   UNL     1      35.477 -17.396 -22.877  0.00  0.00    +0.402 C 
ATOM     24  H   UNL     1      35.373 -15.619 -21.876  0.00  0.00    +0.153 HD
BRANCH  23  25
ATOM     25  O   UNL     1      35.659 -17.944 -21.639  0.00  0.00    -0.430 OA
BRANCH  25  26
ATOM     26  C   UNL     1      36.347 -19.200 -21.607  0.00  0.00    +0.237 C 
BRANCH  26  27
ATOM     27  C   UNL     1      35.509 -20.198 -20.863  0.00  0.00    +0.021 C 
ATOM     28  C   UNL     1      34.125 -20.170 -20.995  0.00  0.00    -0.001 C 
ATOM     29  C   UNL     1      36.124 -21.143 -20.050  0.00  0.00    -0.001 C 
ATOM     30  C   UNL     1      33.346 -21.098 -20.304  0.00  0.00    -0.000 C 
ATOM     31  C   UNL     1      35.346 -22.071 -19.358  0.00  0.00    -0.000 C 
ATOM     32  C   UNL     1      33.957 -22.048 -19.485  0.00  0.00    -0.000 C 
ENDBRANCH  26  27
ENDBRANCH  25  26
ENDBRANCH  23  25
ENDBRANCH  20  22
ENDBRANCH   6  20
TORSDOF 5
ENDMDL
MODEL 2
REMARK VINA RESULT:     -10.9      9.066     12.734
REMARK  Name = 28693
REMARK  5 active torsions:
REMARK  status: ('A' for Active; 'I' for Inactive)
REMARK    1  A    between atoms: C_6  and  C_20
REMARK    2  A    between atoms: C_20  and  N_22
REMARK    3  A    between atoms: C_23  and  O_25
REMARK    4  A    between atoms: O_25  and  C_26
REMARK    5  A    between atoms: C_26  and  C_27
REMARK                            x       y       z     vdW  Elec       q    Type
REMARK                         _______ _______ _______ _____ _____    ______ ____
ROOT
ATOM      1  N   UNL     1      31.986 -24.022 -15.907  0.00  0.00    +0.387 N 
ATOM      2  N   UNL     1      34.904 -21.048 -20.256  0.00  0.00    -0.284 N 
ATOM      3  C   UNL     1      34.419 -23.584 -16.377  0.00  0.00    +0.004 C 
ATOM      4  C   UNL     1      32.918 -23.130 -16.642  0.00  0.00    -0.050 C 
ATOM      5  C   UNL     1      34.710 -23.597 -14.870  0.00  0.00    +0.002 C 
ATOM      6  C   UNL     1      33.678 -24.451 -14.129  0.00  0.00    -0.001 C 
ATOM      7  C   UNL     1      32.582 -23.049 -18.180  0.00  0.00    +0.007 C 
ATOM      8  C   UNL     1      32.254 -23.988 -14.459  0.00  0.00    -0.076 C 
ATOM      9  C   UNL     1      35.398 -22.732 -17.168  0.00  0.00    -0.024 C 
ATOM     10  C   UNL     1      34.926 -22.176 -18.364  0.00  0.00    +0.007 C 
ATOM     11  C   UNL     1      33.629 -22.275 -18.906  0.00  0.00    -0.008 C 
ATOM     12  C   UNL     1      35.714 -21.414 -19.204  0.00  0.00    +0.051 C 
ATOM     13  C   UNL     1      30.578 -23.689 -16.138  0.00  0.00    -0.101 C 
ATOM     14  C   UNL     1      36.747 -22.500 -16.873  0.00  0.00    -0.004 C 
ATOM     15  C   UNL     1      33.636 -21.569 -20.086  0.00  0.00    +0.061 C 
ATOM     16  C   UNL     1      37.053 -21.158 -18.908  0.00  0.00    +0.015 C 
ATOM     17  C   UNL     1      37.552 -21.723 -17.723  0.00  0.00    +0.001 C 
ATOM     18  C   UNL     1      35.307 -20.238 -21.384  0.00  0.00    +0.117 C 
ATOM     19  H   UNL     1      32.153 -24.960 -16.273  0.00  0.00    -0.080 HD
ENDROOT
BRANCH   6  20
ATOM     20  C   UNL     1      33.925 -24.404 -12.621  0.00  0.00    +0.091 C 
BRANCH  20  22
ATOM     21  O   UNL     1      35.630 -25.093 -10.372  0.00  0.00    -0.226 OA
ATOM     22  N   UNL     1      35.238 -23.913 -12.332  0.00  0.00    -0.271 N 
ATOM     23  C   UNL     1      35.988 -24.294 -11.231  0.00  0.00    +0.402 C 
ATOM     24  H   UNL     1      35.633 -23.262 -12.956  0.00  0.00    +0.153 HD
BRANCH  23  25
ATOM     25  O   UNL     1      37.194 -23.651 -11.237  0.00  0.00    -0.430 OA
BRANCH  25  26
ATOM     26  C   UNL     1      38.328 -24.455 -11.583  0.00  0.00    +0.237 C 
BRANCH  26  27
ATOM     27  C   UNL     1      38.062 -25.140 -12.892  0.00  0.00    +0.021 C 
ATOM     28  C   UNL     1      38.292 -24.460 -14.083  0.00  0.00    -0.001 C 
ATOM     29  C   UNL     1      37.590 -26.447 -12.902  0.00  0.00    -0.001 C 
ATOM     30  C   UNL     1      38.046 -25.096 -15.300  0.00  0.00    -0.000 C 
ATOM     31  C   UNL     1      37.342 -27.083 -14.118  0.00  0.00    -0.000 C 
ATOM     32  C   UNL     1      37.570 -26.407 -15.317  0.00  0.00    -0.000 C 
ENDBRANCH  26  27
ENDBRANCH  25  26
ENDBRANCH  23  25
ENDBRANCH  20  22
ENDBRANCH   6  20
TORSDOF 5
ENDMDL
MODEL 3
REMARK VINA RESULT:     -10.8      5.761     12.424
REMARK  Name = 28693
REMARK  5 active torsions:
REMARK  status: ('A' for Active; 'I' for Inactive)
REMARK    1  A    between atoms: C_6  and  C_20
REMARK    2  A    between atoms: C_20  and  N_22
REMARK    3  A    between atoms: C_23  and  O_25
REMARK    4  A    between atoms: O_25  and  C_26
REMARK    5  A    between atoms: C_26  and  C_27
REMARK                            x       y       z     vdW  Elec       q    Type
REMARK                         _______ _______ _______ _____ _____    ______ ____
ROOT
ATOM      1  N   UNL     1      37.180 -23.405 -16.284  0.00  0.00    +0.387 N 
ATOM      2  N   UNL     1      31.731 -24.606 -14.021  0.00  0.00    -0.284 N 
ATOM      3  C   UNL     1      34.842 -23.200 -17.192  0.00  0.00    +0.004 C 
ATOM      4  C   UNL     1      35.752 -23.314 -15.891  0.00  0.00    -0.050 C 
ATOM      5  C   UNL     1      35.279 -21.997 -18.039  0.00  0.00    +0.002 C 
ATOM      6  C   UNL     1      36.776 -22.072 -18.349  0.00  0.00    -0.001 C 
ATOM      7  C   UNL     1      35.310 -24.505 -14.957  0.00  0.00    +0.007 C 
ATOM      8  C   UNL     1      37.591 -22.221 -17.060  0.00  0.00    -0.076 C 
ATOM      9  C   UNL     1      33.367 -23.172 -16.828  0.00  0.00    -0.024 C 
ATOM     10  C   UNL     1      32.997 -23.821 -15.644  0.00  0.00    +0.007 C 
ATOM     11  C   UNL     1      33.840 -24.466 -14.716  0.00  0.00    -0.008 C 
ATOM     12  C   UNL     1      31.689 -23.910 -15.209  0.00  0.00    +0.051 C 
ATOM     13  C   UNL     1      38.078 -23.554 -15.135  0.00  0.00    -0.101 C 
ATOM     14  C   UNL     1      32.320 -22.632 -17.586  0.00  0.00    -0.004 C 
ATOM     15  C   UNL     1      33.032 -24.951 -13.714  0.00  0.00    +0.061 C 
ATOM     16  C   UNL     1      30.641 -23.356 -15.944  0.00  0.00    +0.015 C 
ATOM     17  C   UNL     1      30.988 -22.718 -17.146  0.00  0.00    +0.001 C 
ATOM     18  C   UNL     1      30.585 -24.938 -13.202  0.00  0.00    +0.117 C 
ATOM     19  H   UNL     1      37.259 -24.244 -16.857  0.00  0.00    -0.080 HD
ENDROOT
BRANCH   6  20
ATOM     20  C   UNL     1      37.224 -20.836 -19.131  0.00  0.00    +0.091 C 
BRANCH  20  22
ATOM     21  O   UNL     1      37.544 -19.045 -21.396  0.00  0.00    -0.226 OA
ATOM     22  N   UNL     1      36.236 -20.452 -20.092  0.00  0.00    -0.271 N 
ATOM     23  C   UNL     1      36.471 -19.586 -21.149  0.00  0.00    +0.402 C 
ATOM     24  H   UNL     1      35.331 -20.826 -19.995  0.00  0.00    +0.153 HD
BRANCH  23  25
ATOM     25  O   UNL     1      35.332 -19.420 -21.884  0.00  0.00    -0.430 OA
BRANCH  25  26
ATOM     26  C   UNL     1      35.483 -19.532 -23.304  0.00  0.00    +0.237 C 
BRANCH  26  27
ATOM     27  C   UNL     1      35.155 -18.212 -23.937  0.00  0.00    +0.021 C 
ATOM     28  C   UNL     1      34.494 -18.180 -25.161  0.00  0.00    -0.001 C 
ATOM     29  C   UNL     1      35.514 -17.033 -23.296  0.00  0.00    -0.001 C 
ATOM     30  C   UNL     1      34.188 -16.954 -25.749  0.00  0.00    -0.000 C 
ATOM     31  C   UNL     1      35.209 -15.805 -23.884  0.00  0.00    -0.000 C 
ATOM     32  C   UNL     1      34.546 -15.766 -25.112  0.00  0.00    -0.000 C 
ENDBRANCH  26  27
ENDBRANCH  25  26
ENDBRANCH  23  25
ENDBRANCH  20  22
ENDBRANCH   6  20
TORSDOF 5
ENDMDL
MODEL 4
REMARK VINA RESULT:     -10.7      2.110      3.819
REMARK  Name = 28693
REMARK  5 active torsions:
REMARK  status: ('A' for Active; 'I' for Inactive)
REMARK    1  A    between atoms: C_6  and  C_20
REMARK    2  A    between atoms: C_20  and  N_22
REMARK    3  A    between atoms: C_23  and  O_25
REMARK    4  A    between atoms: O_25  and  C_26
REMARK    5  A    between atoms: C_26  and  C_27
REMARK                            x       y       z     vdW  Elec       q    Type
REMARK                         _______ _______ _______ _____ _____    ______ ____
ROOT
ATOM      1  N   UNL     1      34.215 -13.121 -25.518  0.00  0.00    +0.387 N 
ATOM      2  N   UNL     1      31.589 -11.039 -20.516  0.00  0.00    -0.284 N 
ATOM      3  C   UNL     1      34.124 -13.937 -23.140  0.00  0.00    +0.004 C 
ATOM      4  C   UNL     1      33.450 -13.019 -24.251  0.00  0.00    -0.050 C 
ATOM      5  C   UNL     1      34.216 -15.387 -23.636  0.00  0.00    +0.002 C 
ATOM      6  C   UNL     1      34.929 -15.448 -24.989  0.00  0.00    -0.001 C 
ATOM      7  C   UNL     1      33.282 -11.527 -23.771  0.00  0.00    +0.007 C 
ATOM      8  C   UNL     1      34.257 -14.513 -26.000  0.00  0.00    -0.076 C 
ATOM      9  C   UNL     1      33.403 -13.805 -21.808  0.00  0.00    -0.024 C 
ATOM     10  C   UNL     1      32.755 -12.588 -21.561  0.00  0.00    +0.007 C 
ATOM     11  C   UNL     1      32.651 -11.477 -22.421  0.00  0.00    -0.008 C 
ATOM     12  C   UNL     1      32.094 -12.313 -20.379  0.00  0.00    +0.051 C 
ATOM     13  C   UNL     1      33.675 -12.267 -26.580  0.00  0.00    -0.101 C 
ATOM     14  C   UNL     1      33.377 -14.739 -20.765  0.00  0.00    -0.004 C 
ATOM     15  C   UNL     1      31.924 -10.521 -21.751  0.00  0.00    +0.061 C 
ATOM     16  C   UNL     1      32.043 -13.245 -19.342  0.00  0.00    +0.015 C 
ATOM     17  C   UNL     1      32.704 -14.464 -19.563  0.00  0.00    +0.001 C 
ATOM     18  C   UNL     1      30.818 -10.330 -19.517  0.00  0.00    +0.117 C 
ATOM     19  H   UNL     1      35.158 -12.797 -25.302  0.00  0.00    -0.080 HD
ENDROOT
BRANCH   6  20
ATOM     20  C   UNL     1      34.956 -16.884 -25.516  0.00  0.00    +0.091 C 
BRANCH  20  22
ATOM     21  O   UNL     1      33.782 -19.355 -24.541  0.00  0.00    -0.226 OA
ATOM     22  N   UNL     1      35.487 -17.780 -24.535  0.00  0.00    -0.271 N 
ATOM     23  C   UNL     1      34.860 -18.946 -24.123  0.00  0.00    +0.402 C 
ATOM     24  H   UNL     1      36.354 -17.554 -24.127  0.00  0.00    +0.153 HD
BRANCH  23  25
ATOM     25  O   UNL     1      35.617 -19.580 -23.179  0.00  0.00    -0.430 OA
BRANCH  25  26
ATOM     26  C   UNL     1      35.508 -19.070 -21.845  0.00  0.00    +0.237 C 
BRANCH  26  27
ATOM     27  C   UNL     1      35.081 -20.180 -20.930  0.00  0.00    +0.021 C 
ATOM     28  C   UNL     1      36.044 -20.960 -20.298  0.00  0.00    -0.001 C 
ATOM     29  C   UNL     1      33.728 -20.419 -20.722  0.00  0.00    -0.001 C 
ATOM     30  C   UNL     1      35.647 -21.991 -19.447  0.00  0.00    -0.000 C 
ATOM     31  C   UNL     1      33.331 -21.451 -19.872  0.00  0.00    -0.000 C 
ATOM     32  C   UNL     1      34.291 -22.238 -19.235  0.00  0.00    -0.000 C 
ENDBRANCH  26  27
ENDBRANCH  25  26
ENDBRANCH  23  25
ENDBRANCH  20  22
ENDBRANCH   6  20
TORSDOF 5
ENDMDL
MODEL 5
REMARK VINA RESULT:     -10.5      4.120      7.110
REMARK  Name = 28693
REMARK  5 active torsions:
REMARK  status: ('A' for Active; 'I' for Inactive)
REMARK    1  A    between atoms: C_6  and  C_20
REMARK    2  A    between atoms: C_20  and  N_22
REMARK    3  A    between atoms: C_23  and  O_25
REMARK    4  A    between atoms: O_25  and  C_26
REMARK    5  A    between atoms: C_26  and  C_27
REMARK                            x       y       z     vdW  Elec       q    Type
REMARK                         _______ _______ _______ _____ _____    ______ ____
ROOT
ATOM      1  N   UNL     1      34.375  -7.959 -23.326  0.00  0.00    +0.387 N 
ATOM      2  N   UNL     1      33.297  -3.420 -27.133  0.00  0.00    -0.284 N 
ATOM      3  C   UNL     1      33.141  -5.776 -23.116  0.00  0.00    +0.004 C 
ATOM      4  C   UNL     1      33.713  -6.884 -24.105  0.00  0.00    -0.050 C 
ATOM      5  C   UNL     1      32.185  -6.417 -22.101  0.00  0.00    +0.002 C 
ATOM      6  C   UNL     1      32.867  -7.582 -21.379  0.00  0.00    -0.001 C 
ATOM      7  C   UNL     1      34.662  -6.269 -25.205  0.00  0.00    +0.007 C 
ATOM      8  C   UNL     1      33.430  -8.590 -22.387  0.00  0.00    -0.076 C 
ATOM      9  C   UNL     1      32.514  -4.625 -23.885  0.00  0.00    -0.024 C 
ATOM     10  C   UNL     1      33.020  -4.374 -25.167  0.00  0.00    +0.007 C 
ATOM     11  C   UNL     1      34.019  -5.092 -25.854  0.00  0.00    -0.008 C 
ATOM     12  C   UNL     1      32.574  -3.337 -25.964  0.00  0.00    +0.051 C 
ATOM     13  C   UNL     1      34.965  -8.998 -24.176  0.00  0.00    -0.101 C 
ATOM     14  C   UNL     1      31.534  -3.736 -23.427  0.00  0.00    -0.004 C 
ATOM     15  C   UNL     1      34.180  -4.480 -27.076  0.00  0.00    +0.061 C 
ATOM     16  C   UNL     1      31.582  -2.460 -25.525  0.00  0.00    +0.015 C 
ATOM     17  C   UNL     1      31.076  -2.682 -24.235  0.00  0.00    +0.001 C 
ATOM     18  C   UNL     1      33.165  -2.531 -28.267  0.00  0.00    +0.117 C 
ATOM     19  H   UNL     1      35.130  -7.506 -22.812  0.00  0.00    -0.080 HD
ENDROOT
BRANCH   6  20
ATOM     20  C   UNL     1      31.890  -8.264 -20.421  0.00  0.00    +0.091 C 
BRANCH  20  22
ATOM     21  O   UNL     1      32.291 -10.283 -18.371  0.00  0.00    -0.226 OA
ATOM     22  N   UNL     1      31.922  -9.685 -20.584  0.00  0.00    -0.271 N 
ATOM     23  C   UNL     1      32.120 -10.585 -19.547  0.00  0.00    +0.402 C 
ATOM     24  H   UNL     1      31.795 -10.047 -21.490  0.00  0.00    +0.153 HD
BRANCH  23  25
ATOM     25  O   UNL     1      32.096 -11.865 -20.024  0.00  0.00    -0.430 OA
BRANCH  25  26
ATOM     26  C   UNL     1      31.939 -12.001 -21.441  0.00  0.00    +0.237 C 
BRANCH  26  27
ATOM     27  C   UNL     1      32.945 -12.989 -21.953  0.00  0.00    +0.021 C 
ATOM     28  C   UNL     1      33.262 -13.010 -23.307  0.00  0.00    -0.001 C 
ATOM     29  C   UNL     1      33.551 -13.875 -21.070  0.00  0.00    -0.001 C 
ATOM     30  C   UNL     1      34.198 -13.928 -23.783  0.00  0.00    -0.000 C 
ATOM     31  C   UNL     1      34.486 -14.794 -21.546  0.00  0.00    -0.000 C 
ATOM     32  C   UNL     1      34.809 -14.821 -22.903  0.00  0.00    -0.000 C 
ENDBRANCH  26  27
ENDBRANCH  25  26
ENDBRANCH  23  25
ENDBRANCH  20  22
ENDBRANCH   6  20
TORSDOF 5
ENDMDL
MODEL 6
REMARK VINA RESULT:     -10.4      6.059     12.977
REMARK  Name = 28693
REMARK  5 active torsions:
REMARK  status: ('A' for Active; 'I' for Inactive)
REMARK    1  A    between atoms: C_6  and  C_20
REMARK    2  A    between atoms: C_20  and  N_22
REMARK    3  A    between atoms: C_23  and  O_25
REMARK    4  A    between atoms: O_25  and  C_26
REMARK    5  A    between atoms: C_26  and  C_27
REMARK                            x       y       z     vdW  Elec       q    Type
REMARK                         _______ _______ _______ _____ _____    ______ ____
ROOT
ATOM      1  N   UNL     1      32.376 -23.136 -16.165  0.00  0.00    +0.387 N 
ATOM      2  N   UNL     1      36.772 -25.170 -12.587  0.00  0.00    -0.284 N 
ATOM      3  C   UNL     1      34.880 -22.890 -16.183  0.00  0.00    +0.004 C 
ATOM      4  C   UNL     1      33.637 -23.735 -15.662  0.00  0.00    -0.050 C 
ATOM      5  C   UNL     1      34.859 -22.808 -17.715  0.00  0.00    +0.002 C 
ATOM      6  C   UNL     1      33.512 -22.274 -18.208  0.00  0.00    -0.001 C 
ATOM      7  C   UNL     1      33.640 -23.894 -14.092  0.00  0.00    +0.007 C 
ATOM      8  C   UNL     1      32.357 -23.106 -17.638  0.00  0.00    -0.076 C 
ATOM      9  C   UNL     1      36.186 -23.436 -15.630  0.00  0.00    -0.024 C 
ATOM     10  C   UNL     1      36.122 -24.092 -14.395  0.00  0.00    +0.007 C 
ATOM     11  C   UNL     1      34.977 -24.348 -13.614  0.00  0.00    -0.008 C 
ATOM     12  C   UNL     1      37.234 -24.604 -13.754  0.00  0.00    +0.051 C 
ATOM     13  C   UNL     1      31.182 -23.841 -15.690  0.00  0.00    -0.101 C 
ATOM     14  C   UNL     1      37.465 -23.293 -16.184  0.00  0.00    -0.004 C 
ATOM     15  C   UNL     1      35.403 -25.017 -12.490  0.00  0.00    +0.061 C 
ATOM     16  C   UNL     1      38.509 -24.487 -14.309  0.00  0.00    +0.015 C 
ATOM     17  C   UNL     1      38.598 -23.815 -15.538  0.00  0.00    +0.001 C 
ATOM     18  C   UNL     1      37.590 -25.831 -11.593  0.00  0.00    +0.117 C 
ATOM     19  H   UNL     1      32.351 -22.187 -15.795  0.00  0.00    -0.080 HD
ENDROOT
BRANCH   6  20
ATOM     20  C   UNL     1      33.466 -22.262 -19.736  0.00  0.00    +0.091 C 
BRANCH  20  22
ATOM     21  O   UNL     1      36.050 -21.240 -20.584  0.00  0.00    -0.226 OA
ATOM     22  N   UNL     1      33.769 -20.961 -20.248  0.00  0.00    -0.271 N 
ATOM     23  C   UNL     1      35.037 -20.550 -20.632  0.00  0.00    +0.402 C 
ATOM     24  H   UNL     1      33.030 -20.317 -20.333  0.00  0.00    +0.153 HD
BRANCH  23  25
ATOM     25  O   UNL     1      34.998 -19.258 -21.076  0.00  0.00    -0.430 OA
BRANCH  25  26
ATOM     26  C   UNL     1      36.080 -18.858 -21.925  0.00  0.00    +0.237 C 
BRANCH  26  27
ATOM     27  C   UNL     1      35.520 -18.239 -23.172  0.00  0.00    +0.021 C 
ATOM     28  C   UNL     1      34.884 -19.042 -24.113  0.00  0.00    -0.001 C 
ATOM     29  C   UNL     1      35.642 -16.870 -23.376  0.00  0.00    -0.001 C 
ATOM     30  C   UNL     1      34.363 -18.468 -25.272  0.00  0.00    -0.000 C 
ATOM     31  C   UNL     1      35.122 -16.295 -24.536  0.00  0.00    -0.000 C 
ATOM     32  C   UNL     1      34.483 -17.094 -25.484  0.00  0.00    -0.000 C 
ENDBRANCH  26  27
ENDBRANCH  25  26
ENDBRANCH  23  25
ENDBRANCH  20  22
ENDBRANCH   6  20
TORSDOF 5
ENDMDL
MODEL 7
REMARK VINA RESULT:     -10.2      4.733     12.455
REMARK  Name = 28693
REMARK  5 active torsions:
REMARK  status: ('A' for Active; 'I' for Inactive)
REMARK    1  A    between atoms: C_6  and  C_20
REMARK    2  A    between atoms: C_20  and  N_22
REMARK    3  A    between atoms: C_23  and  O_25
REMARK    4  A    between atoms: O_25  and  C_26
REMARK    5  A    between atoms: C_26  and  C_27
REMARK                            x       y       z     vdW  Elec       q    Type
REMARK                         _______ _______ _______ _____ _____    ______ ____
ROOT
ATOM      1  N   UNL     1      36.612 -21.974 -18.403  0.00  0.00    +0.387 N 
ATOM      2  N   UNL     1      35.070 -24.280 -13.058  0.00  0.00    -0.284 N 
ATOM      3  C   UNL     1      34.546 -23.125 -17.542  0.00  0.00    +0.004 C 
ATOM      4  C   UNL     1      35.870 -22.326 -17.167  0.00  0.00    -0.050 C 
ATOM      5  C   UNL     1      33.686 -22.299 -18.509  0.00  0.00    +0.002 C 
ATOM      6  C   UNL     1      34.505 -21.874 -19.729  0.00  0.00    -0.001 C 
ATOM      7  C   UNL     1      36.767 -23.109 -16.132  0.00  0.00    +0.007 C 
ATOM      8  C   UNL     1      35.784 -21.146 -19.299  0.00  0.00    -0.076 C 
ATOM      9  C   UNL     1      33.796 -23.560 -16.294  0.00  0.00    -0.024 C 
ATOM     10  C   UNL     1      34.560 -23.769 -15.139  0.00  0.00    +0.007 C 
ATOM     11  C   UNL     1      35.948 -23.581 -14.980  0.00  0.00    -0.008 C 
ATOM     12  C   UNL     1      34.019 -24.202 -13.944  0.00  0.00    +0.051 C 
ATOM     13  C   UNL     1      37.868 -21.269 -18.132  0.00  0.00    -0.101 C 
ATOM     14  C   UNL     1      32.430 -23.849 -16.187  0.00  0.00    -0.004 C 
ATOM     15  C   UNL     1      36.247 -23.908 -13.677  0.00  0.00    +0.061 C 
ATOM     16  C   UNL     1      32.655 -24.471 -13.821  0.00  0.00    +0.015 C 
ATOM     17  C   UNL     1      31.874 -24.287 -14.973  0.00  0.00    +0.001 C 
ATOM     18  C   UNL     1      34.973 -24.693 -11.675  0.00  0.00    +0.117 C 
ATOM     19  H   UNL     1      36.838 -22.860 -18.854  0.00  0.00    -0.080 HD
ENDROOT
BRANCH   6  20
ATOM     20  C   UNL     1      33.668 -20.991 -20.655  0.00  0.00    +0.091 C 
BRANCH  20  22
ATOM     21  O   UNL     1      34.914 -20.050 -23.105  0.00  0.00    -0.226 OA
ATOM     22  N   UNL     1      34.312 -19.734 -20.885  0.00  0.00    -0.271 N 
ATOM     23  C   UNL     1      34.885 -19.360 -22.091  0.00  0.00    +0.402 C 
ATOM     24  H   UNL     1      34.349 -19.093 -20.139  0.00  0.00    +0.153 HD
BRANCH  23  25
ATOM     25  O   UNL     1      35.417 -18.105 -21.991  0.00  0.00    -0.430 OA
BRANCH  25  26
ATOM     26  C   UNL     1      36.139 -17.640 -23.137  0.00  0.00    +0.237 C 
BRANCH  26  27
ATOM     27  C   UNL     1      35.301 -16.631 -23.867  0.00  0.00    +0.021 C 
ATOM     28  C   UNL     1      34.864 -16.904 -25.159  0.00  0.00    -0.001 C 
ATOM     29  C   UNL     1      34.969 -15.433 -23.245  0.00  0.00    -0.001 C 
ATOM     30  C   UNL     1      34.086 -15.967 -25.837  0.00  0.00    -0.000 C 
ATOM     31  C   UNL     1      34.191 -14.495 -23.924  0.00  0.00    -0.000 C 
ATOM     32  C   UNL     1      33.749 -14.763 -25.220  0.00  0.00    -0.000 C 
ENDBRANCH  26  27
ENDBRANCH  25  26
ENDBRANCH  23  25
ENDBRANCH  20  22
ENDBRANCH   6  20
TORSDOF 5
ENDMDL
MODEL 8
REMARK VINA RESULT:     -10.1      3.674      6.264
REMARK  Name = 28693
REMARK  5 active torsions:
REMARK  status: ('A' for Active; 'I' for Inactive)
REMARK    1  A    between atoms: C_6  and  C_20
REMARK    2  A    between atoms: C_20  and  N_22
REMARK    3  A    between atoms: C_23  and  O_25
REMARK    4  A    between atoms: O_25  and  C_26
REMARK    5  A    between atoms: C_26  and  C_27
REMARK                            x       y       z     vdW  Elec       q    Type
REMARK                         _______ _______ _______ _____ _____    ______ ____
ROOT
ATOM      1  N   UNL     1      34.550  -8.660 -23.778  0.00  0.00    +0.387 N 
ATOM      2  N   UNL     1      33.576  -3.263 -26.265  0.00  0.00    -0.284 N 
ATOM      3  C   UNL     1      33.017  -6.745 -23.219  0.00  0.00    +0.004 C 
ATOM      4  C   UNL     1      33.901  -7.449 -24.339  0.00  0.00    -0.050 C 
ATOM      5  C   UNL     1      31.988  -7.736 -22.657  0.00  0.00    +0.002 C 
ATOM      6  C   UNL     1      32.679  -9.012 -22.172  0.00  0.00    -0.001 C 
ATOM      7  C   UNL     1      34.942  -6.458 -24.988  0.00  0.00    +0.007 C 
ATOM      8  C   UNL     1      33.545  -9.617 -23.283  0.00  0.00    -0.076 C 
ATOM      9  C   UNL     1      32.390  -5.463 -23.741  0.00  0.00    -0.024 C 
ATOM     10  C   UNL     1      33.080  -4.793 -24.759  0.00  0.00    +0.007 C 
ATOM     11  C   UNL     1      34.274  -5.189 -25.395  0.00  0.00    -0.008 C 
ATOM     12  C   UNL     1      32.650  -3.597 -25.302  0.00  0.00    +0.051 C 
ATOM     13  C   UNL     1      35.418  -9.341 -24.745  0.00  0.00    -0.101 C 
ATOM     14  C   UNL     1      31.233  -4.833 -23.266  0.00  0.00    -0.004 C 
ATOM     15  C   UNL     1      34.568  -4.221 -26.327  0.00  0.00    +0.061 C 
ATOM     16  C   UNL     1      31.486  -2.973 -24.851  0.00  0.00    +0.015 C 
ATOM     17  C   UNL     1      30.790  -3.619 -23.817  0.00  0.00    +0.001 C 
ATOM     18  C   UNL     1      33.532  -2.081 -27.097  0.00  0.00    +0.117 C 
ATOM     19  H   UNL     1      35.133  -8.333 -23.008  0.00  0.00    -0.080 HD
ENDROOT
BRANCH   6  20
ATOM     20  C   UNL     1      31.647 -10.027 -21.680  0.00  0.00    +0.091 C 
BRANCH  20  22
ATOM     21  O   UNL     1      32.193 -12.318 -19.978  0.00  0.00    -0.226 OA
ATOM     22  N   UNL     1      32.000 -11.354 -22.082  0.00  0.00    -0.271 N 
ATOM     23  C   UNL     1      32.246 -12.397 -21.201  0.00  0.00    +0.402 C 
ATOM     24  H   UNL     1      32.073 -11.538 -23.046  0.00  0.00    +0.153 HD
BRANCH  23  25
ATOM     25  O   UNL     1      32.557 -13.533 -21.892  0.00  0.00    -0.430 OA
BRANCH  25  26
ATOM     26  C   UNL     1      33.954 -13.779 -22.092  0.00  0.00    +0.237 C 
BRANCH  26  27
ATOM     27  C   UNL     1      34.138 -14.554 -23.364  0.00  0.00    +0.021 C 
ATOM     28  C   UNL     1      33.468 -14.156 -24.516  0.00  0.00    -0.001 C 
ATOM     29  C   UNL     1      34.977 -15.662 -23.380  0.00  0.00    -0.001 C 
ATOM     30  C   UNL     1      33.639 -14.875 -25.698  0.00  0.00    -0.000 C 
ATOM     31  C   UNL     1      35.147 -16.383 -24.562  0.00  0.00    -0.000 C 
ATOM     32  C   UNL     1      34.478 -15.989 -25.721  0.00  0.00    -0.000 C 
ENDBRANCH  26  27
ENDBRANCH  25  26
ENDBRANCH  23  25
ENDBRANCH  20  22
ENDBRANCH   6  20
TORSDOF 5
ENDMDL
MODEL 9
REMARK VINA RESULT:     -10.0      3.535      8.685
REMARK  Name = 28693
REMARK  5 active torsions:
REMARK  status: ('A' for Active; 'I' for Inactive)
REMARK    1  A    between atoms: C_6  and  C_20
REMARK    2  A    between atoms: C_20  and  N_22
REMARK    3  A    between atoms: C_23  and  O_25
REMARK    4  A    between atoms: O_25  and  C_26
REMARK    5  A    between atoms: C_26  and  C_27
REMARK                            x       y       z     vdW  Elec       q    Type
REMARK                         _______ _______ _______ _____ _____    ______ ____
ROOT
ATOM      1  N   UNL     1      33.783 -13.109 -26.494  0.00  0.00    +0.387 N 
ATOM      2  N   UNL     1      35.140 -18.280 -23.722  0.00  0.00    -0.284 N 
ATOM      3  C   UNL     1      33.941 -13.791 -24.077  0.00  0.00    +0.004 C 
ATOM      4  C   UNL     1      34.362 -14.121 -25.576  0.00  0.00    -0.050 C 
ATOM      5  C   UNL     1      34.378 -12.367 -23.707  0.00  0.00    +0.002 C 
ATOM      6  C   UNL     1      33.842 -11.358 -24.724  0.00  0.00    -0.001 C 
ATOM      7  C   UNL     1      33.983 -15.595 -25.992  0.00  0.00    +0.007 C 
ATOM      8  C   UNL     1      34.247 -11.754 -26.148  0.00  0.00    -0.076 C 
ATOM      9  C   UNL     1      34.463 -14.847 -23.116  0.00  0.00    -0.024 C 
ATOM     10  C   UNL     1      34.647 -16.135 -23.634  0.00  0.00    +0.007 C 
ATOM     11  C   UNL     1      34.447 -16.566 -24.961  0.00  0.00    -0.008 C 
ATOM     12  C   UNL     1      35.077 -17.202 -22.868  0.00  0.00    +0.051 C 
ATOM     13  C   UNL     1      34.096 -13.373 -27.902  0.00  0.00    -0.101 C 
ATOM     14  C   UNL     1      34.711 -14.694 -21.746  0.00  0.00    -0.004 C 
ATOM     15  C   UNL     1      34.757 -17.906 -24.995  0.00  0.00    +0.061 C 
ATOM     16  C   UNL     1      35.349 -17.055 -21.508  0.00  0.00    +0.015 C 
ATOM     17  C   UNL     1      35.151 -15.775 -20.964  0.00  0.00    +0.001 C 
ATOM     18  C   UNL     1      35.545 -19.620 -23.354  0.00  0.00    +0.117 C 
ATOM     19  H   UNL     1      32.772 -13.174 -26.378  0.00  0.00    -0.080 HD
ENDROOT
BRANCH   6  20
ATOM     20  C   UNL     1      34.337  -9.949 -24.394  0.00  0.00    +0.091 C 
BRANCH  20  22
ATOM     21  O   UNL     1      34.725  -7.367 -23.122  0.00  0.00    -0.226 OA
ATOM     22  N   UNL     1      33.591  -9.384 -23.313  0.00  0.00    -0.271 N 
ATOM     23  C   UNL     1      33.842  -8.137 -22.760  0.00  0.00    +0.402 C 
ATOM     24  H   UNL     1      32.852  -9.914 -22.937  0.00  0.00    +0.153 HD
BRANCH  23  25
ATOM     25  O   UNL     1      32.960  -7.885 -21.748  0.00  0.00    -0.430 OA
BRANCH  25  26
ATOM     26  C   UNL     1      31.707  -8.574 -21.826  0.00  0.00    +0.237 C 
BRANCH  26  27
ATOM     27  C   UNL     1      31.769  -9.802 -20.966  0.00  0.00    +0.021 C 
ATOM     28  C   UNL     1      31.962  -9.675 -19.595  0.00  0.00    -0.001 C 
ATOM     29  C   UNL     1      31.633 -11.057 -21.549  0.00  0.00    -0.001 C 
ATOM     30  C   UNL     1      32.020 -10.816 -18.796  0.00  0.00    -0.000 C 
ATOM     31  C   UNL     1      31.691 -12.199 -20.750  0.00  0.00    -0.000 C 
ATOM     32  C   UNL     1      31.885 -12.079 -19.374  0.00  0.00    -0.000 C 
ENDBRANCH  26  27
ENDBRANCH  25  26
ENDBRANCH  23  25
ENDBRANCH  20  22
ENDBRANCH   6  20
TORSDOF 5
ENDMDL
