MODEL 1
REMARK VINA RESULT:     -11.1      0.000      0.000
REMARK  Name = 11712628
REMARK  7 active torsions:
REMARK  status: ('A' for Active; 'I' for Inactive)
REMARK    1  A    between atoms: C_1  and  C_10
REMARK    2  A    between atoms: C_2  and  C_16
REMARK    3  A    between atoms: C_3  and  C_14
REMARK    4  A    between atoms: C_4  and  S_25
REMARK    5  A    between atoms: C_15  and  C_24
REMARK    6  A    between atoms: S_25  and  C_26
REMARK    7  A    between atoms: C_29  and  N_32
REMARK                            x       y       z     vdW  Elec       q    Type
REMARK                         _______ _______ _______ _____ _____    ______ ____
ROOT
ATOM      1  C   UNL     1      34.435 -14.988 -23.194  0.00  0.00    +0.076 C 
ATOM      2  C   UNL     1      34.442 -14.686 -21.841  0.00  0.00    +0.004 C 
ATOM      3  C   UNL     1      34.883 -16.238 -23.620  0.00  0.00    +0.081 C 
ATOM      4  C   UNL     1      35.331 -17.173 -22.686  0.00  0.00    +0.033 C 
ATOM      5  C   UNL     1      34.885 -15.605 -20.902  0.00  0.00    +0.000 C 
ATOM      6  C   UNL     1      35.332 -16.856 -21.328  0.00  0.00    +0.006 C 
ENDROOT
BRANCH   1  10
ATOM      7  F   UNL     1      34.301 -14.302 -25.483  0.00  0.00    -0.166 F 
ATOM      8  F   UNL     1      32.598 -13.845 -24.216  0.00  0.00    -0.166 F 
ATOM      9  F   UNL     1      34.457 -12.742 -23.976  0.00  0.00    -0.166 F 
ATOM     10  C   UNL     1      33.954 -13.988 -24.202  0.00  0.00    +0.419 C 
ENDBRANCH   1  10
BRANCH   3  14
ATOM     11  F   UNL     1      35.048 -17.883 -25.348  0.00  0.00    -0.166 F 
ATOM     12  F   UNL     1      33.706 -16.216 -25.702  0.00  0.00    -0.166 F 
ATOM     13  F   UNL     1      35.857 -15.909 -25.763  0.00  0.00    -0.166 F 
ATOM     14  C   UNL     1      34.872 -16.558 -25.083  0.00  0.00    +0.419 C 
ENDBRANCH   3  14
BRANCH   2  16
ATOM     15  C   UNL     1      32.715 -13.104 -21.018  0.00  0.00    +0.058 C 
ATOM     16  C   UNL     1      33.976 -13.375 -21.356  0.00  0.00    +0.005 C 
BRANCH  15  24
ATOM     17  O   UNL     1      32.576  -8.515 -23.211  0.00  0.00    -0.350 OA
ATOM     18  O   UNL     1      32.319 -11.549 -19.344  0.00  0.00    -0.270 OA
ATOM     19  N   UNL     1      32.225 -10.749 -21.524  0.00  0.00    -0.271 N 
ATOM     20  C   UNL     1      31.765  -9.421 -21.114  0.00  0.00    +0.126 C 
ATOM     21  C   UNL     1      32.314 -10.915 -22.980  0.00  0.00    +0.126 C 
ATOM     22  C   UNL     1      32.600  -8.343 -21.792  0.00  0.00    +0.164 C 
ATOM     23  C   UNL     1      33.131  -9.779 -23.586  0.00  0.00    +0.164 C 
ATOM     24  C   UNL     1      32.404 -11.736 -20.560  0.00  0.00    +0.249 C 
ENDBRANCH  15  24
ENDBRANCH   2  16
BRANCH   4  25
ATOM     25  S   UNL     1      35.917 -18.792 -23.175  0.00  0.00    -0.087 S 
BRANCH  25  26
ATOM     26  C   UNL     1      35.293 -19.799 -21.840  0.00  0.00    +0.031 C 
ATOM     27  C   UNL     1      36.181 -20.406 -20.954  0.00  0.00    +0.021 C 
ATOM     28  C   UNL     1      33.920 -19.976 -21.688  0.00  0.00    +0.007 C 
ATOM     29  C   UNL     1      35.693 -21.193 -19.912  0.00  0.00    +0.042 C 
ATOM     30  C   UNL     1      33.431 -20.763 -20.645  0.00  0.00    +0.002 C 
ATOM     31  C   UNL     1      34.319 -21.372 -19.757  0.00  0.00    +0.014 C 
BRANCH  29  32
ATOM     32  N   UNL     1      36.589 -21.809 -19.013  0.00  0.00    -0.357 N 
ATOM     33  H   UNL     1      37.536 -21.918 -19.259  0.00  0.00    +0.142 HD
ATOM     34  H   UNL     1      36.267 -22.131 -18.140  0.00  0.00    +0.142 HD
ENDBRANCH  29  32
ENDBRANCH  25  26
ENDBRANCH   4  25
TORSDOF 7
ENDMDL
MODEL 2
REMARK VINA RESULT:     -10.4      3.217      8.138
REMARK  Name = 11712628
REMARK  7 active torsions:
REMARK  status: ('A' for Active; 'I' for Inactive)
REMARK    1  A    between atoms: C_1  and  C_10
REMARK    2  A    between atoms: C_2  and  C_16
REMARK    3  A    between atoms: C_3  and  C_14
REMARK    4  A    between atoms: C_4  and  S_25
REMARK    5  A    between atoms: C_15  and  C_24
REMARK    6  A    between atoms: S_25  and  C_26
REMARK    7  A    between atoms: C_29  and  N_32
REMARK                            x       y       z     vdW  Elec       q    Type
REMARK                         _______ _______ _______ _____ _____    ______ ____
ROOT
ATOM      1  C   UNL     1      34.654 -15.586 -24.214  0.00  0.00    +0.076 C 
ATOM      2  C   UNL     1      35.073 -15.812 -22.912  0.00  0.00    +0.004 C 
ATOM      3  C   UNL     1      34.135 -14.338 -24.560  0.00  0.00    +0.081 C 
ATOM      4  C   UNL     1      34.042 -13.330 -23.599  0.00  0.00    +0.033 C 
ATOM      5  C   UNL     1      34.986 -14.820 -21.947  0.00  0.00    +0.000 C 
ATOM      6  C   UNL     1      34.468 -13.572 -22.293  0.00  0.00    +0.006 C 
ENDROOT
BRANCH   1  10
ATOM      7  F   UNL     1      35.097 -17.878 -24.737  0.00  0.00    -0.166 F 
ATOM      8  F   UNL     1      33.585 -16.872 -25.925  0.00  0.00    -0.166 F 
ATOM      9  F   UNL     1      35.686 -16.383 -26.202  0.00  0.00    -0.166 F 
ATOM     10  C   UNL     1      34.752 -16.663 -25.251  0.00  0.00    +0.419 C 
ENDBRANCH   1  10
BRANCH   3  14
ATOM     11  F   UNL     1      33.670 -12.782 -26.316  0.00  0.00    -0.166 F 
ATOM     12  F   UNL     1      34.474 -14.711 -26.898  0.00  0.00    -0.166 F 
ATOM     13  F   UNL     1      32.422 -14.558 -26.194  0.00  0.00    -0.166 F 
ATOM     14  C   UNL     1      33.685 -14.100 -25.969  0.00  0.00    +0.419 C 
ENDBRANCH   3  14
BRANCH   2  16
ATOM     15  C   UNL     1      35.343 -17.733 -21.363  0.00  0.00    +0.058 C 
ATOM     16  C   UNL     1      35.626 -17.118 -22.512  0.00  0.00    +0.005 C 
BRANCH  15  24
ATOM     17  O   UNL     1      33.714 -22.324 -19.898  0.00  0.00    -0.350 OA
ATOM     18  O   UNL     1      37.216 -19.057 -21.028  0.00  0.00    -0.270 OA
ATOM     19  N   UNL     1      35.168 -20.150 -20.956  0.00  0.00    -0.271 N 
ATOM     20  C   UNL     1      35.776 -21.477 -20.850  0.00  0.00    +0.126 C 
ATOM     21  C   UNL     1      33.701 -20.182 -21.034  0.00  0.00    +0.126 C 
ATOM     22  C   UNL     1      35.130 -22.262 -19.716  0.00  0.00    +0.164 C 
ATOM     23  C   UNL     1      33.135 -21.016 -19.891  0.00  0.00    +0.164 C 
ATOM     24  C   UNL     1      35.986 -19.035 -21.102  0.00  0.00    +0.249 C 
ENDBRANCH  15  24
ENDBRANCH   2  16
BRANCH   4  25
ATOM     25  S   UNL     1      33.384 -11.712 -23.986  0.00  0.00    -0.087 S 
BRANCH  25  26
ATOM     26  C   UNL     1      32.568 -11.299 -22.454  0.00  0.00    +0.031 C 
ATOM     27  C   UNL     1      32.736 -10.034 -21.895  0.00  0.00    +0.021 C 
ATOM     28  C   UNL     1      31.766 -12.245 -21.819  0.00  0.00    +0.007 C 
ATOM     29  C   UNL     1      32.098  -9.712 -20.698  0.00  0.00    +0.042 C 
ATOM     30  C   UNL     1      31.127 -11.923 -20.621  0.00  0.00    +0.002 C 
ATOM     31  C   UNL     1      31.294 -10.657 -20.060  0.00  0.00    +0.014 C 
BRANCH  29  32
ATOM     32  N   UNL     1      32.266  -8.432 -20.130  0.00  0.00    -0.357 N 
ATOM     33  H   UNL     1      31.698  -7.684 -20.427  0.00  0.00    +0.142 HD
ATOM     34  H   UNL     1      32.950  -8.286 -19.437  0.00  0.00    +0.142 HD
ENDBRANCH  29  32
ENDBRANCH  25  26
ENDBRANCH   4  25
TORSDOF 7
ENDMDL
MODEL 3
REMARK VINA RESULT:     -10.4      6.234      9.114
REMARK  Name = 11712628
REMARK  7 active torsions:
REMARK  status: ('A' for Active; 'I' for Inactive)
REMARK    1  A    between atoms: C_1  and  C_10
REMARK    2  A    between atoms: C_2  and  C_16
REMARK    3  A    between atoms: C_3  and  C_14
REMARK    4  A    between atoms: C_4  and  S_25
REMARK    5  A    between atoms: C_15  and  C_24
REMARK    6  A    between atoms: S_25  and  C_26
REMARK    7  A    between atoms: C_29  and  N_32
REMARK                            x       y       z     vdW  Elec       q    Type
REMARK                         _______ _______ _______ _____ _____    ______ ____
ROOT
ATOM      1  C   UNL     1      35.691 -22.084 -18.232  0.00  0.00    +0.076 C 
ATOM      2  C   UNL     1      34.705 -21.969 -19.199  0.00  0.00    +0.004 C 
ATOM      3  C   UNL     1      35.385 -22.676 -17.007  0.00  0.00    +0.081 C 
ATOM      4  C   UNL     1      34.094 -23.147 -16.764  0.00  0.00    +0.033 C 
ATOM      5  C   UNL     1      33.418 -22.432 -18.971  0.00  0.00    +0.000 C 
ATOM      6  C   UNL     1      33.111 -23.025 -17.746  0.00  0.00    +0.006 C 
ENDROOT
BRANCH   1  10
ATOM      7  F   UNL     1      37.306 -20.336 -17.978  0.00  0.00    -0.166 F 
ATOM      8  F   UNL     1      38.049 -22.374 -17.950  0.00  0.00    -0.166 F 
ATOM      9  F   UNL     1      37.364 -21.495 -19.817  0.00  0.00    -0.166 F 
ATOM     10  C   UNL     1      37.080 -21.580 -18.487  0.00  0.00    +0.419 C 
ENDBRANCH   1  10
BRANCH   3  14
ATOM     11  F   UNL     1      37.322 -21.746 -15.957  0.00  0.00    -0.166 F 
ATOM     12  F   UNL     1      35.967 -22.877 -14.696  0.00  0.00    -0.166 F 
ATOM     13  F   UNL     1      37.223 -23.910 -16.139  0.00  0.00    -0.166 F 
ATOM     14  C   UNL     1      36.456 -22.798 -15.967  0.00  0.00    +0.419 C 
ENDBRANCH   3  14
BRANCH   2  16
ATOM     15  C   UNL     1      34.655 -20.102 -20.835  0.00  0.00    +0.058 C 
ATOM     16  C   UNL     1      34.994 -21.349 -20.504  0.00  0.00    +0.005 C 
BRANCH  15  24
ATOM     17  O   UNL     1      35.504 -15.553 -22.948  0.00  0.00    -0.350 OA
ATOM     18  O   UNL     1      34.921 -20.437 -23.114  0.00  0.00    -0.270 OA
ATOM     19  N   UNL     1      35.409 -18.305 -22.331  0.00  0.00    -0.271 N 
ATOM     20  C   UNL     1      35.911 -17.844 -23.627  0.00  0.00    +0.126 C 
ATOM     21  C   UNL     1      35.528 -17.300 -21.266  0.00  0.00    +0.126 C 
ATOM     22  C   UNL     1      35.280 -16.506 -23.990  0.00  0.00    +0.164 C 
ATOM     23  C   UNL     1      34.910 -15.983 -21.720  0.00  0.00    +0.164 C 
ATOM     24  C   UNL     1      35.006 -19.628 -22.187  0.00  0.00    +0.249 C 
ENDBRANCH  15  24
ENDBRANCH   2  16
BRANCH   4  25
ATOM     25  S   UNL     1      33.644 -23.915 -15.212  0.00  0.00    -0.087 S 
BRANCH  25  26
ATOM     26  C   UNL     1      31.865 -23.946 -15.349  0.00  0.00    +0.031 C 
ATOM     27  C   UNL     1      31.158 -25.086 -14.969  0.00  0.00    +0.021 C 
ATOM     28  C   UNL     1      31.187 -22.831 -15.837  0.00  0.00    +0.007 C 
ATOM     29  C   UNL     1      29.768 -25.109 -15.077  0.00  0.00    +0.042 C 
ATOM     30  C   UNL     1      29.796 -22.855 -15.945  0.00  0.00    +0.002 C 
ATOM     31  C   UNL     1      29.087 -23.994 -15.565  0.00  0.00    +0.014 C 
BRANCH  29  32
ATOM     32  N   UNL     1      29.050 -26.261 -14.694  0.00  0.00    -0.357 N 
ATOM     33  H   UNL     1      28.558 -26.272 -13.840  0.00  0.00    +0.142 HD
ATOM     34  H   UNL     1      29.038 -27.053 -15.279  0.00  0.00    +0.142 HD
ENDBRANCH  29  32
ENDBRANCH  25  26
ENDBRANCH   4  25
TORSDOF 7
ENDMDL
MODEL 4
REMARK VINA RESULT:     -10.3      4.694     10.168
REMARK  Name = 11712628
REMARK  7 active torsions:
REMARK  status: ('A' for Active; 'I' for Inactive)
REMARK    1  A    between atoms: C_1  and  C_10
REMARK    2  A    between atoms: C_2  and  C_16
REMARK    3  A    between atoms: C_3  and  C_14
REMARK    4  A    between atoms: C_4  and  S_25
REMARK    5  A    between atoms: C_15  and  C_24
REMARK    6  A    between atoms: S_25  and  C_26
REMARK    7  A    between atoms: C_29  and  N_32
REMARK                            x       y       z     vdW  Elec       q    Type
REMARK                         _______ _______ _______ _____ _____    ______ ____
ROOT
ATOM      1  C   UNL     1      32.400 -10.894 -21.897  0.00  0.00    +0.076 C 
ATOM      2  C   UNL     1      32.917 -10.866 -23.183  0.00  0.00    +0.004 C 
ATOM      3  C   UNL     1      32.401  -9.729 -21.131  0.00  0.00    +0.081 C 
ATOM      4  C   UNL     1      32.920  -8.547 -21.661  0.00  0.00    +0.033 C 
ATOM      5  C   UNL     1      33.436  -9.698 -23.722  0.00  0.00    +0.000 C 
ATOM      6  C   UNL     1      33.436  -8.531 -22.957  0.00  0.00    +0.006 C 
ENDROOT
BRANCH   1  10
ATOM      7  F   UNL     1      31.966 -13.233 -22.155  0.00  0.00    -0.166 F 
ATOM      8  F   UNL     1      32.440 -12.535 -20.156  0.00  0.00    -0.166 F 
ATOM      9  F   UNL     1      30.512 -12.060 -21.042  0.00  0.00    -0.166 F 
ATOM     10  C   UNL     1      31.842 -12.161 -21.322  0.00  0.00    +0.419 C 
ENDBRANCH   1  10
BRANCH   3  14
ATOM     11  F   UNL     1      31.616  -8.531 -19.216  0.00  0.00    -0.166 F 
ATOM     12  F   UNL     1      30.646 -10.419 -19.661  0.00  0.00    -0.166 F 
ATOM     13  F   UNL     1      32.669 -10.400 -18.866  0.00  0.00    -0.166 F 
ATOM     14  C   UNL     1      31.841  -9.768 -19.743  0.00  0.00    +0.419 C 
ENDBRANCH   3  14
BRANCH   2  16
ATOM     15  C   UNL     1      33.992 -12.503 -24.707  0.00  0.00    +0.058 C 
ATOM     16  C   UNL     1      32.932 -12.078 -24.020  0.00  0.00    +0.005 C 
BRANCH  15  24
ATOM     17  O   UNL     1      35.167 -17.406 -24.029  0.00  0.00    -0.350 OA
ATOM     18  O   UNL     1      33.539 -13.604 -26.697  0.00  0.00    -0.270 OA
ATOM     19  N   UNL     1      34.061 -14.954 -24.879  0.00  0.00    -0.271 N 
ATOM     20  C   UNL     1      33.775 -16.194 -25.601  0.00  0.00    +0.126 C 
ATOM     21  C   UNL     1      34.427 -15.164 -23.472  0.00  0.00    +0.126 C 
ATOM     22  C   UNL     1      34.919 -17.184 -25.419  0.00  0.00    +0.164 C 
ATOM     23  C   UNL     1      35.548 -16.193 -23.373  0.00  0.00    +0.164 C 
ATOM     24  C   UNL     1      33.846 -13.732 -25.510  0.00  0.00    +0.249 C 
ENDBRANCH  15  24
ENDBRANCH   2  16
BRANCH   4  25
ATOM     25  S   UNL     1      32.948  -7.023 -20.724  0.00  0.00    -0.087 S 
BRANCH  25  26
ATOM     26  C   UNL     1      32.258  -5.880 -21.909  0.00  0.00    +0.031 C 
ATOM     27  C   UNL     1      32.976  -5.551 -23.057  0.00  0.00    +0.021 C 
ATOM     28  C   UNL     1      31.004  -5.318 -21.681  0.00  0.00    +0.007 C 
ATOM     29  C   UNL     1      32.436  -4.658 -23.982  0.00  0.00    +0.042 C 
ATOM     30  C   UNL     1      30.464  -4.424 -22.606  0.00  0.00    +0.002 C 
ATOM     31  C   UNL     1      31.181  -4.094 -23.757  0.00  0.00    +0.014 C 
BRANCH  29  32
ATOM     32  N   UNL     1      33.160  -4.323 -25.145  0.00  0.00    -0.357 N 
ATOM     33  H   UNL     1      32.805  -3.647 -25.767  0.00  0.00    +0.142 HD
ATOM     34  H   UNL     1      34.019  -4.764 -25.335  0.00  0.00    +0.142 HD
ENDBRANCH  29  32
ENDBRANCH  25  26
ENDBRANCH   4  25
TORSDOF 7
ENDMDL
MODEL 5
REMARK VINA RESULT:     -10.3      7.790     11.037
REMARK  Name = 11712628
REMARK  7 active torsions:
REMARK  status: ('A' for Active; 'I' for Inactive)
REMARK    1  A    between atoms: C_1  and  C_10
REMARK    2  A    between atoms: C_2  and  C_16
REMARK    3  A    between atoms: C_3  and  C_14
REMARK    4  A    between atoms: C_4  and  S_25
REMARK    5  A    between atoms: C_15  and  C_24
REMARK    6  A    between atoms: S_25  and  C_26
REMARK    7  A    between atoms: C_29  and  N_32
REMARK                            x       y       z     vdW  Elec       q    Type
REMARK                         _______ _______ _______ _____ _____    ______ ____
ROOT
ATOM      1  C   UNL     1      32.641 -23.324 -16.172  0.00  0.00    +0.076 C 
ATOM      2  C   UNL     1      33.715 -22.951 -16.965  0.00  0.00    +0.004 C 
ATOM      3  C   UNL     1      32.876 -23.943 -14.944  0.00  0.00    +0.081 C 
ATOM      4  C   UNL     1      34.185 -24.182 -14.523  0.00  0.00    +0.033 C 
ATOM      5  C   UNL     1      35.021 -23.183 -16.559  0.00  0.00    +0.000 C 
ATOM      6  C   UNL     1      35.257 -23.801 -15.331  0.00  0.00    +0.006 C 
ENDROOT
BRANCH   1  10
ATOM      7  F   UNL     1      30.546 -24.210 -16.916  0.00  0.00    -0.166 F 
ATOM      8  F   UNL     1      30.478 -22.425 -15.684  0.00  0.00    -0.166 F 
ATOM      9  F   UNL     1      31.176 -22.299 -17.740  0.00  0.00    -0.166 F 
ATOM     10  C   UNL     1      31.233 -23.070 -16.618  0.00  0.00    +0.419 C 
ENDBRANCH   1  10
BRANCH   3  14
ATOM     11  F   UNL     1      30.643 -24.789 -14.813  0.00  0.00    -0.166 F 
ATOM     12  F   UNL     1      32.001 -25.345 -13.216  0.00  0.00    -0.166 F 
ATOM     13  F   UNL     1      31.243 -23.311 -13.337  0.00  0.00    -0.166 F 
ATOM     14  C   UNL     1      31.710 -24.342 -14.093  0.00  0.00    +0.419 C 
ENDBRANCH   3  14
BRANCH   2  16
ATOM     15  C   UNL     1      34.478 -21.772 -19.011  0.00  0.00    +0.058 C 
ATOM     16  C   UNL     1      33.504 -22.295 -18.267  0.00  0.00    +0.005 C 
BRANCH  15  24
ATOM     17  O   UNL     1      36.796 -18.662 -22.303  0.00  0.00    -0.350 OA
ATOM     18  O   UNL     1      32.916 -21.177 -20.619  0.00  0.00    -0.270 OA
ATOM     19  N   UNL     1      35.110 -20.539 -21.041  0.00  0.00    -0.271 N 
ATOM     20  C   UNL     1      34.803 -20.038 -22.382  0.00  0.00    +0.126 C 
ATOM     21  C   UNL     1      36.536 -20.463 -20.699  0.00  0.00    +0.126 C 
ATOM     22  C   UNL     1      35.392 -18.647 -22.571  0.00  0.00    +0.164 C 
ATOM     23  C   UNL     1      37.059 -19.053 -20.952  0.00  0.00    +0.164 C 
ATOM     24  C   UNL     1      34.103 -21.138 -20.290  0.00  0.00    +0.249 C 
ENDBRANCH  15  24
ENDBRANCH   2  16
BRANCH   4  25
ATOM     25  S   UNL     1      34.546 -24.972 -12.959  0.00  0.00    -0.087 S 
BRANCH  25  26
ATOM     26  C   UNL     1      36.330 -24.931 -12.959  0.00  0.00    +0.031 C 
ATOM     27  C   UNL     1      37.048 -25.860 -13.711  0.00  0.00    +0.021 C 
ATOM     28  C   UNL     1      37.002 -23.971 -12.206  0.00  0.00    +0.007 C 
ATOM     29  C   UNL     1      38.441 -25.827 -13.710  0.00  0.00    +0.042 C 
ATOM     30  C   UNL     1      38.396 -23.938 -12.204  0.00  0.00    +0.002 C 
ATOM     31  C   UNL     1      39.116 -24.866 -12.956  0.00  0.00    +0.014 C 
BRANCH  29  32
ATOM     32  N   UNL     1      39.170 -26.765 -14.469  0.00  0.00    -0.357 N 
ATOM     33  H   UNL     1      40.153 -26.787 -14.412  0.00  0.00    +0.142 HD
ATOM     34  H   UNL     1      38.698 -27.398 -15.057  0.00  0.00    +0.142 HD
ENDBRANCH  29  32
ENDBRANCH  25  26
ENDBRANCH   4  25
TORSDOF 7
ENDMDL
MODEL 6
REMARK VINA RESULT:     -10.2      6.350      9.198
REMARK  Name = 11712628
REMARK  7 active torsions:
REMARK  status: ('A' for Active; 'I' for Inactive)
REMARK    1  A    between atoms: C_1  and  C_10
REMARK    2  A    between atoms: C_2  and  C_16
REMARK    3  A    between atoms: C_3  and  C_14
REMARK    4  A    between atoms: C_4  and  S_25
REMARK    5  A    between atoms: C_15  and  C_24
REMARK    6  A    between atoms: S_25  and  C_26
REMARK    7  A    between atoms: C_29  and  N_32
REMARK                            x       y       z     vdW  Elec       q    Type
REMARK                         _______ _______ _______ _____ _____    ______ ____
ROOT
ATOM      1  C   UNL     1      34.985 -22.299 -18.208  0.00  0.00    +0.076 C 
ATOM      2  C   UNL     1      36.036 -21.678 -18.866  0.00  0.00    +0.004 C 
ATOM      3  C   UNL     1      35.149 -22.704 -16.883  0.00  0.00    +0.081 C 
ATOM      4  C   UNL     1      36.362 -22.483 -16.231  0.00  0.00    +0.033 C 
ATOM      5  C   UNL     1      37.247 -21.452 -18.230  0.00  0.00    +0.000 C 
ATOM      6  C   UNL     1      37.411 -21.856 -16.905  0.00  0.00    +0.006 C 
ENDROOT
BRANCH   1  10
ATOM      7  F   UNL     1      33.049 -23.676 -18.491  0.00  0.00    -0.166 F 
ATOM      8  F   UNL     1      32.776 -21.535 -18.717  0.00  0.00    -0.166 F 
ATOM      9  F   UNL     1      33.825 -22.663 -20.251  0.00  0.00    -0.166 F 
ATOM     10  C   UNL     1      33.679 -22.539 -18.902  0.00  0.00    +0.419 C 
ENDBRANCH   1  10
BRANCH   3  14
ATOM     11  F   UNL     1      34.182 -23.459 -14.830  0.00  0.00    -0.166 F 
ATOM     12  F   UNL     1      32.817 -22.735 -16.352  0.00  0.00    -0.166 F 
ATOM     13  F   UNL     1      33.812 -24.651 -16.609  0.00  0.00    -0.166 F 
ATOM     14  C   UNL     1      34.009 -23.374 -16.179  0.00  0.00    +0.419 C 
ENDBRANCH   3  14
BRANCH   2  16
ATOM     15  C   UNL     1      35.515 -20.014 -20.632  0.00  0.00    +0.058 C 
ATOM     16  C   UNL     1      35.898 -21.237 -20.265  0.00  0.00    +0.005 C 
BRANCH  15  24
ATOM     17  O   UNL     1      35.285 -15.790 -23.459  0.00  0.00    -0.350 OA
ATOM     18  O   UNL     1      35.142 -20.669 -22.825  0.00  0.00    -0.270 OA
ATOM     19  N   UNL     1      35.632 -18.421 -22.500  0.00  0.00    -0.271 N 
ATOM     20  C   UNL     1      35.693 -18.132 -23.933  0.00  0.00    +0.126 C 
ATOM     21  C   UNL     1      35.958 -17.265 -21.654  0.00  0.00    +0.126 C 
ATOM     22  C   UNL     1      34.861 -16.898 -24.257  0.00  0.00    +0.164 C 
ATOM     23  C   UNL     1      35.114 -16.063 -22.065  0.00  0.00    +0.164 C 
ATOM     24  C   UNL     1      35.414 -19.728 -22.076  0.00  0.00    +0.249 C 
ENDBRANCH  15  24
ENDBRANCH   2  16
BRANCH   4  25
ATOM     25  S   UNL     1      36.629 -22.982 -14.534  0.00  0.00    -0.087 S 
BRANCH  25  26
ATOM     26  C   UNL     1      37.335 -24.605 -14.761  0.00  0.00    +0.031 C 
ATOM     27  C   UNL     1      38.680 -24.825 -14.473  0.00  0.00    +0.021 C 
ATOM     28  C   UNL     1      36.538 -25.649 -15.228  0.00  0.00    +0.007 C 
ATOM     29  C   UNL     1      39.231 -26.094 -14.652  0.00  0.00    +0.042 C 
ATOM     30  C   UNL     1      37.088 -26.918 -15.406  0.00  0.00    +0.002 C 
ATOM     31  C   UNL     1      38.435 -27.140 -15.119  0.00  0.00    +0.014 C 
BRANCH  29  32
ATOM     32  N   UNL     1      40.592 -26.320 -14.362  0.00  0.00    -0.357 N 
ATOM     33  H   UNL     1      41.262 -26.280 -15.082  0.00  0.00    +0.142 HD
ATOM     34  H   UNL     1      40.873 -26.518 -13.439  0.00  0.00    +0.142 HD
ENDBRANCH  29  32
ENDBRANCH  25  26
ENDBRANCH   4  25
TORSDOF 7
ENDMDL
MODEL 7
REMARK VINA RESULT:     -10.0      5.088      9.537
REMARK  Name = 11712628
REMARK  7 active torsions:
REMARK  status: ('A' for Active; 'I' for Inactive)
REMARK    1  A    between atoms: C_1  and  C_10
REMARK    2  A    between atoms: C_2  and  C_16
REMARK    3  A    between atoms: C_3  and  C_14
REMARK    4  A    between atoms: C_4  and  S_25
REMARK    5  A    between atoms: C_15  and  C_24
REMARK    6  A    between atoms: S_25  and  C_26
REMARK    7  A    between atoms: C_29  and  N_32
REMARK                            x       y       z     vdW  Elec       q    Type
REMARK                         _______ _______ _______ _____ _____    ______ ____
ROOT
ATOM      1  C   UNL     1      35.595 -20.761 -20.213  0.00  0.00    +0.076 C 
ATOM      2  C   UNL     1      34.298 -21.207 -20.010  0.00  0.00    +0.004 C 
ATOM      3  C   UNL     1      35.864 -19.891 -21.269  0.00  0.00    +0.081 C 
ATOM      4  C   UNL     1      34.831 -19.476 -22.111  0.00  0.00    +0.033 C 
ATOM      5  C   UNL     1      33.262 -20.803 -20.839  0.00  0.00    +0.000 C 
ATOM      6  C   UNL     1      33.531 -19.932 -21.895  0.00  0.00    +0.006 C 
ENDROOT
BRANCH   1  10
ATOM      7  F   UNL     1      37.579 -22.064 -19.911  0.00  0.00    -0.166 F 
ATOM      8  F   UNL     1      37.474 -20.172 -18.854  0.00  0.00    -0.166 F 
ATOM      9  F   UNL     1      36.252 -21.848 -18.202  0.00  0.00    -0.166 F 
ATOM     10  C   UNL     1      36.708 -21.203 -19.312  0.00  0.00    +0.419 C 
ENDBRANCH   1  10
BRANCH   3  14
ATOM     11  F   UNL     1      37.469 -18.858 -22.710  0.00  0.00    -0.166 F 
ATOM     12  F   UNL     1      37.655 -18.462 -20.586  0.00  0.00    -0.166 F 
ATOM     13  F   UNL     1      38.180 -20.419 -21.374  0.00  0.00    -0.166 F 
ATOM     14  C   UNL     1      37.268 -19.414 -21.482  0.00  0.00    +0.419 C 
ENDBRANCH   3  14
BRANCH   2  16
ATOM     15  C   UNL     1      32.782 -22.211 -18.321  0.00  0.00    +0.058 C 
ATOM     16  C   UNL     1      33.978 -22.126 -18.904  0.00  0.00    +0.005 C 
BRANCH  15  24
ATOM     17  O   UNL     1      28.946 -23.596 -15.280  0.00  0.00    -0.350 OA
ATOM     18  O   UNL     1      33.645 -23.675 -16.742  0.00  0.00    -0.270 OA
ATOM     19  N   UNL     1      31.331 -23.462 -16.780  0.00  0.00    -0.271 N 
ATOM     20  C   UNL     1      31.125 -24.524 -15.796  0.00  0.00    +0.126 C 
ATOM     21  C   UNL     1      30.081 -22.899 -17.307  0.00  0.00    +0.126 C 
ATOM     22  C   UNL     1      30.173 -24.053 -14.705  0.00  0.00    +0.164 C 
ATOM     23  C   UNL     1      29.169 -22.488 -16.156  0.00  0.00    +0.164 C 
ATOM     24  C   UNL     1      32.622 -23.176 -17.216  0.00  0.00    +0.249 C 
ENDBRANCH  15  24
ENDBRANCH   2  16
BRANCH   4  25
ATOM     25  S   UNL     1      35.118 -18.363 -23.482  0.00  0.00    -0.087 S 
BRANCH  25  26
ATOM     26  C   UNL     1      34.968 -16.779 -22.673  0.00  0.00    +0.031 C 
ATOM     27  C   UNL     1      34.887 -15.614 -23.434  0.00  0.00    +0.021 C 
ATOM     28  C   UNL     1      34.933 -16.711 -21.282  0.00  0.00    +0.007 C 
ATOM     29  C   UNL     1      34.771 -14.377 -22.801  0.00  0.00    +0.042 C 
ATOM     30  C   UNL     1      34.817 -15.473 -20.648  0.00  0.00    +0.002 C 
ATOM     31  C   UNL     1      34.736 -14.307 -21.409  0.00  0.00    +0.014 C 
BRANCH  29  32
ATOM     32  N   UNL     1      34.689 -13.197 -23.568  0.00  0.00    -0.357 N 
ATOM     33  H   UNL     1      35.483 -12.625 -23.678  0.00  0.00    +0.142 HD
ATOM     34  H   UNL     1      33.838 -12.943 -23.994  0.00  0.00    +0.142 HD
ENDBRANCH  29  32
ENDBRANCH  25  26
ENDBRANCH   4  25
TORSDOF 7
ENDMDL
MODEL 8
REMARK VINA RESULT:      -9.7      6.597      9.329
REMARK  Name = 11712628
REMARK  7 active torsions:
REMARK  status: ('A' for Active; 'I' for Inactive)
REMARK    1  A    between atoms: C_1  and  C_10
REMARK    2  A    between atoms: C_2  and  C_16
REMARK    3  A    between atoms: C_3  and  C_14
REMARK    4  A    between atoms: C_4  and  S_25
REMARK    5  A    between atoms: C_15  and  C_24
REMARK    6  A    between atoms: S_25  and  C_26
REMARK    7  A    between atoms: C_29  and  N_32
REMARK                            x       y       z     vdW  Elec       q    Type
REMARK                         _______ _______ _______ _____ _____    ______ ____
ROOT
ATOM      1  C   UNL     1      35.339 -22.110 -18.408  0.00  0.00    +0.076 C 
ATOM      2  C   UNL     1      36.507 -21.423 -18.700  0.00  0.00    +0.004 C 
ATOM      3  C   UNL     1      35.174 -22.679 -17.146  0.00  0.00    +0.081 C 
ATOM      4  C   UNL     1      36.181 -22.554 -16.188  0.00  0.00    +0.033 C 
ATOM      5  C   UNL     1      37.516 -21.291 -17.758  0.00  0.00    +0.000 C 
ATOM      6  C   UNL     1      37.352 -21.859 -16.494  0.00  0.00    +0.006 C 
ENDROOT
BRANCH   1  10
ATOM      7  F   UNL     1      34.612 -21.791 -20.666  0.00  0.00    -0.166 F 
ATOM      8  F   UNL     1      33.852 -23.537 -19.625  0.00  0.00    -0.166 F 
ATOM      9  F   UNL     1      33.129 -21.556 -19.093  0.00  0.00    -0.166 F 
ATOM     10  C   UNL     1      34.253 -22.248 -19.432  0.00  0.00    +0.419 C 
ENDBRANCH   1  10
BRANCH   3  14
ATOM     11  F   UNL     1      33.840 -23.859 -15.550  0.00  0.00    -0.166 F 
ATOM     12  F   UNL     1      32.786 -22.670 -17.025  0.00  0.00    -0.166 F 
ATOM     13  F   UNL     1      33.752 -24.525 -17.618  0.00  0.00    -0.166 F 
ATOM     14  C   UNL     1      33.909 -23.419 -16.838  0.00  0.00    +0.419 C 
ENDBRANCH   3  14
BRANCH   2  16
ATOM     15  C   UNL     1      37.025 -19.527 -20.216  0.00  0.00    +0.058 C 
ATOM     16  C   UNL     1      36.714 -20.809 -20.023  0.00  0.00    +0.005 C 
BRANCH  15  24
ATOM     17  O   UNL     1      33.945 -19.025 -24.234  0.00  0.00    -0.350 OA
ATOM     18  O   UNL     1      38.339 -18.902 -22.021  0.00  0.00    -0.270 OA
ATOM     19  N   UNL     1      36.042 -18.826 -22.356  0.00  0.00    -0.271 N 
ATOM     20  C   UNL     1      36.163 -18.216 -23.681  0.00  0.00    +0.126 C 
ATOM     21  C   UNL     1      34.651 -18.996 -21.914  0.00  0.00    +0.126 C 
ATOM     22  C   UNL     1      35.300 -18.968 -24.687  0.00  0.00    +0.164 C 
ATOM     23  C   UNL     1      33.847 -19.720 -22.987  0.00  0.00    +0.164 C 
ATOM     24  C   UNL     1      37.190 -19.059 -21.606  0.00  0.00    +0.249 C 
ENDBRANCH  15  24
ENDBRANCH   2  16
BRANCH   4  25
ATOM     25  S   UNL     1      36.025 -23.263 -14.553  0.00  0.00    -0.087 S 
BRANCH  25  26
ATOM     26  C   UNL     1      36.947 -24.779 -14.749  0.00  0.00    +0.031 C 
ATOM     27  C   UNL     1      38.273 -24.847 -14.324  0.00  0.00    +0.021 C 
ATOM     28  C   UNL     1      36.339 -25.891 -15.328  0.00  0.00    +0.007 C 
ATOM     29  C   UNL     1      38.992 -26.031 -14.478  0.00  0.00    +0.042 C 
ATOM     30  C   UNL     1      37.058 -27.076 -15.482  0.00  0.00    +0.002 C 
ATOM     31  C   UNL     1      38.385 -27.146 -15.057  0.00  0.00    +0.014 C 
BRANCH  29  32
ATOM     32  N   UNL     1      40.333 -26.104 -14.050  0.00  0.00    -0.357 N 
ATOM     33  H   UNL     1      40.538 -26.287 -13.104  0.00  0.00    +0.142 HD
ATOM     34  H   UNL     1      41.065 -25.971 -14.695  0.00  0.00    +0.142 HD
ENDBRANCH  29  32
ENDBRANCH  25  26
ENDBRANCH   4  25
TORSDOF 7
ENDMDL
MODEL 9
REMARK VINA RESULT:      -9.7      4.316      9.809
REMARK  Name = 11712628
REMARK  7 active torsions:
REMARK  status: ('A' for Active; 'I' for Inactive)
REMARK    1  A    between atoms: C_1  and  C_10
REMARK    2  A    between atoms: C_2  and  C_16
REMARK    3  A    between atoms: C_3  and  C_14
REMARK    4  A    between atoms: C_4  and  S_25
REMARK    5  A    between atoms: C_15  and  C_24
REMARK    6  A    between atoms: S_25  and  C_26
REMARK    7  A    between atoms: C_29  and  N_32
REMARK                            x       y       z     vdW  Elec       q    Type
REMARK                         _______ _______ _______ _____ _____    ______ ____
ROOT
ATOM      1  C   UNL     1      32.660 -11.971 -22.068  0.00  0.00    +0.076 C 
ATOM      2  C   UNL     1      33.154 -12.120 -23.355  0.00  0.00    +0.004 C 
ATOM      3  C   UNL     1      32.359 -10.695 -21.591  0.00  0.00    +0.081 C 
ATOM      4  C   UNL     1      32.556  -9.582 -22.408  0.00  0.00    +0.033 C 
ATOM      5  C   UNL     1      33.354 -11.021 -24.178  0.00  0.00    +0.000 C 
ATOM      6  C   UNL     1      33.053  -9.745 -23.702  0.00  0.00    +0.006 C 
ENDROOT
BRANCH   1  10
ATOM      7  F   UNL     1      31.353 -13.051 -20.379  0.00  0.00    -0.166 F 
ATOM      8  F   UNL     1      32.269 -14.324 -21.879  0.00  0.00    -0.166 F 
ATOM      9  F   UNL     1      33.501 -13.387 -20.352  0.00  0.00    -0.166 F 
ATOM     10  C   UNL     1      32.446 -13.164 -21.185  0.00  0.00    +0.419 C 
ENDBRANCH   1  10
BRANCH   3  14
ATOM     11  F   UNL     1      32.527 -11.253 -19.271  0.00  0.00    -0.166 F 
ATOM     12  F   UNL     1      31.837  -9.254 -19.755  0.00  0.00    -0.166 F 
ATOM     13  F   UNL     1      30.534 -10.962 -20.091  0.00  0.00    -0.166 F 
ATOM     14  C   UNL     1      31.826 -10.543 -20.200  0.00  0.00    +0.419 C 
ENDBRANCH   3  14
BRANCH   2  16
ATOM     15  C   UNL     1      34.691 -14.010 -23.826  0.00  0.00    +0.058 C 
ATOM     16  C   UNL     1      33.482 -13.452 -23.890  0.00  0.00    +0.005 C 
BRANCH  15  24
ATOM     17  O   UNL     1      35.948 -18.605 -22.039  0.00  0.00    -0.350 OA
ATOM     18  O   UNL     1      34.903 -15.428 -25.649  0.00  0.00    -0.270 OA
ATOM     19  N   UNL     1      34.971 -16.437 -23.558  0.00  0.00    -0.271 N 
ATOM     20  C   UNL     1      34.988 -17.792 -24.111  0.00  0.00    +0.126 C 
ATOM     21  C   UNL     1      34.931 -16.404 -22.090  0.00  0.00    +0.126 C 
ATOM     22  C   UNL     1      36.095 -18.612 -23.461  0.00  0.00    +0.164 C 
ATOM     23  C   UNL     1      36.043 -17.276 -21.517  0.00  0.00    +0.164 C 
ATOM     24  C   UNL     1      34.864 -15.350 -24.419  0.00  0.00    +0.249 C 
ENDBRANCH  15  24
ENDBRANCH   2  16
BRANCH   4  25
ATOM     25  S   UNL     1      32.188  -7.922 -21.850  0.00  0.00    -0.087 S 
BRANCH  25  26
ATOM     26  C   UNL     1      33.033  -6.950 -23.085  0.00  0.00    +0.031 C 
ATOM     27  C   UNL     1      32.373  -5.893 -23.709  0.00  0.00    +0.021 C 
ATOM     28  C   UNL     1      34.349  -7.253 -23.425  0.00  0.00    +0.007 C 
ATOM     29  C   UNL     1      33.033  -5.134 -24.675  0.00  0.00    +0.042 C 
ATOM     30  C   UNL     1      35.011  -6.494 -24.391  0.00  0.00    +0.002 C 
ATOM     31  C   UNL     1      34.352  -5.435 -25.016  0.00  0.00    +0.014 C 
BRANCH  29  32
ATOM     32  N   UNL     1      32.369  -4.063 -25.307  0.00  0.00    -0.357 N 
ATOM     33  H   UNL     1      32.886  -3.392 -25.810  0.00  0.00    +0.142 HD
ATOM     34  H   UNL     1      31.390  -3.986 -25.247  0.00  0.00    +0.142 HD
ENDBRANCH  29  32
ENDBRANCH  25  26
ENDBRANCH   4  25
TORSDOF 7
ENDMDL
