MODEL 1
REMARK VINA RESULT:     -11.5      0.000      0.000
REMARK  Name = 115368
REMARK  5 active torsions:
REMARK  status: ('A' for Active; 'I' for Inactive)
REMARK    1  A    between atoms: N_2  and  C_17
REMARK    2  A    between atoms: C_17  and  C_18
REMARK    3  A    between atoms: C_18  and  C_19
REMARK    4  A    between atoms: C_19  and  C_20
REMARK    5  A    between atoms: C_20  and  N_23
REMARK                            x       y       z     vdW  Elec       q    Type
REMARK                         _______ _______ _______ _____ _____    ______ ____
ROOT
ATOM      1  S   UNL     1      34.068 -15.801 -26.076  0.00  0.00    +0.014 S 
ATOM      2  N   UNL     1      36.251 -20.072 -21.514  0.00  0.00    +0.389 N 
ATOM      3  N   UNL     1      35.431 -18.075 -23.387  0.00  0.00    -0.297 N 
ATOM      4  N   UNL     1      34.627 -17.238 -25.472  0.00  0.00    -0.194 NA
ATOM      5  C   UNL     1      36.714 -18.685 -21.380  0.00  0.00    -0.055 C 
ATOM      6  C   UNL     1      34.904 -20.101 -22.099  0.00  0.00    -0.055 C 
ATOM      7  C   UNL     1      36.742 -17.975 -22.736  0.00  0.00    +0.069 C 
ATOM      8  C   UNL     1      34.901 -19.441 -23.479  0.00  0.00    +0.069 C 
ATOM      9  C   UNL     1      34.937 -17.067 -24.185  0.00  0.00    +0.140 A 
ATOM     10  C   UNL     1      34.733 -15.755 -23.633  0.00  0.00    +0.040 A 
ATOM     11  C   UNL     1      34.228 -14.903 -24.617  0.00  0.00    +0.050 A 
ATOM     12  C   UNL     1      34.950 -15.233 -22.338  0.00  0.00    +0.003 C 
ATOM     13  C   UNL     1      33.933 -13.556 -24.360  0.00  0.00    +0.008 C 
ATOM     14  C   UNL     1      34.659 -13.893 -22.072  0.00  0.00    +0.000 C 
ATOM     15  C   UNL     1      34.157 -13.066 -23.072  0.00  0.00    +0.001 C 
ATOM     16  H   UNL     1      36.888 -20.570 -22.136  0.00  0.00    -0.080 HD
ENDROOT
BRANCH   2  17
ATOM     17  C   UNL     1      36.262 -20.745 -20.215  0.00  0.00    -0.077 C 
BRANCH  17  18
ATOM     18  C   UNL     1      34.925 -21.441 -19.966  0.00  0.00    -0.021 C 
BRANCH  18  19
ATOM     19  C   UNL     1      35.011 -22.390 -18.766  0.00  0.00    +0.020 C 
BRANCH  19  20
ATOM     20  C   UNL     1      33.774 -23.271 -18.626  0.00  0.00    +0.101 C 
BRANCH  20  23
ATOM     21  O   UNL     1      34.922 -24.295 -16.099  0.00  0.00    -0.274 OA
ATOM     22  O   UNL     1      31.184 -22.171 -17.801  0.00  0.00    -0.274 OA
ATOM     23  N   UNL     1      33.212 -23.226 -17.291  0.00  0.00    -0.230 N 
ATOM     24  C   UNL     1      33.028 -23.256 -14.979  0.00  0.00    +0.086 C 
ATOM     25  C   UNL     1      31.634 -23.047 -15.584  0.00  0.00    +0.086 C 
ATOM     26  C   UNL     1      33.104 -24.176 -13.768  0.00  0.00    +0.010 C 
ATOM     27  C   UNL     1      30.733 -24.285 -15.556  0.00  0.00    +0.010 C 
ATOM     28  C   UNL     1      32.225 -25.414 -13.891  0.00  0.00    +0.001 C 
ATOM     29  C   UNL     1      30.791 -25.029 -14.230  0.00  0.00    +0.001 C 
ATOM     30  C   UNL     1      33.859 -23.698 -16.165  0.00  0.00    +0.231 C 
ATOM     31  C   UNL     1      31.954 -22.719 -17.025  0.00  0.00    +0.231 C 
ENDBRANCH  20  23
ENDBRANCH  19  20
ENDBRANCH  18  19
ENDBRANCH  17  18
ENDBRANCH   2  17
TORSDOF 5
ENDMDL
MODEL 2
REMARK VINA RESULT:     -11.1      2.858      5.233
REMARK  Name = 115368
REMARK  5 active torsions:
REMARK  status: ('A' for Active; 'I' for Inactive)
REMARK    1  A    between atoms: N_2  and  C_17
REMARK    2  A    between atoms: C_17  and  C_18
REMARK    3  A    between atoms: C_18  and  C_19
REMARK    4  A    between atoms: C_19  and  C_20
REMARK    5  A    between atoms: C_20  and  N_23
REMARK                            x       y       z     vdW  Elec       q    Type
REMARK                         _______ _______ _______ _____ _____    ______ ____
ROOT
ATOM      1  S   UNL     1      32.741  -9.959 -23.542  0.00  0.00    +0.014 S 
ATOM      2  N   UNL     1      34.954 -16.116 -24.551  0.00  0.00    +0.389 N 
ATOM      3  N   UNL     1      34.040 -13.486 -23.903  0.00  0.00    -0.297 N 
ATOM      4  N   UNL     1      33.553 -11.185 -24.304  0.00  0.00    -0.194 NA
ATOM      5  C   UNL     1      34.916 -15.660 -23.156  0.00  0.00    -0.055 C 
ATOM      6  C   UNL     1      33.870 -15.488 -25.319  0.00  0.00    -0.055 C 
ATOM      7  C   UNL     1      35.053 -14.137 -23.065  0.00  0.00    +0.069 C 
ATOM      8  C   UNL     1      34.000 -13.965 -25.290  0.00  0.00    +0.069 C 
ATOM      9  C   UNL     1      33.468 -12.284 -23.551  0.00  0.00    +0.140 A 
ATOM     10  C   UNL     1      32.739 -12.175 -22.316  0.00  0.00    +0.040 A 
ATOM     11  C   UNL     1      32.251 -10.875 -22.170  0.00  0.00    +0.050 A 
ATOM     12  C   UNL     1      32.458 -13.117 -21.301  0.00  0.00    +0.003 C 
ATOM     13  C   UNL     1      31.499 -10.480 -21.054  0.00  0.00    +0.008 C 
ATOM     14  C   UNL     1      31.709 -12.733 -20.186  0.00  0.00    +0.000 C 
ATOM     15  C   UNL     1      31.237 -11.431 -20.065  0.00  0.00    +0.001 C 
ATOM     16  H   UNL     1      35.846 -15.838 -24.961  0.00  0.00    -0.080 HD
ENDROOT
BRANCH   2  17
ATOM     17  C   UNL     1      34.855 -17.574 -24.619  0.00  0.00    -0.077 C 
BRANCH  17  18
ATOM     18  C   UNL     1      35.632 -18.213 -23.469  0.00  0.00    -0.021 C 
BRANCH  18  19
ATOM     19  C   UNL     1      34.857 -19.387 -22.863  0.00  0.00    +0.020 C 
BRANCH  19  20
ATOM     20  C   UNL     1      34.683 -19.258 -21.354  0.00  0.00    +0.101 C 
BRANCH  20  23
ATOM     21  O   UNL     1      32.717 -21.172 -20.245  0.00  0.00    -0.274 OA
ATOM     22  O   UNL     1      37.267 -20.469 -20.678  0.00  0.00    -0.274 OA
ATOM     23  N   UNL     1      34.925 -20.508 -20.661  0.00  0.00    -0.230 N 
ATOM     24  C   UNL     1      34.610 -22.624 -19.764  0.00  0.00    +0.086 C 
ATOM     25  C   UNL     1      36.037 -22.160 -19.448  0.00  0.00    +0.086 C 
ATOM     26  C   UNL     1      33.886 -23.376 -18.654  0.00  0.00    +0.010 C 
ATOM     27  C   UNL     1      36.256 -21.706 -18.001  0.00  0.00    +0.010 C 
ATOM     28  C   UNL     1      34.116 -22.782 -17.271  0.00  0.00    +0.001 C 
ATOM     29  C   UNL     1      35.605 -22.633 -16.985  0.00  0.00    +0.001 C 
ATOM     30  C   UNL     1      33.924 -21.354 -20.221  0.00  0.00    +0.231 C 
ATOM     31  C   UNL     1      36.195 -20.961 -20.356  0.00  0.00    +0.231 C 
ENDBRANCH  20  23
ENDBRANCH  19  20
ENDBRANCH  18  19
ENDBRANCH  17  18
ENDBRANCH   2  17
TORSDOF 5
ENDMDL
MODEL 3
REMARK VINA RESULT:     -11.1      1.922      2.561
REMARK  Name = 115368
REMARK  5 active torsions:
REMARK  status: ('A' for Active; 'I' for Inactive)
REMARK    1  A    between atoms: N_2  and  C_17
REMARK    2  A    between atoms: C_17  and  C_18
REMARK    3  A    between atoms: C_18  and  C_19
REMARK    4  A    between atoms: C_19  and  C_20
REMARK    5  A    between atoms: C_20  and  N_23
REMARK                            x       y       z     vdW  Elec       q    Type
REMARK                         _______ _______ _______ _____ _____    ______ ____
ROOT
ATOM      1  S   UNL     1      34.207 -14.918 -26.566  0.00  0.00    +0.014 S 
ATOM      2  N   UNL     1      35.543 -19.667 -22.152  0.00  0.00    +0.389 N 
ATOM      3  N   UNL     1      35.060 -17.475 -23.921  0.00  0.00    -0.297 N 
ATOM      4  N   UNL     1      34.682 -16.408 -26.022  0.00  0.00    -0.194 NA
ATOM      5  C   UNL     1      35.913 -18.300 -21.767  0.00  0.00    -0.055 C 
ATOM      6  C   UNL     1      34.352 -19.646 -23.012  0.00  0.00    -0.055 C 
ATOM      7  C   UNL     1      36.199 -17.434 -22.998  0.00  0.00    +0.069 C 
ATOM      8  C   UNL     1      34.614 -18.827 -24.277  0.00  0.00    +0.069 C 
ATOM      9  C   UNL     1      34.706 -16.387 -24.687  0.00  0.00    +0.140 A 
ATOM     10  C   UNL     1      34.340 -15.152 -24.048  0.00  0.00    +0.040 A 
ATOM     11  C   UNL     1      34.021 -14.196 -25.015  0.00  0.00    +0.050 A 
ATOM     12  C   UNL     1      34.258 -14.784 -22.686  0.00  0.00    +0.003 C 
ATOM     13  C   UNL     1      33.626 -12.893 -24.677  0.00  0.00    +0.008 C 
ATOM     14  C   UNL     1      33.866 -13.488 -22.339  0.00  0.00    +0.000 C 
ATOM     15  C   UNL     1      33.554 -12.556 -23.323  0.00  0.00    +0.001 C 
ATOM     16  H   UNL     1      36.315 -20.079 -22.676  0.00  0.00    -0.080 HD
ENDROOT
BRANCH   2  17
ATOM     17  C   UNL     1      35.306 -20.489 -20.966  0.00  0.00    -0.077 C 
BRANCH  17  18
ATOM     18  C   UNL     1      33.815 -20.530 -20.636  0.00  0.00    -0.021 C 
BRANCH  18  19
ATOM     19  C   UNL     1      33.513 -21.588 -19.570  0.00  0.00    +0.020 C 
BRANCH  19  20
ATOM     20  C   UNL     1      34.671 -22.558 -19.362  0.00  0.00    +0.101 C 
BRANCH  20  23
ATOM     21  O   UNL     1      37.249 -21.948 -18.044  0.00  0.00    -0.274 OA
ATOM     22  O   UNL     1      33.007 -23.565 -17.168  0.00  0.00    -0.274 OA
ATOM     23  N   UNL     1      35.030 -22.698 -17.965  0.00  0.00    -0.230 N 
ATOM     24  C   UNL     1      36.130 -22.437 -15.939  0.00  0.00    +0.086 C 
ATOM     25  C   UNL     1      34.970 -23.421 -15.750  0.00  0.00    +0.086 C 
ATOM     26  C   UNL     1      37.424 -22.775 -15.209  0.00  0.00    +0.010 C 
ATOM     27  C   UNL     1      35.387 -24.892 -15.655  0.00  0.00    +0.010 C 
ATOM     28  C   UNL     1      37.775 -24.256 -15.252  0.00  0.00    +0.001 C 
ATOM     29  C   UNL     1      36.607 -25.105 -14.770  0.00  0.00    +0.001 C 
ATOM     30  C   UNL     1      36.260 -22.337 -17.445  0.00  0.00    +0.231 C 
ATOM     31  C   UNL     1      34.173 -23.229 -17.021  0.00  0.00    +0.231 C 
ENDBRANCH  20  23
ENDBRANCH  19  20
ENDBRANCH  18  19
ENDBRANCH  17  18
ENDBRANCH   2  17
TORSDOF 5
ENDMDL
MODEL 4
REMARK VINA RESULT:     -10.8      0.762      1.819
REMARK  Name = 115368
REMARK  5 active torsions:
REMARK  status: ('A' for Active; 'I' for Inactive)
REMARK    1  A    between atoms: N_2  and  C_17
REMARK    2  A    between atoms: C_17  and  C_18
REMARK    3  A    between atoms: C_18  and  C_19
REMARK    4  A    between atoms: C_19  and  C_20
REMARK    5  A    between atoms: C_20  and  N_23
REMARK                            x       y       z     vdW  Elec       q    Type
REMARK                         _______ _______ _______ _____ _____    ______ ____
ROOT
ATOM      1  S   UNL     1      34.143 -15.555 -26.283  0.00  0.00    +0.014 S 
ATOM      2  N   UNL     1      36.020 -19.956 -21.709  0.00  0.00    +0.389 N 
ATOM      3  N   UNL     1      35.326 -17.906 -23.575  0.00  0.00    -0.297 N 
ATOM      4  N   UNL     1      34.662 -17.009 -25.684  0.00  0.00    -0.194 NA
ATOM      5  C   UNL     1      36.473 -18.575 -21.505  0.00  0.00    -0.055 C 
ATOM      6  C   UNL     1      34.715 -19.968 -22.384  0.00  0.00    -0.055 C 
ATOM      7  C   UNL     1      36.590 -17.826 -22.836  0.00  0.00    +0.069 C 
ATOM      8  C   UNL     1      34.804 -19.268 -23.741  0.00  0.00    +0.069 C 
ATOM      9  C   UNL     1      34.885 -16.876 -24.375  0.00  0.00    +0.140 A 
ATOM     10  C   UNL     1      34.644 -15.579 -23.801  0.00  0.00    +0.040 A 
ATOM     11  C   UNL     1      34.204 -14.699 -24.792  0.00  0.00    +0.050 A 
ATOM     12  C   UNL     1      34.773 -15.095 -22.480  0.00  0.00    +0.003 C 
ATOM     13  C   UNL     1      33.891 -13.359 -24.517  0.00  0.00    +0.008 C 
ATOM     14  C   UNL     1      34.463 -13.762 -22.196  0.00  0.00    +0.000 C 
ATOM     15  C   UNL     1      34.029 -12.906 -23.203  0.00  0.00    +0.001 C 
ATOM     16  H   UNL     1      36.697 -20.437 -22.301  0.00  0.00    -0.080 HD
ENDROOT
BRANCH   2  17
ATOM     17  C   UNL     1      35.945 -20.666 -20.432  0.00  0.00    -0.077 C 
BRANCH  17  18
ATOM     18  C   UNL     1      34.533 -21.203 -20.205  0.00  0.00    -0.021 C 
BRANCH  18  19
ATOM     19  C   UNL     1      34.565 -22.556 -19.487  0.00  0.00    +0.020 C 
BRANCH  19  20
ATOM     20  C   UNL     1      34.877 -22.423 -18.000  0.00  0.00    +0.101 C 
BRANCH  20  23
ATOM     21  O   UNL     1      31.921 -22.298 -17.949  0.00  0.00    -0.274 OA
ATOM     22  O   UNL     1      35.510 -24.404 -15.931  0.00  0.00    -0.274 OA
ATOM     23  N   UNL     1      33.952 -23.172 -17.172  0.00  0.00    -0.230 N 
ATOM     24  C   UNL     1      32.007 -24.167 -16.393  0.00  0.00    +0.086 C 
ATOM     25  C   UNL     1      33.143 -24.458 -15.404  0.00  0.00    +0.086 C 
ATOM     26  C   UNL     1      30.647 -23.857 -15.781  0.00  0.00    +0.010 C 
ATOM     27  C   UNL     1      33.097 -23.629 -14.116  0.00  0.00    +0.010 C 
ATOM     28  C   UNL     1      30.724 -22.960 -14.554  0.00  0.00    +0.001 C 
ATOM     29  C   UNL     1      31.698 -23.527 -13.529  0.00  0.00    +0.001 C 
ATOM     30  C   UNL     1      32.577 -23.067 -17.263  0.00  0.00    +0.231 C 
ATOM     31  C   UNL     1      34.368 -24.053 -16.192  0.00  0.00    +0.231 C 
ENDBRANCH  20  23
ENDBRANCH  19  20
ENDBRANCH  18  19
ENDBRANCH  17  18
ENDBRANCH   2  17
TORSDOF 5
ENDMDL
MODEL 5
REMARK VINA RESULT:     -10.7      4.243     10.212
REMARK  Name = 115368
REMARK  5 active torsions:
REMARK  status: ('A' for Active; 'I' for Inactive)
REMARK    1  A    between atoms: N_2  and  C_17
REMARK    2  A    between atoms: C_17  and  C_18
REMARK    3  A    between atoms: C_18  and  C_19
REMARK    4  A    between atoms: C_19  and  C_20
REMARK    5  A    between atoms: C_20  and  N_23
REMARK                            x       y       z     vdW  Elec       q    Type
REMARK                         _______ _______ _______ _____ _____    ______ ____
ROOT
ATOM      1  S   UNL     1      37.174 -20.936 -19.454  0.00  0.00    +0.014 S 
ATOM      2  N   UNL     1      35.071 -17.394 -24.636  0.00  0.00    +0.389 N 
ATOM      3  N   UNL     1      35.836 -19.078 -22.456  0.00  0.00    -0.297 N 
ATOM      4  N   UNL     1      37.291 -19.947 -20.777  0.00  0.00    -0.194 NA
ATOM      5  C   UNL     1      34.389 -18.673 -24.403  0.00  0.00    -0.055 C 
ATOM      6  C   UNL     1      35.510 -16.815 -23.359  0.00  0.00    -0.055 C 
ATOM      7  C   UNL     1      35.305 -19.670 -23.689  0.00  0.00    +0.069 C 
ATOM      8  C   UNL     1      36.466 -17.765 -22.636  0.00  0.00    +0.069 C 
ATOM      9  C   UNL     1      36.083 -19.835 -21.333  0.00  0.00    +0.140 A 
ATOM     10  C   UNL     1      35.006 -20.554 -20.706  0.00  0.00    +0.040 A 
ATOM     11  C   UNL     1      35.487 -21.245 -19.592  0.00  0.00    +0.050 A 
ATOM     12  C   UNL     1      33.633 -20.658 -21.021  0.00  0.00    +0.003 C 
ATOM     13  C   UNL     1      34.654 -22.035 -18.785  0.00  0.00    +0.008 C 
ATOM     14  C   UNL     1      32.795 -21.441 -20.223  0.00  0.00    +0.000 C 
ATOM     15  C   UNL     1      33.301 -22.121 -19.120  0.00  0.00    +0.001 C 
ATOM     16  H   UNL     1      35.893 -17.564 -25.216  0.00  0.00    -0.080 HD
ENDROOT
BRANCH   2  17
ATOM     17  C   UNL     1      34.194 -16.465 -25.348  0.00  0.00    -0.077 C 
BRANCH  17  18
ATOM     18  C   UNL     1      34.659 -15.026 -25.134  0.00  0.00    -0.021 C 
BRANCH  18  19
ATOM     19  C   UNL     1      33.578 -14.193 -24.436  0.00  0.00    +0.020 C 
BRANCH  19  20
ATOM     20  C   UNL     1      34.114 -13.429 -23.230  0.00  0.00    +0.101 C 
BRANCH  20  23
ATOM     21  O   UNL     1      33.547 -10.570 -23.744  0.00  0.00    -0.274 OA
ATOM     22  O   UNL     1      32.176 -14.144 -21.149  0.00  0.00    -0.274 OA
ATOM     23  N   UNL     1      33.108 -12.581 -22.622  0.00  0.00    -0.230 N 
ATOM     24  C   UNL     1      31.630 -10.829 -22.266  0.00  0.00    +0.086 C 
ATOM     25  C   UNL     1      31.533 -11.806 -21.089  0.00  0.00    +0.086 C 
ATOM     26  C   UNL     1      31.566  -9.347 -21.917  0.00  0.00    +0.010 C 
ATOM     27  C   UNL     1      32.222 -11.332 -19.805  0.00  0.00    +0.010 C 
ATOM     28  C   UNL     1      32.356  -8.985 -20.667  0.00  0.00    +0.001 C 
ATOM     29  C   UNL     1      31.951  -9.867 -19.494  0.00  0.00    +0.001 C 
ATOM     30  C   UNL     1      32.898 -11.260 -22.972  0.00  0.00    +0.231 C 
ATOM     31  C   UNL     1      32.272 -13.017 -21.612  0.00  0.00    +0.231 C 
ENDBRANCH  20  23
ENDBRANCH  19  20
ENDBRANCH  18  19
ENDBRANCH  17  18
ENDBRANCH   2  17
TORSDOF 5
ENDMDL
MODEL 6
REMARK VINA RESULT:     -10.5      4.714     11.012
REMARK  Name = 115368
REMARK  5 active torsions:
REMARK  status: ('A' for Active; 'I' for Inactive)
REMARK    1  A    between atoms: N_2  and  C_17
REMARK    2  A    between atoms: C_17  and  C_18
REMARK    3  A    between atoms: C_18  and  C_19
REMARK    4  A    between atoms: C_19  and  C_20
REMARK    5  A    between atoms: C_20  and  N_23
REMARK                            x       y       z     vdW  Elec       q    Type
REMARK                         _______ _______ _______ _____ _____    ______ ____
ROOT
ATOM      1  S   UNL     1      36.574 -24.764 -12.425  0.00  0.00    +0.014 S 
ATOM      2  N   UNL     1      35.238 -22.047 -18.311  0.00  0.00    +0.389 N 
ATOM      3  N   UNL     1      36.023 -23.159 -15.798  0.00  0.00    -0.297 N 
ATOM      4  N   UNL     1      35.721 -23.898 -13.550  0.00  0.00    -0.194 NA
ATOM      5  C   UNL     1      36.643 -22.021 -17.888  0.00  0.00    -0.055 C 
ATOM      6  C   UNL     1      34.570 -23.243 -17.780  0.00  0.00    -0.055 C 
ATOM      7  C   UNL     1      36.764 -22.026 -16.361  0.00  0.00    +0.069 C 
ATOM      8  C   UNL     1      34.630 -23.259 -16.252  0.00  0.00    +0.069 C 
ATOM      9  C   UNL     1      36.449 -23.817 -14.665  0.00  0.00    +0.140 A 
ATOM     10  C   UNL     1      37.737 -24.456 -14.653  0.00  0.00    +0.040 A 
ATOM     11  C   UNL     1      37.954 -25.055 -13.411  0.00  0.00    +0.050 A 
ATOM     12  C   UNL     1      38.744 -24.565 -15.638  0.00  0.00    +0.003 C 
ATOM     13  C   UNL     1      39.133 -25.755 -13.114  0.00  0.00    +0.008 C 
ATOM     14  C   UNL     1      39.922 -25.260 -15.352  0.00  0.00    +0.000 C 
ATOM     15  C   UNL     1      40.113 -25.846 -14.105  0.00  0.00    +0.001 C 
ATOM     16  H   UNL     1      34.770 -21.220 -17.938  0.00  0.00    -0.080 HD
ENDROOT
BRANCH   2  17
ATOM     17  C   UNL     1      35.139 -22.008 -19.770  0.00  0.00    -0.077 C 
BRANCH  17  18
ATOM     18  C   UNL     1      36.420 -21.437 -20.375  0.00  0.00    -0.021 C 
BRANCH  18  19
ATOM     19  C   UNL     1      36.249 -19.958 -20.737  0.00  0.00    +0.020 C 
BRANCH  19  20
ATOM     20  C   UNL     1      35.018 -19.705 -21.602  0.00  0.00    +0.101 C 
BRANCH  20  23
ATOM     21  O   UNL     1      35.248 -16.768 -21.330  0.00  0.00    -0.274 OA
ATOM     22  O   UNL     1      35.354 -20.151 -24.481  0.00  0.00    -0.274 OA
ATOM     23  N   UNL     1      35.261 -18.716 -22.633  0.00  0.00    -0.230 N 
ATOM     24  C   UNL     1      35.856 -16.737 -23.687  0.00  0.00    +0.086 C 
ATOM     25  C   UNL     1      35.384 -17.740 -24.746  0.00  0.00    +0.086 C 
ATOM     26  C   UNL     1      35.420 -15.291 -23.889  0.00  0.00    +0.010 C 
ATOM     27  C   UNL     1      33.979 -17.475 -25.297  0.00  0.00    +0.010 C 
ATOM     28  C   UNL     1      33.978 -15.153 -24.360  0.00  0.00    +0.001 C 
ATOM     29  C   UNL     1      33.729 -16.005 -25.598  0.00  0.00    +0.001 C 
ATOM     30  C   UNL     1      35.396 -17.362 -22.387  0.00  0.00    +0.231 C 
ATOM     31  C   UNL     1      35.360 -19.039 -23.973  0.00  0.00    +0.231 C 
ENDBRANCH  20  23
ENDBRANCH  19  20
ENDBRANCH  18  19
ENDBRANCH  17  18
ENDBRANCH   2  17
TORSDOF 5
ENDMDL
MODEL 7
REMARK VINA RESULT:     -10.4      2.040      3.043
REMARK  Name = 115368
REMARK  5 active torsions:
REMARK  status: ('A' for Active; 'I' for Inactive)
REMARK    1  A    between atoms: N_2  and  C_17
REMARK    2  A    between atoms: C_17  and  C_18
REMARK    3  A    between atoms: C_18  and  C_19
REMARK    4  A    between atoms: C_19  and  C_20
REMARK    5  A    between atoms: C_20  and  N_23
REMARK                            x       y       z     vdW  Elec       q    Type
REMARK                         _______ _______ _______ _____ _____    ______ ____
ROOT
ATOM      1  S   UNL     1      34.287 -15.259 -26.488  0.00  0.00    +0.014 S 
ATOM      2  N   UNL     1      35.624 -19.844 -21.904  0.00  0.00    +0.389 N 
ATOM      3  N   UNL     1      35.153 -17.721 -23.758  0.00  0.00    -0.297 N 
ATOM      4  N   UNL     1      34.722 -16.741 -25.891  0.00  0.00    -0.194 NA
ATOM      5  C   UNL     1      36.070 -18.478 -21.606  0.00  0.00    -0.055 C 
ATOM      6  C   UNL     1      34.396 -19.812 -22.711  0.00  0.00    -0.055 C 
ATOM      7  C   UNL     1      36.334 -17.686 -22.890  0.00  0.00    +0.069 C 
ATOM      8  C   UNL     1      34.634 -19.067 -24.025  0.00  0.00    +0.069 C 
ATOM      9  C   UNL     1      34.810 -16.656 -24.562  0.00  0.00    +0.140 A 
ATOM     10  C   UNL     1      34.527 -15.376 -23.970  0.00  0.00    +0.040 A 
ATOM     11  C   UNL     1      34.204 -14.456 -24.969  0.00  0.00    +0.050 A 
ATOM     12  C   UNL     1      34.525 -14.940 -22.626  0.00  0.00    +0.003 C 
ATOM     13  C   UNL     1      33.881 -13.121 -24.680  0.00  0.00    +0.008 C 
ATOM     14  C   UNL     1      34.205 -13.613 -22.328  0.00  0.00    +0.000 C 
ATOM     15  C   UNL     1      33.888 -12.716 -23.343  0.00  0.00    +0.001 C 
ATOM     16  H   UNL     1      36.353 -20.316 -22.441  0.00  0.00    -0.080 HD
ENDROOT
BRANCH   2  17
ATOM     17  C   UNL     1      35.408 -20.597 -20.669  0.00  0.00    -0.077 C 
BRANCH  17  18
ATOM     18  C   UNL     1      36.726 -20.768 -19.914  0.00  0.00    -0.021 C 
BRANCH  18  19
ATOM     19  C   UNL     1      36.662 -21.961 -18.955  0.00  0.00    +0.020 C 
BRANCH  19  20
ATOM     20  C   UNL     1      36.832 -21.550 -17.496  0.00  0.00    +0.101 C 
BRANCH  20  23
ATOM     21  O   UNL     1      34.334 -22.824 -16.550  0.00  0.00    -0.274 OA
ATOM     22  O   UNL     1      38.932 -23.059 -16.113  0.00  0.00    -0.274 OA
ATOM     23  N   UNL     1      36.672 -22.667 -16.586  0.00  0.00    -0.230 N 
ATOM     24  C   UNL     1      35.753 -24.477 -15.464  0.00  0.00    +0.086 C 
ATOM     25  C   UNL     1      37.167 -24.229 -14.928  0.00  0.00    +0.086 C 
ATOM     26  C   UNL     1      34.699 -24.857 -14.431  0.00  0.00    +0.010 C 
ATOM     27  C   UNL     1      37.222 -23.554 -13.554  0.00  0.00    +0.010 C 
ATOM     28  C   UNL     1      34.805 -24.062 -13.137  0.00  0.00    +0.001 C 
ATOM     29  C   UNL     1      36.217 -24.134 -12.570  0.00  0.00    +0.001 C 
ATOM     30  C   UNL     1      35.450 -23.215 -16.244  0.00  0.00    +0.231 C 
ATOM     31  C   UNL     1      37.739 -23.277 -15.954  0.00  0.00    +0.231 C 
ENDBRANCH  20  23
ENDBRANCH  19  20
ENDBRANCH  18  19
ENDBRANCH  17  18
ENDBRANCH   2  17
TORSDOF 5
ENDMDL
MODEL 8
REMARK VINA RESULT:     -10.3      3.855     10.950
REMARK  Name = 115368
REMARK  5 active torsions:
REMARK  status: ('A' for Active; 'I' for Inactive)
REMARK    1  A    between atoms: N_2  and  C_17
REMARK    2  A    between atoms: C_17  and  C_18
REMARK    3  A    between atoms: C_18  and  C_19
REMARK    4  A    between atoms: C_19  and  C_20
REMARK    5  A    between atoms: C_20  and  N_23
REMARK                            x       y       z     vdW  Elec       q    Type
REMARK                         _______ _______ _______ _____ _____    ______ ____
ROOT
ATOM      1  S   UNL     1      35.475 -24.366 -15.071  0.00  0.00    +0.014 S 
ATOM      2  N   UNL     1      34.903 -21.042 -20.767  0.00  0.00    +0.389 N 
ATOM      3  N   UNL     1      34.948 -22.554 -18.342  0.00  0.00    -0.297 N 
ATOM      4  N   UNL     1      35.947 -23.746 -16.532  0.00  0.00    -0.194 NA
ATOM      5  C   UNL     1      33.726 -21.809 -20.341  0.00  0.00    -0.055 C 
ATOM      6  C   UNL     1      35.641 -20.555 -19.593  0.00  0.00    -0.055 C 
ATOM      7  C   UNL     1      34.126 -23.003 -19.470  0.00  0.00    +0.069 C 
ATOM      8  C   UNL     1      36.098 -21.724 -18.721  0.00  0.00    +0.069 C 
ATOM      9  C   UNL     1      34.892 -23.168 -17.110  0.00  0.00    +0.140 A 
ATOM     10  C   UNL     1      33.649 -23.206 -16.388  0.00  0.00    +0.040 A 
ATOM     11  C   UNL     1      33.829 -23.873 -15.175  0.00  0.00    +0.050 A 
ATOM     12  C   UNL     1      32.364 -22.705 -16.696  0.00  0.00    +0.003 C 
ATOM     13  C   UNL     1      32.781 -24.060 -14.261  0.00  0.00    +0.008 C 
ATOM     14  C   UNL     1      31.314 -22.886 -15.792  0.00  0.00    +0.000 C 
ATOM     15  C   UNL     1      31.521 -23.556 -14.591  0.00  0.00    +0.001 C 
ATOM     16  H   UNL     1      35.515 -21.655 -21.305  0.00  0.00    -0.080 HD
ENDROOT
BRANCH   2  17
ATOM     17  C   UNL     1      34.507 -19.925 -21.625  0.00  0.00    -0.077 C 
BRANCH  17  18
ATOM     18  C   UNL     1      35.740 -19.255 -22.228  0.00  0.00    -0.021 C 
BRANCH  18  19
ATOM     19  C   UNL     1      35.374 -18.446 -23.477  0.00  0.00    +0.020 C 
BRANCH  19  20
ATOM     20  C   UNL     1      35.955 -17.036 -23.452  0.00  0.00    +0.101 C 
BRANCH  20  23
ATOM     21  O   UNL     1      35.072 -16.432 -26.211  0.00  0.00    -0.274 OA
ATOM     22  O   UNL     1      34.475 -15.097 -21.824  0.00  0.00    -0.274 OA
ATOM     23  N   UNL     1      35.003 -16.039 -23.902  0.00  0.00    -0.230 N 
ATOM     24  C   UNL     1      33.470 -14.894 -25.213  0.00  0.00    +0.086 C 
ATOM     25  C   UNL     1      33.661 -14.133 -23.896  0.00  0.00    +0.086 C 
ATOM     26  C   UNL     1      33.346 -14.042 -26.470  0.00  0.00    +0.010 C 
ATOM     27  C   UNL     1      34.522 -12.871 -24.005  0.00  0.00    +0.010 C 
ATOM     28  C   UNL     1      34.309 -12.863 -26.500  0.00  0.00    +0.001 C 
ATOM     29  C   UNL     1      34.188 -12.032 -25.230  0.00  0.00    +0.001 C 
ATOM     30  C   UNL     1      34.627 -15.871 -25.221  0.00  0.00    +0.231 C 
ATOM     31  C   UNL     1      34.396 -15.143 -23.043  0.00  0.00    +0.231 C 
ENDBRANCH  20  23
ENDBRANCH  19  20
ENDBRANCH  18  19
ENDBRANCH  17  18
ENDBRANCH   2  17
TORSDOF 5
ENDMDL
MODEL 9
REMARK VINA RESULT:     -10.2      3.740     10.228
REMARK  Name = 115368
REMARK  5 active torsions:
REMARK  status: ('A' for Active; 'I' for Inactive)
REMARK    1  A    between atoms: N_2  and  C_17
REMARK    2  A    between atoms: C_17  and  C_18
REMARK    3  A    between atoms: C_18  and  C_19
REMARK    4  A    between atoms: C_19  and  C_20
REMARK    5  A    between atoms: C_20  and  N_23
REMARK                            x       y       z     vdW  Elec       q    Type
REMARK                         _______ _______ _______ _____ _____    ______ ____
ROOT
ATOM      1  S   UNL     1      35.243 -24.610 -14.717  0.00  0.00    +0.014 S 
ATOM      2  N   UNL     1      35.545 -21.295 -20.438  0.00  0.00    +0.389 N 
ATOM      3  N   UNL     1      35.212 -22.787 -18.023  0.00  0.00    -0.297 N 
ATOM      4  N   UNL     1      35.915 -24.042 -16.120  0.00  0.00    -0.194 NA
ATOM      5  C   UNL     1      34.272 -21.961 -20.140  0.00  0.00    -0.055 C 
ATOM      6  C   UNL     1      36.193 -20.860 -19.193  0.00  0.00    -0.055 C 
ATOM      7  C   UNL     1      34.479 -23.177 -19.232  0.00  0.00    +0.069 C 
ATOM      8  C   UNL     1      36.460 -22.056 -18.278  0.00  0.00    +0.069 C 
ATOM      9  C   UNL     1      34.977 -23.385 -16.806  0.00  0.00    +0.140 A 
ATOM     10  C   UNL     1      33.666 -23.317 -16.218  0.00  0.00    +0.040 A 
ATOM     11  C   UNL     1      33.663 -23.987 -14.993  0.00  0.00    +0.050 A 
ATOM     12  C   UNL     1      32.466 -22.717 -16.659  0.00  0.00    +0.003 C 
ATOM     13  C   UNL     1      32.513 -24.082 -14.195  0.00  0.00    +0.008 C 
ATOM     14  C   UNL     1      31.315 -22.805 -15.872  0.00  0.00    +0.000 C 
ATOM     15  C   UNL     1      31.340 -23.479 -14.656  0.00  0.00    +0.001 C 
ATOM     16  H   UNL     1      36.159 -21.960 -20.910  0.00  0.00    -0.080 HD
ENDROOT
BRANCH   2  17
ATOM     17  C   UNL     1      35.334 -20.157 -21.332  0.00  0.00    -0.077 C 
BRANCH  17  18
ATOM     18  C   UNL     1      36.586 -19.283 -21.386  0.00  0.00    -0.021 C 
BRANCH  18  19
ATOM     19  C   UNL     1      36.729 -18.606 -22.753  0.00  0.00    +0.020 C 
BRANCH  19  20
ATOM     20  C   UNL     1      35.396 -18.111 -23.304  0.00  0.00    +0.101 C 
BRANCH  20  23
ATOM     21  O   UNL     1      34.908 -16.568 -20.827  0.00  0.00    -0.274 OA
ATOM     22  O   UNL     1      35.420 -16.054 -25.394  0.00  0.00    -0.274 OA
ATOM     23  N   UNL     1      35.229 -16.680 -23.146  0.00  0.00    -0.230 N 
ATOM     24  C   UNL     1      35.145 -14.567 -22.193  0.00  0.00    +0.086 C 
ATOM     25  C   UNL     1      34.798 -14.453 -23.682  0.00  0.00    +0.086 C 
ATOM     26  C   UNL     1      34.331 -13.695 -21.244  0.00  0.00    +0.010 C 
ATOM     27  C   UNL     1      33.308 -14.252 -23.978  0.00  0.00    +0.010 C 
ATOM     28  C   UNL     1      32.851 -13.639 -21.593  0.00  0.00    +0.001 C 
ATOM     29  C   UNL     1      32.652 -13.240 -23.050  0.00  0.00    +0.001 C 
ATOM     30  C   UNL     1      35.050 -16.054 -21.926  0.00  0.00    +0.231 C 
ATOM     31  C   UNL     1      35.215 -15.805 -24.215  0.00  0.00    +0.231 C 
ENDBRANCH  20  23
ENDBRANCH  19  20
ENDBRANCH  18  19
ENDBRANCH  17  18
ENDBRANCH   2  17
TORSDOF 5
ENDMDL
