MODEL 1
REMARK VINA RESULT:     -11.7      0.000      0.000
REMARK  Name = 97226
REMARK  3 active torsions:
REMARK  status: ('A' for Active; 'I' for Inactive)
REMARK    1  A    between atoms: C_6  and  O_24
REMARK    2  A    between atoms: C_6  and  C_28
REMARK    3  A    between atoms: C_22  and  O_26
REMARK                            x       y       z     vdW  Elec       q    Type
REMARK                         _______ _______ _______ _____ _____    ______ ____
ROOT
ATOM      1  O   UNL     1      35.978 -25.432 -14.380  0.00  0.00    -0.442 OA
ATOM      2  O   UNL     1      32.871 -24.041 -16.895  0.00  0.00    -0.270 OA
ATOM      3  O   UNL     1      38.204 -25.676 -14.207  0.00  0.00    -0.247 OA
ATOM      4  N   UNL     1      34.346 -22.698 -18.064  0.00  0.00    -0.249 N 
ATOM      5  N   UNL     1      36.641 -20.576 -19.845  0.00  0.00    -0.405 NA
ATOM      6  C   UNL     1      37.421 -23.647 -15.258  0.00  0.00    +0.196 C 
ATOM      7  C   UNL     1      36.330 -23.348 -16.249  0.00  0.00    +0.017 C 
ATOM      8  C   UNL     1      35.611 -22.152 -18.205  0.00  0.00    +0.084 C 
ATOM      9  C   UNL     1      35.107 -23.881 -16.080  0.00  0.00    +0.074 C 
ATOM     10  C   UNL     1      33.441 -22.225 -19.132  0.00  0.00    +0.128 C 
ATOM     11  C   UNL     1      36.596 -22.434 -17.350  0.00  0.00    +0.016 C 
ATOM     12  C   UNL     1      34.332 -21.326 -19.925  0.00  0.00    +0.029 C 
ATOM     13  C   UNL     1      35.606 -21.285 -19.376  0.00  0.00    +0.142 C 
ATOM     14  C   UNL     1      33.993 -23.560 -17.042  0.00  0.00    +0.252 C 
ATOM     15  C   UNL     1      34.811 -24.788 -14.935  0.00  0.00    +0.239 C 
ATOM     16  C   UNL     1      37.246 -25.005 -14.589  0.00  0.00    +0.346 C 
ATOM     17  C   UNL     1      34.080 -20.579 -21.052  0.00  0.00    +0.002 C 
ATOM     18  C   UNL     1      35.127 -19.814 -21.588  0.00  0.00    +0.029 C 
ATOM     19  C   UNL     1      36.400 -19.841 -20.950  0.00  0.00    +0.114 C 
ATOM     20  C   UNL     1      34.933 -19.031 -22.737  0.00  0.00    +0.038 C 
ATOM     21  C   UNL     1      37.423 -19.074 -21.500  0.00  0.00    +0.088 C 
ATOM     22  C   UNL     1      35.979 -18.275 -23.262  0.00  0.00    +0.130 C 
ATOM     23  C   UNL     1      37.222 -18.297 -22.644  0.00  0.00    +0.018 C 
ENDROOT
BRANCH   6  24
ATOM     24  O   UNL     1      38.676 -23.743 -15.938  0.00  0.00    -0.373 OA
ATOM     25  H   UNL     1      38.795 -22.966 -16.507  0.00  0.00    +0.211 HD
ENDBRANCH   6  24
BRANCH  22  26
ATOM     26  O   UNL     1      35.783 -17.520 -24.376  0.00  0.00    -0.506 OA
ATOM     27  H   UNL     1      35.413 -17.906 -25.145  0.00  0.00    +0.292 HD
ENDBRANCH  22  26
BRANCH   6  28
ATOM     28  C   UNL     1      37.522 -22.564 -14.182  0.00  0.00    +0.042 C 
ATOM     29  C   UNL     1      37.392 -23.155 -12.793  0.00  0.00    +0.003 C 
ENDBRANCH   6  28
TORSDOF 3
ENDMDL
MODEL 2
REMARK VINA RESULT:      -9.7      2.347      4.409
REMARK  Name = 97226
REMARK  3 active torsions:
REMARK  status: ('A' for Active; 'I' for Inactive)
REMARK    1  A    between atoms: C_6  and  O_24
REMARK    2  A    between atoms: C_6  and  C_28
REMARK    3  A    between atoms: C_22  and  O_26
REMARK                            x       y       z     vdW  Elec       q    Type
REMARK                         _______ _______ _______ _____ _____    ______ ____
ROOT
ATOM      1  O   UNL     1      32.175 -24.860 -13.020  0.00  0.00    -0.442 OA
ATOM      2  O   UNL     1      36.005 -24.361 -14.751  0.00  0.00    -0.270 OA
ATOM      3  O   UNL     1      30.078 -24.059 -12.987  0.00  0.00    -0.247 OA
ATOM      4  N   UNL     1      35.104 -23.210 -16.542  0.00  0.00    -0.249 N 
ATOM      5  N   UNL     1      33.686 -21.464 -19.350  0.00  0.00    -0.405 NA
ATOM      6  C   UNL     1      31.175 -24.116 -15.138  0.00  0.00    +0.196 C 
ATOM      7  C   UNL     1      32.568 -23.787 -15.599  0.00  0.00    +0.017 C 
ATOM      8  C   UNL     1      33.994 -22.770 -17.244  0.00  0.00    +0.084 C 
ATOM      9  C   UNL     1      33.628 -24.239 -14.906  0.00  0.00    +0.074 C 
ATOM     10  C   UNL     1      36.354 -22.798 -17.213  0.00  0.00    +0.128 C 
ATOM     11  C   UNL     1      32.753 -23.030 -16.828  0.00  0.00    +0.016 C 
ATOM     12  C   UNL     1      35.844 -22.057 -18.405  0.00  0.00    +0.029 C 
ATOM     13  C   UNL     1      34.456 -22.044 -18.419  0.00  0.00    +0.142 C 
ATOM     14  C   UNL     1      35.030 -23.950 -15.376  0.00  0.00    +0.252 C 
ATOM     15  C   UNL     1      33.452 -25.048 -13.667  0.00  0.00    +0.239 C 
ATOM     16  C   UNL     1      31.093 -24.322 -13.630  0.00  0.00    +0.346 C 
ATOM     17  C   UNL     1      36.516 -21.426 -19.425  0.00  0.00    +0.002 C 
ATOM     18  C   UNL     1      35.760 -20.801 -20.430  0.00  0.00    +0.029 C 
ATOM     19  C   UNL     1      34.339 -20.844 -20.353  0.00  0.00    +0.114 C 
ATOM     20  C   UNL     1      36.388 -20.141 -21.499  0.00  0.00    +0.038 C 
ATOM     21  C   UNL     1      33.612 -20.217 -21.361  0.00  0.00    +0.088 C 
ATOM     22  C   UNL     1      35.630 -19.524 -22.490  0.00  0.00    +0.130 C 
ATOM     23  C   UNL     1      34.244 -19.562 -22.422  0.00  0.00    +0.018 C 
ENDROOT
BRANCH   6  24
ATOM     24  O   UNL     1      30.308 -23.008 -15.395  0.00  0.00    -0.373 OA
ATOM     25  H   UNL     1      30.684 -22.461 -16.102  0.00  0.00    +0.211 HD
ENDBRANCH   6  24
BRANCH  22  26
ATOM     26  O   UNL     1      36.245 -18.885 -23.522  0.00  0.00    -0.506 OA
ATOM     27  H   UNL     1      35.992 -19.069 -24.405  0.00  0.00    +0.292 HD
ENDBRANCH  22  26
BRANCH   6  28
ATOM     28  C   UNL     1      30.621 -25.354 -15.846  0.00  0.00    +0.042 C 
ATOM     29  C   UNL     1      29.204 -25.123 -16.330  0.00  0.00    +0.003 C 
ENDBRANCH   6  28
TORSDOF 3
ENDMDL
MODEL 3
REMARK VINA RESULT:      -9.6      4.125      6.388
REMARK  Name = 97226
REMARK  3 active torsions:
REMARK  status: ('A' for Active; 'I' for Inactive)
REMARK    1  A    between atoms: C_6  and  O_24
REMARK    2  A    between atoms: C_6  and  C_28
REMARK    3  A    between atoms: C_22  and  O_26
REMARK                            x       y       z     vdW  Elec       q    Type
REMARK                         _______ _______ _______ _____ _____    ______ ____
ROOT
ATOM      1  O   UNL     1      39.238 -24.392 -13.387  0.00  0.00    -0.442 OA
ATOM      2  O   UNL     1      37.484 -22.705 -16.849  0.00  0.00    -0.270 OA
ATOM      3  O   UNL     1      38.835 -25.026 -11.271  0.00  0.00    -0.247 OA
ATOM      4  N   UNL     1      35.366 -23.289 -16.126  0.00  0.00    -0.249 N 
ATOM      5  N   UNL     1      32.081 -24.246 -15.015  0.00  0.00    -0.405 NA
ATOM      6  C   UNL     1      37.085 -25.461 -12.876  0.00  0.00    +0.196 C 
ATOM      7  C   UNL     1      36.501 -24.669 -14.014  0.00  0.00    +0.017 C 
ATOM      8  C   UNL     1      34.552 -23.954 -15.225  0.00  0.00    +0.084 C 
ATOM      9  C   UNL     1      37.315 -24.044 -14.883  0.00  0.00    +0.074 C 
ATOM     10  C   UNL     1      34.565 -22.620 -17.172  0.00  0.00    +0.128 C 
ATOM     11  C   UNL     1      35.057 -24.636 -14.194  0.00  0.00    +0.016 C 
ATOM     12  C   UNL     1      33.170 -22.975 -16.776  0.00  0.00    +0.029 C 
ATOM     13  C   UNL     1      33.167 -23.760 -15.631  0.00  0.00    +0.142 C 
ATOM     14  C   UNL     1      36.747 -23.277 -16.049  0.00  0.00    +0.252 C 
ATOM     15  C   UNL     1      38.797 -24.101 -14.731  0.00  0.00    +0.239 C 
ATOM     16  C   UNL     1      38.443 -24.932 -12.433  0.00  0.00    +0.346 C 
ATOM     17  C   UNL     1      31.964 -22.653 -17.352  0.00  0.00    +0.002 C 
ATOM     18  C   UNL     1      30.791 -23.136 -16.750  0.00  0.00    +0.029 C 
ATOM     19  C   UNL     1      30.896 -23.934 -15.576  0.00  0.00    +0.114 C 
ATOM     20  C   UNL     1      29.529 -22.842 -17.291  0.00  0.00    +0.038 C 
ATOM     21  C   UNL     1      29.719 -24.401 -14.997  0.00  0.00    +0.088 C 
ATOM     22  C   UNL     1      28.372 -23.325 -16.686  0.00  0.00    +0.130 C 
ATOM     23  C   UNL     1      28.467 -24.104 -15.541  0.00  0.00    +0.018 C 
ENDROOT
BRANCH   6  24
ATOM     24  O   UNL     1      36.254 -25.328 -11.720  0.00  0.00    -0.373 OA
ATOM     25  H   UNL     1      36.796 -25.419 -10.921  0.00  0.00    +0.211 HD
ENDBRANCH   6  24
BRANCH  22  26
ATOM     26  O   UNL     1      27.153 -23.035 -17.215  0.00  0.00    -0.506 OA
ATOM     27  H   UNL     1      26.999 -23.155 -18.132  0.00  0.00    +0.292 HD
ENDBRANCH  22  26
BRANCH   6  28
ATOM     28  C   UNL     1      37.212 -26.945 -13.227  0.00  0.00    +0.042 C 
ATOM     29  C   UNL     1      37.236 -27.155 -14.727  0.00  0.00    +0.003 C 
ENDBRANCH   6  28
TORSDOF 3
ENDMDL
