MODEL 1
REMARK VINA RESULT:     -11.5      0.000      0.000
REMARK  Name = 4413
REMARK  6 active torsions:
REMARK  status: ('A' for Active; 'I' for Inactive)
REMARK    1  A    between atoms: O_1  and  C_9
REMARK    2  A    between atoms: O_1  and  C_19
REMARK    3  A    between atoms: C_6  and  C_14
REMARK    4  A    between atoms: C_19  and  C_20
REMARK    5  A    between atoms: C_23  and  N_26
REMARK    6  A    between atoms: N_26  and  C_29
REMARK                            x       y       z     vdW  Elec       q    Type
REMARK                         _______ _______ _______ _____ _____    ______ ____
ROOT
ATOM      1  O   UNL     1      32.854 -22.889 -18.501  0.00  0.00    -0.421 OA
ENDROOT
BRANCH   1   9
ATOM      2  C   UNL     1      33.979 -23.876 -14.609  0.00  0.00    +0.000 C 
ATOM      3  C   UNL     1      34.947 -23.403 -15.527  0.00  0.00    +0.003 C 
ATOM      4  C   UNL     1      34.374 -24.203 -13.302  0.00  0.00    +0.003 C 
ATOM      5  C   UNL     1      34.551 -23.075 -16.834  0.00  0.00    +0.038 C 
ATOM      6  C   UNL     1      35.704 -24.066 -12.905  0.00  0.00    +0.031 C 
ATOM      7  C   UNL     1      36.281 -23.271 -15.110  0.00  0.00    +0.000 C 
ATOM      8  C   UNL     1      32.644 -24.008 -15.026  0.00  0.00    +0.003 C 
ATOM      9  C   UNL     1      33.221 -23.212 -17.231  0.00  0.00    +0.149 C 
ATOM     10  C   UNL     1      36.656 -23.601 -13.807  0.00  0.00    +0.003 C 
ATOM     11  C   UNL     1      32.269 -23.677 -16.328  0.00  0.00    +0.038 C 
BRANCH   6  14
ATOM     12  N   UNL     1      37.155 -23.761 -10.913  0.00  0.00    -0.343 N 
ATOM     13  N   UNL     1      35.448 -25.358 -10.895  0.00  0.00    -0.285 NA
ATOM     14  C   UNL     1      36.097 -24.410 -11.548  0.00  0.00    +0.117 C 
ATOM     15  H   UNL     1      37.403 -24.010  -9.993  0.00  0.00    +0.144 HD
ATOM     16  H   UNL     1      37.652 -23.054 -11.383  0.00  0.00    +0.144 HD
ATOM     17  H   UNL     1      35.713 -25.592  -9.976  0.00  0.00    +0.188 HD
ENDBRANCH   6  14
ENDBRANCH   1   9
BRANCH   1  19
ATOM     18  O   UNL     1      34.144 -24.267 -19.866  0.00  0.00    -0.244 OA
ATOM     19  C   UNL     1      33.826 -23.157 -19.467  0.00  0.00    +0.346 C 
BRANCH  19  20
ATOM     20  C   UNL     1      34.440 -21.904 -19.976  0.00  0.00    +0.076 C 
ATOM     21  C   UNL     1      33.629 -20.953 -20.560  0.00  0.00    +0.008 C 
ATOM     22  C   UNL     1      35.803 -21.730 -19.846  0.00  0.00    +0.008 C 
ATOM     23  C   UNL     1      35.581 -19.574 -20.917  0.00  0.00    +0.084 C 
ATOM     24  C   UNL     1      34.206 -19.776 -21.035  0.00  0.00    +0.019 C 
ATOM     25  C   UNL     1      36.380 -20.552 -20.322  0.00  0.00    +0.019 C 
BRANCH  23  26
ATOM     26  N   UNL     1      36.159 -18.395 -21.395  0.00  0.00    -0.214 NA
BRANCH  26  29
ATOM     27  N   UNL     1      36.161 -18.194 -23.722  0.00  0.00    -0.370 N 
ATOM     28  N   UNL     1      38.153 -18.679 -22.720  0.00  0.00    -0.370 N 
ATOM     29  C   UNL     1      36.812 -18.426 -22.533  0.00  0.00    +0.193 C 
ATOM     30  H   UNL     1      35.196 -18.000 -23.726  0.00  0.00    +0.159 HD
ATOM     31  H   UNL     1      36.662 -18.220 -24.570  0.00  0.00    +0.159 HD
ATOM     32  H   UNL     1      38.732 -18.861 -21.945  0.00  0.00    +0.159 HD
ATOM     33  H   UNL     1      38.533 -18.675 -23.629  0.00  0.00    +0.159 HD
ENDBRANCH  26  29
ENDBRANCH  23  26
ENDBRANCH  19  20
ENDBRANCH   1  19
TORSDOF 6
ENDMDL
MODEL 2
REMARK VINA RESULT:     -11.2      2.261      8.381
REMARK  Name = 4413
REMARK  6 active torsions:
REMARK  status: ('A' for Active; 'I' for Inactive)
REMARK    1  A    between atoms: O_1  and  C_9
REMARK    2  A    between atoms: O_1  and  C_19
REMARK    3  A    between atoms: C_6  and  C_14
REMARK    4  A    between atoms: C_19  and  C_20
REMARK    5  A    between atoms: C_23  and  N_26
REMARK    6  A    between atoms: N_26  and  C_29
REMARK                            x       y       z     vdW  Elec       q    Type
REMARK                         _______ _______ _______ _____ _____    ______ ____
ROOT
ATOM      1  O   UNL     1      34.298 -23.731 -18.116  0.00  0.00    -0.421 OA
ENDROOT
BRANCH   1   9
ATOM      2  C   UNL     1      34.394 -20.381 -20.597  0.00  0.00    +0.000 C 
ATOM      3  C   UNL     1      35.603 -20.958 -20.140  0.00  0.00    +0.003 C 
ATOM      4  C   UNL     1      34.443 -19.253 -21.432  0.00  0.00    +0.003 C 
ATOM      5  C   UNL     1      35.552 -22.086 -19.306  0.00  0.00    +0.038 C 
ATOM      6  C   UNL     1      35.667 -18.702 -21.812  0.00  0.00    +0.031 C 
ATOM      7  C   UNL     1      36.825 -20.391 -20.533  0.00  0.00    +0.000 C 
ATOM      8  C   UNL     1      33.170 -20.948 -20.204  0.00  0.00    +0.003 C 
ATOM      9  C   UNL     1      34.328 -22.637 -18.925  0.00  0.00    +0.149 C 
ATOM     10  C   UNL     1      36.857 -19.270 -21.364  0.00  0.00    +0.003 C 
ATOM     11  C   UNL     1      33.140 -22.069 -19.374  0.00  0.00    +0.038 C 
BRANCH   6  14
ATOM     12  N   UNL     1      35.348 -16.271 -22.205  0.00  0.00    -0.343 N 
ATOM     13  N   UNL     1      36.072 -17.661 -23.940  0.00  0.00    -0.285 NA
ATOM     14  C   UNL     1      35.702 -17.534 -22.677  0.00  0.00    +0.117 C 
ATOM     15  H   UNL     1      35.379 -15.494 -22.809  0.00  0.00    +0.144 HD
ATOM     16  H   UNL     1      35.067 -16.157 -21.269  0.00  0.00    +0.144 HD
ATOM     17  H   UNL     1      36.096 -16.870 -24.527  0.00  0.00    +0.188 HD
ENDBRANCH   6  14
ENDBRANCH   1   9
BRANCH   1  19
ATOM     18  O   UNL     1      33.215 -22.976 -16.196  0.00  0.00    -0.244 OA
ATOM     19  C   UNL     1      34.199 -23.438 -16.755  0.00  0.00    +0.346 C 
BRANCH  19  20
ATOM     20  C   UNL     1      35.458 -23.771 -16.040  0.00  0.00    +0.076 C 
ATOM     21  C   UNL     1      35.574 -25.003 -15.430  0.00  0.00    +0.008 C 
ATOM     22  C   UNL     1      36.473 -22.837 -16.009  0.00  0.00    +0.008 C 
ATOM     23  C   UNL     1      37.798 -24.390 -14.716  0.00  0.00    +0.084 C 
ATOM     24  C   UNL     1      36.756 -25.315 -14.761  0.00  0.00    +0.019 C 
ATOM     25  C   UNL     1      37.657 -23.150 -15.339  0.00  0.00    +0.019 C 
BRANCH  23  26
ATOM     26  N   UNL     1      38.983 -24.702 -14.044  0.00  0.00    -0.214 NA
BRANCH  26  29
ATOM     27  N   UNL     1      40.450 -26.518 -13.946  0.00  0.00    -0.370 N 
ATOM     28  N   UNL     1      40.304 -25.407 -15.934  0.00  0.00    -0.370 N 
ATOM     29  C   UNL     1      39.859 -25.483 -14.632  0.00  0.00    +0.193 C 
ATOM     30  H   UNL     1      40.216 -26.681 -13.004  0.00  0.00    +0.159 HD
ATOM     31  H   UNL     1      41.105 -27.098 -14.398  0.00  0.00    +0.159 HD
ATOM     32  H   UNL     1      39.957 -24.707 -16.532  0.00  0.00    +0.159 HD
ATOM     33  H   UNL     1      40.968 -26.054 -16.266  0.00  0.00    +0.159 HD
ENDBRANCH  26  29
ENDBRANCH  23  26
ENDBRANCH  19  20
ENDBRANCH   1  19
TORSDOF 6
ENDMDL
MODEL 3
REMARK VINA RESULT:     -11.1      4.580     11.061
REMARK  Name = 4413
REMARK  6 active torsions:
REMARK  status: ('A' for Active; 'I' for Inactive)
REMARK    1  A    between atoms: O_1  and  C_9
REMARK    2  A    between atoms: O_1  and  C_19
REMARK    3  A    between atoms: C_6  and  C_14
REMARK    4  A    between atoms: C_19  and  C_20
REMARK    5  A    between atoms: C_23  and  N_26
REMARK    6  A    between atoms: N_26  and  C_29
REMARK                            x       y       z     vdW  Elec       q    Type
REMARK                         _______ _______ _______ _____ _____    ______ ____
ROOT
ATOM      1  O   UNL     1      35.988 -17.873 -21.092  0.00  0.00    -0.421 OA
ENDROOT
BRANCH   1   9
ATOM      2  C   UNL     1      34.696 -16.194 -24.683  0.00  0.00    +0.000 C 
ATOM      3  C   UNL     1      34.745 -15.403 -23.510  0.00  0.00    +0.003 C 
ATOM      4  C   UNL     1      34.258 -15.613 -25.885  0.00  0.00    +0.003 C 
ATOM      5  C   UNL     1      35.183 -15.985 -22.309  0.00  0.00    +0.038 C 
ATOM      6  C   UNL     1      33.876 -14.272 -25.929  0.00  0.00    +0.031 C 
ATOM      7  C   UNL     1      34.357 -14.056 -23.573  0.00  0.00    +0.000 C 
ATOM      8  C   UNL     1      35.084 -17.542 -24.620  0.00  0.00    +0.003 C 
ATOM      9  C   UNL     1      35.565 -17.326 -22.264  0.00  0.00    +0.149 C 
ATOM     10  C   UNL     1      33.925 -13.495 -24.776  0.00  0.00    +0.003 C 
ATOM     11  C   UNL     1      35.516 -18.102 -23.418  0.00  0.00    +0.038 C 
BRANCH   6  14
ATOM     12  N   UNL     1      32.081 -13.387 -27.399  0.00  0.00    -0.343 N 
ATOM     13  N   UNL     1      34.298 -13.429 -28.140  0.00  0.00    -0.285 NA
ATOM     14  C   UNL     1      33.425 -13.686 -27.181  0.00  0.00    +0.117 C 
ATOM     15  H   UNL     1      31.798 -12.989 -28.254  0.00  0.00    +0.144 HD
ATOM     16  H   UNL     1      31.415 -13.573 -26.699  0.00  0.00    +0.144 HD
ATOM     17  H   UNL     1      33.994 -13.032 -28.988  0.00  0.00    +0.188 HD
ENDBRANCH   6  14
ENDBRANCH   1   9
BRANCH   1  19
ATOM     18  O   UNL     1      37.734 -19.255 -21.775  0.00  0.00    -0.244 OA
ATOM     19  C   UNL     1      36.652 -19.093 -21.232  0.00  0.00    +0.346 C 
BRANCH  19  20
ATOM     20  C   UNL     1      35.876 -20.202 -20.620  0.00  0.00    +0.076 C 
ATOM     21  C   UNL     1      36.534 -21.121 -19.830  0.00  0.00    +0.008 C 
ATOM     22  C   UNL     1      34.519 -20.276 -20.860  0.00  0.00    +0.008 C 
ATOM     23  C   UNL     1      34.432 -22.258 -19.480  0.00  0.00    +0.084 C 
ATOM     24  C   UNL     1      35.804 -22.160 -19.254  0.00  0.00    +0.019 C 
ATOM     25  C   UNL     1      33.789 -21.316 -20.283  0.00  0.00    +0.019 C 
BRANCH  23  26
ATOM     26  N   UNL     1      33.701 -23.300 -18.904  0.00  0.00    -0.214 NA
BRANCH  26  29
ATOM     27  N   UNL     1      31.925 -22.684 -17.516  0.00  0.00    -0.370 N 
ATOM     28  N   UNL     1      33.847 -23.376 -16.499  0.00  0.00    -0.370 N 
ATOM     29  C   UNL     1      33.210 -23.139 -17.697  0.00  0.00    +0.193 C 
ATOM     30  H   UNL     1      31.362 -22.476 -18.296  0.00  0.00    +0.159 HD
ATOM     31  H   UNL     1      31.568 -22.566 -16.606  0.00  0.00    +0.159 HD
ATOM     32  H   UNL     1      34.774 -23.706 -16.491  0.00  0.00    +0.159 HD
ATOM     33  H   UNL     1      33.373 -23.218 -15.649  0.00  0.00    +0.159 HD
ENDBRANCH  26  29
ENDBRANCH  23  26
ENDBRANCH  19  20
ENDBRANCH   1  19
TORSDOF 6
ENDMDL
MODEL 4
REMARK VINA RESULT:     -11.1      3.230      5.084
REMARK  Name = 4413
REMARK  6 active torsions:
REMARK  status: ('A' for Active; 'I' for Inactive)
REMARK    1  A    between atoms: O_1  and  C_9
REMARK    2  A    between atoms: O_1  and  C_19
REMARK    3  A    between atoms: C_6  and  C_14
REMARK    4  A    between atoms: C_19  and  C_20
REMARK    5  A    between atoms: C_23  and  N_26
REMARK    6  A    between atoms: N_26  and  C_29
REMARK                            x       y       z     vdW  Elec       q    Type
REMARK                         _______ _______ _______ _____ _____    ______ ____
ROOT
ATOM      1  O   UNL     1      35.104 -20.241 -21.830  0.00  0.00    -0.421 OA
ENDROOT
BRANCH   1   9
ATOM      2  C   UNL     1      35.475 -22.265 -18.203  0.00  0.00    +0.000 C 
ATOM      3  C   UNL     1      34.204 -22.136 -18.815  0.00  0.00    +0.003 C 
ATOM      4  C   UNL     1      35.582 -22.950 -16.982  0.00  0.00    +0.003 C 
ATOM      5  C   UNL     1      34.098 -21.451 -20.036  0.00  0.00    +0.038 C 
ATOM      6  C   UNL     1      34.454 -23.500 -16.373  0.00  0.00    +0.031 C 
ATOM      7  C   UNL     1      33.080 -22.696 -18.188  0.00  0.00    +0.000 C 
ATOM      8  C   UNL     1      36.600 -21.704 -18.831  0.00  0.00    +0.003 C 
ATOM      9  C   UNL     1      35.226 -20.900 -20.646  0.00  0.00    +0.149 C 
ATOM     10  C   UNL     1      33.205 -23.373 -16.974  0.00  0.00    +0.003 C 
ATOM     11  C   UNL     1      36.474 -21.027 -20.044  0.00  0.00    +0.038 C 
BRANCH   6  14
ATOM     12  N   UNL     1      35.294 -25.401 -15.013  0.00  0.00    -0.343 N 
ATOM     13  N   UNL     1      34.013 -23.716 -14.021  0.00  0.00    -0.285 NA
ATOM     14  C   UNL     1      34.582 -24.206 -15.108  0.00  0.00    +0.117 C 
ATOM     15  H   UNL     1      35.368 -25.861 -14.146  0.00  0.00    +0.144 HD
ATOM     16  H   UNL     1      35.724 -25.783 -15.812  0.00  0.00    +0.144 HD
ATOM     17  H   UNL     1      34.098 -24.193 -13.163  0.00  0.00    +0.188 HD
ENDBRANCH   6  14
ENDBRANCH   1   9
BRANCH   1  19
ATOM     18  O   UNL     1      36.506 -18.566 -21.018  0.00  0.00    -0.244 OA
ATOM     19  C   UNL     1      35.734 -18.995 -21.862  0.00  0.00    +0.346 C 
BRANCH  19  20
ATOM     20  C   UNL     1      35.356 -18.232 -23.079  0.00  0.00    +0.076 C 
ATOM     21  C   UNL     1      34.745 -18.898 -24.121  0.00  0.00    +0.008 C 
ATOM     22  C   UNL     1      35.628 -16.880 -23.129  0.00  0.00    +0.008 C 
ATOM     23  C   UNL     1      34.651 -16.813 -25.338  0.00  0.00    +0.084 C 
ATOM     24  C   UNL     1      34.388 -18.180 -25.263  0.00  0.00    +0.019 C 
ATOM     25  C   UNL     1      35.272 -16.162 -24.271  0.00  0.00    +0.019 C 
BRANCH  23  26
ATOM     26  N   UNL     1      34.295 -16.094 -26.483  0.00  0.00    -0.214 NA
BRANCH  26  29
ATOM     27  N   UNL     1      33.784 -13.985 -27.348  0.00  0.00    -0.370 N 
ATOM     28  N   UNL     1      33.024 -14.459 -25.250  0.00  0.00    -0.370 N 
ATOM     29  C   UNL     1      33.724 -14.921 -26.342  0.00  0.00    +0.193 C 
ATOM     30  H   UNL     1      34.258 -14.192 -28.186  0.00  0.00    +0.159 HD
ATOM     31  H   UNL     1      33.352 -13.108 -27.231  0.00  0.00    +0.159 HD
ATOM     32  H   UNL     1      32.908 -15.035 -24.460  0.00  0.00    +0.159 HD
ATOM     33  H   UNL     1      32.637 -13.553 -25.259  0.00  0.00    +0.159 HD
ENDBRANCH  26  29
ENDBRANCH  23  26
ENDBRANCH  19  20
ENDBRANCH   1  19
TORSDOF 6
ENDMDL
MODEL 5
REMARK VINA RESULT:     -10.9      4.533     10.412
REMARK  Name = 4413
REMARK  6 active torsions:
REMARK  status: ('A' for Active; 'I' for Inactive)
REMARK    1  A    between atoms: O_1  and  C_9
REMARK    2  A    between atoms: O_1  and  C_19
REMARK    3  A    between atoms: C_6  and  C_14
REMARK    4  A    between atoms: C_19  and  C_20
REMARK    5  A    between atoms: C_23  and  N_26
REMARK    6  A    between atoms: N_26  and  C_29
REMARK                            x       y       z     vdW  Elec       q    Type
REMARK                         _______ _______ _______ _____ _____    ______ ____
ROOT
ATOM      1  O   UNL     1      35.905 -19.375 -22.685  0.00  0.00    -0.421 OA
ENDROOT
BRANCH   1   9
ATOM      2  C   UNL     1      34.856 -15.522 -23.887  0.00  0.00    +0.000 C 
ATOM      3  C   UNL     1      34.966 -15.829 -22.509  0.00  0.00    +0.003 C 
ATOM      4  C   UNL     1      34.501 -14.220 -24.274  0.00  0.00    +0.003 C 
ATOM      5  C   UNL     1      35.320 -17.131 -22.122  0.00  0.00    +0.038 C 
ATOM      6  C   UNL     1      34.260 -13.234 -23.318  0.00  0.00    +0.031 C 
ATOM      7  C   UNL     1      34.720 -14.824 -21.560  0.00  0.00    +0.000 C 
ATOM      8  C   UNL     1      35.102 -16.528 -24.836  0.00  0.00    +0.003 C 
ATOM      9  C   UNL     1      35.562 -18.118 -23.078  0.00  0.00    +0.149 C 
ATOM     10  C   UNL     1      34.368 -13.534 -21.963  0.00  0.00    +0.003 C 
ATOM     11  C   UNL     1      35.453 -17.816 -24.432  0.00  0.00    +0.038 C 
BRANCH   6  14
ATOM     12  N   UNL     1      34.624 -11.208 -24.708  0.00  0.00    -0.343 N 
ATOM     13  N   UNL     1      32.851 -11.291 -23.187  0.00  0.00    -0.285 NA
ATOM     14  C   UNL     1      33.894 -11.890 -23.736  0.00  0.00    +0.117 C 
ATOM     15  H   UNL     1      34.357 -10.299 -24.976  0.00  0.00    +0.144 HD
ATOM     16  H   UNL     1      35.405 -11.636 -25.127  0.00  0.00    +0.144 HD
ATOM     17  H   UNL     1      32.602 -10.381 -23.468  0.00  0.00    +0.188 HD
ENDBRANCH   6  14
ENDBRANCH   1   9
BRANCH   1  19
ATOM     18  O   UNL     1      37.201 -18.804 -20.835  0.00  0.00    -0.244 OA
ATOM     19  C   UNL     1      36.318 -19.470 -21.355  0.00  0.00    +0.346 C 
BRANCH  19  20
ATOM     20  C   UNL     1      35.532 -20.493 -20.619  0.00  0.00    +0.076 C 
ATOM     21  C   UNL     1      34.159 -20.499 -20.747  0.00  0.00    +0.008 C 
ATOM     22  C   UNL     1      36.202 -21.407 -19.832  0.00  0.00    +0.008 C 
ATOM     23  C   UNL     1      34.074 -22.397 -19.255  0.00  0.00    +0.084 C 
ATOM     24  C   UNL     1      33.422 -21.462 -20.057  0.00  0.00    +0.019 C 
ATOM     25  C   UNL     1      35.464 -22.370 -19.142  0.00  0.00    +0.019 C 
BRANCH  23  26
ATOM     26  N   UNL     1      33.336 -23.361 -18.563  0.00  0.00    -0.214 NA
BRANCH  26  29
ATOM     27  N   UNL     1      31.528 -22.644 -17.268  0.00  0.00    -0.370 N 
ATOM     28  N   UNL     1      33.481 -23.083 -16.173  0.00  0.00    -0.370 N 
ATOM     29  C   UNL     1      32.836 -23.054 -17.389  0.00  0.00    +0.193 C 
ATOM     30  H   UNL     1      30.956 -22.581 -18.066  0.00  0.00    +0.159 HD
ATOM     31  H   UNL     1      31.164 -22.416 -16.382  0.00  0.00    +0.159 HD
ATOM     32  H   UNL     1      34.424 -23.359 -16.123  0.00  0.00    +0.159 HD
ATOM     33  H   UNL     1      32.999 -22.828 -15.352  0.00  0.00    +0.159 HD
ENDBRANCH  26  29
ENDBRANCH  23  26
ENDBRANCH  19  20
ENDBRANCH   1  19
TORSDOF 6
ENDMDL
MODEL 6
REMARK VINA RESULT:     -10.8      5.258     10.301
REMARK  Name = 4413
REMARK  6 active torsions:
REMARK  status: ('A' for Active; 'I' for Inactive)
REMARK    1  A    between atoms: O_1  and  C_9
REMARK    2  A    between atoms: O_1  and  C_19
REMARK    3  A    between atoms: C_6  and  C_14
REMARK    4  A    between atoms: C_19  and  C_20
REMARK    5  A    between atoms: C_23  and  N_26
REMARK    6  A    between atoms: N_26  and  C_29
REMARK                            x       y       z     vdW  Elec       q    Type
REMARK                         _______ _______ _______ _____ _____    ______ ____
ROOT
ATOM      1  O   UNL     1      36.170 -17.547 -22.823  0.00  0.00    -0.421 OA
ENDROOT
BRANCH   1   9
ATOM      2  C   UNL     1      33.804 -14.113 -22.831  0.00  0.00    +0.000 C 
ATOM      3  C   UNL     1      33.954 -14.866 -21.641  0.00  0.00    +0.003 C 
ATOM      4  C   UNL     1      33.004 -12.959 -22.817  0.00  0.00    +0.003 C 
ATOM      5  C   UNL     1      34.755 -16.020 -21.656  0.00  0.00    +0.038 C 
ATOM      6  C   UNL     1      32.362 -12.552 -21.647  0.00  0.00    +0.031 C 
ATOM      7  C   UNL     1      33.302 -14.442 -20.473  0.00  0.00    +0.000 C 
ATOM      8  C   UNL     1      34.457 -14.537 -24.000  0.00  0.00    +0.003 C 
ATOM      9  C   UNL     1      35.397 -16.427 -22.826  0.00  0.00    +0.149 C 
ATOM     10  C   UNL     1      32.510 -13.292 -20.477  0.00  0.00    +0.003 C 
ATOM     11  C   UNL     1      35.248 -15.686 -23.995  0.00  0.00    +0.038 C 
BRANCH   6  14
ATOM     12  N   UNL     1      31.945 -10.194 -22.303  0.00  0.00    -0.343 N 
ATOM     13  N   UNL     1      30.375 -11.356 -21.018  0.00  0.00    -0.285 NA
ATOM     14  C   UNL     1      31.537 -11.355 -21.649  0.00  0.00    +0.117 C 
ATOM     15  H   UNL     1      31.369  -9.395 -22.291  0.00  0.00    +0.144 HD
ATOM     16  H   UNL     1      32.807 -10.173 -22.776  0.00  0.00    +0.144 HD
ATOM     17  H   UNL     1      29.815 -10.546 -21.018  0.00  0.00    +0.188 HD
ENDBRANCH   6  14
ENDBRANCH   1   9
BRANCH   1  19
ATOM     18  O   UNL     1      34.742 -19.048 -23.888  0.00  0.00    -0.244 OA
ATOM     19  C   UNL     1      35.455 -18.740 -22.945  0.00  0.00    +0.346 C 
BRANCH  19  20
ATOM     20  C   UNL     1      35.674 -19.622 -21.770  0.00  0.00    +0.076 C 
ATOM     21  C   UNL     1      36.953 -19.766 -21.273  0.00  0.00    +0.008 C 
ATOM     22  C   UNL     1      34.591 -20.268 -21.211  0.00  0.00    +0.008 C 
ATOM     23  C   UNL     1      36.080 -21.257 -19.585  0.00  0.00    +0.084 C 
ATOM     24  C   UNL     1      37.158 -20.593 -20.169  0.00  0.00    +0.019 C 
ATOM     25  C   UNL     1      34.796 -21.095 -20.106  0.00  0.00    +0.019 C 
BRANCH  23  26
ATOM     26  N   UNL     1      36.285 -22.087 -18.479  0.00  0.00    -0.214 NA
BRANCH  26  29
ATOM     27  N   UNL     1      37.827 -22.718 -16.841  0.00  0.00    -0.370 N 
ATOM     28  N   UNL     1      37.661 -20.491 -17.307  0.00  0.00    -0.370 N 
ATOM     29  C   UNL     1      37.203 -21.756 -17.600  0.00  0.00    +0.193 C 
ATOM     30  H   UNL     1      37.589 -23.667 -16.955  0.00  0.00    +0.159 HD
ATOM     31  H   UNL     1      38.514 -22.458 -16.185  0.00  0.00    +0.159 HD
ATOM     32  H   UNL     1      37.292 -19.712 -17.783  0.00  0.00    +0.159 HD
ATOM     33  H   UNL     1      38.358 -20.365 -16.623  0.00  0.00    +0.159 HD
ENDBRANCH  26  29
ENDBRANCH  23  26
ENDBRANCH  19  20
ENDBRANCH   1  19
TORSDOF 6
ENDMDL
MODEL 7
REMARK VINA RESULT:     -10.8      2.334      8.480
REMARK  Name = 4413
REMARK  6 active torsions:
REMARK  status: ('A' for Active; 'I' for Inactive)
REMARK    1  A    between atoms: O_1  and  C_9
REMARK    2  A    between atoms: O_1  and  C_19
REMARK    3  A    between atoms: C_6  and  C_14
REMARK    4  A    between atoms: C_19  and  C_20
REMARK    5  A    between atoms: C_23  and  N_26
REMARK    6  A    between atoms: N_26  and  C_29
REMARK                            x       y       z     vdW  Elec       q    Type
REMARK                         _______ _______ _______ _____ _____    ______ ____
ROOT
ATOM      1  O   UNL     1      34.086 -23.677 -17.375  0.00  0.00    -0.421 OA
ENDROOT
BRANCH   1   9
ATOM      2  C   UNL     1      36.056 -20.956 -19.846  0.00  0.00    +0.000 C 
ATOM      3  C   UNL     1      34.677 -21.218 -20.038  0.00  0.00    +0.003 C 
ATOM      4  C   UNL     1      36.704 -20.037 -20.687  0.00  0.00    +0.003 C 
ATOM      5  C   UNL     1      34.030 -22.138 -19.197  0.00  0.00    +0.038 C 
ATOM      6  C   UNL     1      36.004 -19.384 -21.701  0.00  0.00    +0.031 C 
ATOM      7  C   UNL     1      33.989 -20.552 -21.064  0.00  0.00    +0.000 C 
ATOM      8  C   UNL     1      36.745 -21.623 -18.819  0.00  0.00    +0.003 C 
ATOM      9  C   UNL     1      34.730 -22.791 -18.182  0.00  0.00    +0.149 C 
ATOM     10  C   UNL     1      34.649 -19.641 -21.891  0.00  0.00    +0.003 C 
ATOM     11  C   UNL     1      36.084 -22.533 -17.994  0.00  0.00    +0.038 C 
BRANCH   6  14
ATOM     12  N   UNL     1      35.986 -17.474 -23.288  0.00  0.00    -0.343 N 
ATOM     13  N   UNL     1      38.006 -18.477 -22.673  0.00  0.00    -0.285 NA
ATOM     14  C   UNL     1      36.690 -18.435 -22.564  0.00  0.00    +0.117 C 
ATOM     15  H   UNL     1      36.472 -16.841 -23.865  0.00  0.00    +0.144 HD
ATOM     16  H   UNL     1      35.005 -17.428 -23.222  0.00  0.00    +0.144 HD
ATOM     17  H   UNL     1      38.472 -17.835 -23.256  0.00  0.00    +0.188 HD
ENDBRANCH   6  14
ENDBRANCH   1   9
BRANCH   1  19
ATOM     18  O   UNL     1      33.382 -22.733 -15.365  0.00  0.00    -0.244 OA
ATOM     19  C   UNL     1      34.183 -23.391 -16.012  0.00  0.00    +0.346 C 
BRANCH  19  20
ATOM     20  C   UNL     1      35.398 -24.004 -15.418  0.00  0.00    +0.076 C 
ATOM     21  C   UNL     1      36.273 -23.203 -14.714  0.00  0.00    +0.008 C 
ATOM     22  C   UNL     1      35.612 -25.357 -15.587  0.00  0.00    +0.008 C 
ATOM     23  C   UNL     1      37.653 -25.145 -14.310  0.00  0.00    +0.084 C 
ATOM     24  C   UNL     1      37.413 -23.780 -14.154  0.00  0.00    +0.019 C 
ATOM     25  C   UNL     1      36.753 -25.934 -15.027  0.00  0.00    +0.019 C 
BRANCH  23  26
ATOM     26  N   UNL     1      38.796 -25.723 -13.750  0.00  0.00    -0.214 NA
BRANCH  26  29
ATOM     27  N   UNL     1      40.896 -26.688 -14.091  0.00  0.00    -0.370 N 
ATOM     28  N   UNL     1      40.096 -25.331 -15.742  0.00  0.00    -0.370 N 
ATOM     29  C   UNL     1      39.857 -25.888 -14.505  0.00  0.00    +0.193 C 
ATOM     30  H   UNL     1      40.848 -27.147 -13.221  0.00  0.00    +0.159 HD
ATOM     31  H   UNL     1      41.687 -26.804 -14.666  0.00  0.00    +0.159 HD
ATOM     32  H   UNL     1      39.427 -24.736 -16.151  0.00  0.00    +0.159 HD
ATOM     33  H   UNL     1      40.936 -25.529 -16.217  0.00  0.00    +0.159 HD
ENDBRANCH  26  29
ENDBRANCH  23  26
ENDBRANCH  19  20
ENDBRANCH   1  19
TORSDOF 6
ENDMDL
MODEL 8
REMARK VINA RESULT:     -10.7      4.926      7.565
REMARK  Name = 4413
REMARK  6 active torsions:
REMARK  status: ('A' for Active; 'I' for Inactive)
REMARK    1  A    between atoms: O_1  and  C_9
REMARK    2  A    between atoms: O_1  and  C_19
REMARK    3  A    between atoms: C_6  and  C_14
REMARK    4  A    between atoms: C_19  and  C_20
REMARK    5  A    between atoms: C_23  and  N_26
REMARK    6  A    between atoms: N_26  and  C_29
REMARK                            x       y       z     vdW  Elec       q    Type
REMARK                         _______ _______ _______ _____ _____    ______ ____
ROOT
ATOM      1  O   UNL     1      36.387 -17.396 -23.206  0.00  0.00    -0.421 OA
ENDROOT
BRANCH   1   9
ATOM      2  C   UNL     1      35.845 -20.516 -20.493  0.00  0.00    +0.000 C 
ATOM      3  C   UNL     1      34.725 -19.935 -21.137  0.00  0.00    +0.003 C 
ATOM      4  C   UNL     1      35.645 -21.566 -19.582  0.00  0.00    +0.003 C 
ATOM      5  C   UNL     1      34.926 -18.885 -22.048  0.00  0.00    +0.038 C 
ATOM      6  C   UNL     1      34.361 -22.037 -19.311  0.00  0.00    +0.031 C 
ATOM      7  C   UNL     1      33.441 -20.423 -20.852  0.00  0.00    +0.000 C 
ATOM      8  C   UNL     1      37.131 -20.027 -20.778  0.00  0.00    +0.003 C 
ATOM      9  C   UNL     1      36.211 -18.413 -22.320  0.00  0.00    +0.149 C 
ATOM     10  C   UNL     1      33.260 -21.467 -19.944  0.00  0.00    +0.003 C 
ATOM     11  C   UNL     1      37.310 -18.984 -21.686  0.00  0.00    +0.038 C 
BRANCH   6  14
ATOM     12  N   UNL     1      34.398 -22.948 -17.000  0.00  0.00    -0.343 N 
ATOM     13  N   UNL     1      33.778 -24.311 -18.796  0.00  0.00    -0.285 NA
ATOM     14  C   UNL     1      34.171 -23.125 -18.365  0.00  0.00    +0.117 C 
ATOM     15  H   UNL     1      34.263 -23.699 -16.378  0.00  0.00    +0.144 HD
ATOM     16  H   UNL     1      34.694 -22.074 -16.660  0.00  0.00    +0.144 HD
ATOM     17  H   UNL     1      33.648 -25.049 -18.156  0.00  0.00    +0.188 HD
ENDBRANCH   6  14
ENDBRANCH   1   9
BRANCH   1  19
ATOM     18  O   UNL     1      34.849 -18.015 -24.843  0.00  0.00    -0.244 OA
ATOM     19  C   UNL     1      35.307 -17.189 -24.067  0.00  0.00    +0.346 C 
BRANCH  19  20
ATOM     20  C   UNL     1      34.757 -15.818 -23.922  0.00  0.00    +0.076 C 
ATOM     21  C   UNL     1      34.950 -15.143 -22.734  0.00  0.00    +0.008 C 
ATOM     22  C   UNL     1      34.071 -15.259 -24.982  0.00  0.00    +0.008 C 
ATOM     23  C   UNL     1      33.738 -13.267 -23.655  0.00  0.00    +0.084 C 
ATOM     24  C   UNL     1      34.434 -13.855 -22.600  0.00  0.00    +0.019 C 
ATOM     25  C   UNL     1      33.556 -13.970 -24.847  0.00  0.00    +0.019 C 
BRANCH  23  26
ATOM     26  N   UNL     1      33.220 -11.976 -23.520  0.00  0.00    -0.214 NA
BRANCH  26  29
ATOM     27  N   UNL     1      33.513  -9.671 -23.767  0.00  0.00    -0.370 N 
ATOM     28  N   UNL     1      35.000 -11.028 -24.842  0.00  0.00    -0.370 N 
ATOM     29  C   UNL     1      33.891 -10.968 -24.026  0.00  0.00    +0.193 C 
ATOM     30  H   UNL     1      32.733  -9.491 -23.194  0.00  0.00    +0.159 HD
ATOM     31  H   UNL     1      34.025  -8.923 -24.152  0.00  0.00    +0.159 HD
ATOM     32  H   UNL     1      35.371 -11.901 -25.103  0.00  0.00    +0.159 HD
ATOM     33  H   UNL     1      35.422 -10.198 -25.163  0.00  0.00    +0.159 HD
ENDBRANCH  26  29
ENDBRANCH  23  26
ENDBRANCH  19  20
ENDBRANCH   1  19
TORSDOF 6
ENDMDL
MODEL 9
REMARK VINA RESULT:     -10.7      5.322     10.282
REMARK  Name = 4413
REMARK  6 active torsions:
REMARK  status: ('A' for Active; 'I' for Inactive)
REMARK    1  A    between atoms: O_1  and  C_9
REMARK    2  A    between atoms: O_1  and  C_19
REMARK    3  A    between atoms: C_6  and  C_14
REMARK    4  A    between atoms: C_19  and  C_20
REMARK    5  A    between atoms: C_23  and  N_26
REMARK    6  A    between atoms: N_26  and  C_29
REMARK                            x       y       z     vdW  Elec       q    Type
REMARK                         _______ _______ _______ _____ _____    ______ ____
ROOT
ATOM      1  O   UNL     1      36.203 -17.591 -22.461  0.00  0.00    -0.421 OA
ENDROOT
BRANCH   1   9
ATOM      2  C   UNL     1      33.815 -14.179 -22.664  0.00  0.00    +0.000 C 
ATOM      3  C   UNL     1      33.893 -14.917 -21.458  0.00  0.00    +0.003 C 
ATOM      4  C   UNL     1      33.006 -13.032 -22.715  0.00  0.00    +0.003 C 
ATOM      5  C   UNL     1      34.702 -16.064 -21.408  0.00  0.00    +0.038 C 
ATOM      6  C   UNL     1      32.286 -12.619 -21.594  0.00  0.00    +0.031 C 
ATOM      7  C   UNL     1      33.162 -14.486 -20.340  0.00  0.00    +0.000 C 
ATOM      8  C   UNL     1      34.546 -14.611 -23.783  0.00  0.00    +0.003 C 
ATOM      9  C   UNL     1      35.423 -16.479 -22.529  0.00  0.00    +0.149 C 
ATOM     10  C   UNL     1      32.363 -13.344 -20.409  0.00  0.00    +0.003 C 
ATOM     11  C   UNL     1      35.345 -15.753 -23.713  0.00  0.00    +0.038 C 
BRANCH   6  14
ATOM     12  N   UNL     1      31.753 -10.383 -22.535  0.00  0.00    -0.343 N 
ATOM     13  N   UNL     1      30.388 -11.325 -20.887  0.00  0.00    -0.285 NA
ATOM     14  C   UNL     1      31.453 -11.429 -21.664  0.00  0.00    +0.117 C 
ATOM     15  H   UNL     1      31.174  -9.587 -22.565  0.00  0.00    +0.144 HD
ATOM     16  H   UNL     1      32.543 -10.440 -23.119  0.00  0.00    +0.144 HD
ATOM     17  H   UNL     1      29.823 -10.520 -20.933  0.00  0.00    +0.188 HD
ENDBRANCH   6  14
ENDBRANCH   1   9
BRANCH   1  19
ATOM     18  O   UNL     1      35.213 -19.009 -24.023  0.00  0.00    -0.244 OA
ATOM     19  C   UNL     1      35.571 -18.764 -22.881  0.00  0.00    +0.346 C 
BRANCH  19  20
ATOM     20  C   UNL     1      35.387 -19.710 -21.752  0.00  0.00    +0.076 C 
ATOM     21  C   UNL     1      34.111 -20.120 -21.425  0.00  0.00    +0.008 C 
ATOM     22  C   UNL     1      36.500 -20.152 -21.065  0.00  0.00    +0.008 C 
ATOM     23  C   UNL     1      35.047 -21.474 -19.657  0.00  0.00    +0.084 C 
ATOM     24  C   UNL     1      33.940 -21.011 -20.366  0.00  0.00    +0.019 C 
ATOM     25  C   UNL     1      36.328 -21.044 -20.006  0.00  0.00    +0.019 C 
BRANCH  23  26
ATOM     26  N   UNL     1      34.876 -22.365 -18.594  0.00  0.00    -0.214 NA
BRANCH  26  29
ATOM     27  N   UNL     1      33.822 -24.354 -19.220  0.00  0.00    -0.370 N 
ATOM     28  N   UNL     1      32.605 -22.883 -17.972  0.00  0.00    -0.370 N 
ATOM     29  C   UNL     1      33.815 -23.137 -18.580  0.00  0.00    +0.193 C 
ATOM     30  H   UNL     1      34.630 -24.656 -19.695  0.00  0.00    +0.159 HD
ATOM     31  H   UNL     1      33.020 -24.925 -19.203  0.00  0.00    +0.159 HD
ATOM     32  H   UNL     1      32.470 -22.042 -17.478  0.00  0.00    +0.159 HD
ATOM     33  H   UNL     1      31.876 -23.542 -18.029  0.00  0.00    +0.159 HD
ENDBRANCH  26  29
ENDBRANCH  23  26
ENDBRANCH  19  20
ENDBRANCH   1  19
TORSDOF 6
ENDMDL
