MODEL 1
REMARK VINA RESULT:     -11.9      0.000      0.000
REMARK  Name = 24871491
REMARK  6 active torsions:
REMARK  status: ('A' for Active; 'I' for Inactive)
REMARK    1  A    between atoms: N_1  and  C_11
REMARK    2  A    between atoms: N_2  and  C_18
REMARK    3  A    between atoms: C_6  and  C_31
REMARK    4  A    between atoms: C_19  and  C_24
REMARK    5  A    between atoms: C_24  and  C_26
REMARK    6  A    between atoms: C_26  and  O_27
REMARK                            x       y       z     vdW  Elec       q    Type
REMARK                         _______ _______ _______ _____ _____    ______ ____
ROOT
ATOM      1  N   UNL     1      32.878 -23.369 -17.328  0.00  0.00    -0.287 N 
ATOM      2  N   UNL     1      34.355 -24.837 -13.098  0.00  0.00    -0.247 N 
ATOM      3  N   UNL     1      33.633 -24.109 -15.206  0.00  0.00    -0.322 NA
ATOM      4  N   UNL     1      32.074 -24.389 -13.391  0.00  0.00    -0.169 NA
ATOM      5  C   UNL     1      32.601 -23.717 -15.983  0.00  0.00    +0.202 C 
ATOM      6  C   UNL     1      31.296 -23.637 -15.541  0.00  0.00    +0.118 C 
ATOM      7  C   UNL     1      33.302 -24.425 -13.939  0.00  0.00    +0.150 C 
ATOM      8  C   UNL     1      31.089 -23.989 -14.223  0.00  0.00    +0.120 C 
ATOM      9  H   UNL     1      32.132 -23.544 -17.945  0.00  0.00    +0.155 HD
ATOM     10  H   UNL     1      34.067 -25.057 -12.184  0.00  0.00    +0.165 HD
ENDROOT
BRANCH   1  11
ATOM     11  C   UNL     1      34.012 -22.823 -17.951  0.00  0.00    +0.050 C 
ATOM     12  C   UNL     1      35.205 -22.694 -17.240  0.00  0.00    +0.010 C 
ATOM     13  C   UNL     1      36.331 -22.152 -17.860  0.00  0.00    -0.021 C 
ATOM     14  C   UNL     1      33.945 -22.410 -19.282  0.00  0.00    +0.015 C 
ATOM     15  C   UNL     1      36.264 -21.739 -19.191  0.00  0.00    -0.004 C 
ATOM     16  C   UNL     1      35.071 -21.867 -19.901  0.00  0.00    +0.001 C 
ATOM     17  C   UNL     1      37.606 -22.012 -17.100  0.00  0.00    +0.031 C 
ENDBRANCH   1  11
BRANCH   2  18
ATOM     18  C   UNL     1      35.740 -24.997 -13.310  0.00  0.00    +0.058 C 
ATOM     19  C   UNL     1      38.479 -25.311 -13.728  0.00  0.00    -0.011 C 
ATOM     20  C   UNL     1      36.651 -24.395 -12.443  0.00  0.00    +0.015 C 
ATOM     21  C   UNL     1      36.198 -25.756 -14.387  0.00  0.00    +0.015 C 
ATOM     22  C   UNL     1      38.021 -24.552 -12.652  0.00  0.00    -0.002 C 
ATOM     23  C   UNL     1      37.568 -25.913 -14.596  0.00  0.00    -0.002 C 
BRANCH  19  24
ATOM     24  C   UNL     1      39.945 -25.480 -13.952  0.00  0.00    +0.136 C 
BRANCH  24  26
ATOM     25  O   UNL     1      40.937 -26.214 -16.050  0.00  0.00    -0.250 OA
ATOM     26  C   UNL     1      40.353 -25.354 -15.406  0.00  0.00    +0.318 C 
BRANCH  26  27
ATOM     27  O   UNL     1      39.993 -24.152 -15.931  0.00  0.00    -0.480 OA
ATOM     28  H   UNL     1      40.637 -23.608 -16.339  0.00  0.00    +0.295 HD
ENDBRANCH  26  27
ENDBRANCH  24  26
ENDBRANCH  19  24
ENDBRANCH   2  18
BRANCH   6  31
ATOM     29  O   UNL     1      30.300 -22.286 -17.194  0.00  0.00    -0.270 OA
ATOM     30  N   UNL     1      28.981 -23.905 -16.248  0.00  0.00    -0.325 N 
ATOM     31  C   UNL     1      30.183 -23.217 -16.377  0.00  0.00    +0.248 C 
ATOM     32  H   UNL     1      28.205 -23.648 -16.797  0.00  0.00    +0.145 HD
ATOM     33  H   UNL     1      28.905 -24.649 -15.607  0.00  0.00    +0.145 HD
ENDBRANCH   6  31
TORSDOF 6
ENDMDL
MODEL 2
REMARK VINA RESULT:     -11.3      2.030      7.290
REMARK  Name = 24871491
REMARK  6 active torsions:
REMARK  status: ('A' for Active; 'I' for Inactive)
REMARK    1  A    between atoms: N_1  and  C_11
REMARK    2  A    between atoms: N_2  and  C_18
REMARK    3  A    between atoms: C_6  and  C_31
REMARK    4  A    between atoms: C_19  and  C_24
REMARK    5  A    between atoms: C_24  and  C_26
REMARK    6  A    between atoms: C_26  and  O_27
REMARK                            x       y       z     vdW  Elec       q    Type
REMARK                         _______ _______ _______ _____ _____    ______ ____
ROOT
ATOM      1  N   UNL     1      35.703 -22.650 -15.830  0.00  0.00    -0.287 N 
ATOM      2  N   UNL     1      31.869 -24.536 -13.838  0.00  0.00    -0.247 N 
ATOM      3  N   UNL     1      33.768 -23.593 -14.838  0.00  0.00    -0.322 NA
ATOM      4  N   UNL     1      33.930 -24.784 -12.750  0.00  0.00    -0.169 NA
ATOM      5  C   UNL     1      35.099 -23.379 -14.777  0.00  0.00    +0.202 C 
ATOM      6  C   UNL     1      35.901 -23.830 -13.748  0.00  0.00    +0.118 C 
ATOM      7  C   UNL     1      33.257 -24.293 -13.807  0.00  0.00    +0.150 C 
ATOM      8  C   UNL     1      35.256 -24.534 -12.752  0.00  0.00    +0.120 C 
ATOM      9  H   UNL     1      36.495 -22.135 -15.554  0.00  0.00    +0.155 HD
ATOM     10  H   UNL     1      31.541 -25.051 -13.066  0.00  0.00    +0.165 HD
ENDROOT
BRANCH   1  11
ATOM     11  C   UNL     1      35.391 -22.519 -17.193  0.00  0.00    +0.050 C 
ATOM     12  C   UNL     1      36.242 -21.806 -18.038  0.00  0.00    +0.010 C 
ATOM     13  C   UNL     1      35.931 -21.677 -19.392  0.00  0.00    -0.021 C 
ATOM     14  C   UNL     1      34.230 -23.101 -17.702  0.00  0.00    +0.015 C 
ATOM     15  C   UNL     1      34.771 -22.259 -19.901  0.00  0.00    -0.004 C 
ATOM     16  C   UNL     1      33.919 -22.971 -19.056  0.00  0.00    +0.001 C 
ATOM     17  C   UNL     1      36.840 -20.914 -20.295  0.00  0.00    +0.031 C 
ENDBRANCH   1  11
BRANCH   2  18
ATOM     18  C   UNL     1      30.859 -24.188 -14.758  0.00  0.00    +0.058 C 
ATOM     19  C   UNL     1      28.859 -23.499 -16.576  0.00  0.00    -0.011 C 
ATOM     20  C   UNL     1      30.539 -22.848 -14.968  0.00  0.00    +0.015 C 
ATOM     21  C   UNL     1      30.178 -25.186 -15.457  0.00  0.00    +0.015 C 
ATOM     22  C   UNL     1      29.539 -22.503 -15.878  0.00  0.00    -0.002 C 
ATOM     23  C   UNL     1      29.178 -24.841 -16.366  0.00  0.00    -0.002 C 
BRANCH  19  24
ATOM     24  C   UNL     1      27.790 -23.131 -17.549  0.00  0.00    +0.136 C 
BRANCH  24  26
ATOM     25  O   UNL     1      26.072 -22.343 -16.015  0.00  0.00    -0.250 OA
ATOM     26  C   UNL     1      26.780 -22.147 -16.993  0.00  0.00    +0.318 C 
BRANCH  26  27
ATOM     27  O   UNL     1      26.741 -20.997 -17.717  0.00  0.00    -0.480 OA
ATOM     28  H   UNL     1      27.538 -20.556 -17.937  0.00  0.00    +0.295 HD
ENDBRANCH  26  27
ENDBRANCH  24  26
ENDBRANCH  19  24
ENDBRANCH   2  18
BRANCH   6  31
ATOM     29  O   UNL     1      38.075 -23.821 -14.655  0.00  0.00    -0.270 OA
ATOM     30  N   UNL     1      37.854 -23.103 -12.489  0.00  0.00    -0.325 N 
ATOM     31  C   UNL     1      37.335 -23.600 -13.680  0.00  0.00    +0.248 C 
ATOM     32  H   UNL     1      38.821 -22.934 -12.405  0.00  0.00    +0.145 HD
ATOM     33  H   UNL     1      37.256 -22.920 -11.729  0.00  0.00    +0.145 HD
ENDBRANCH   6  31
TORSDOF 6
ENDMDL
MODEL 3
REMARK VINA RESULT:     -11.3      3.143      6.358
REMARK  Name = 24871491
REMARK  6 active torsions:
REMARK  status: ('A' for Active; 'I' for Inactive)
REMARK    1  A    between atoms: N_1  and  C_11
REMARK    2  A    between atoms: N_2  and  C_18
REMARK    3  A    between atoms: C_6  and  C_31
REMARK    4  A    between atoms: C_19  and  C_24
REMARK    5  A    between atoms: C_24  and  C_26
REMARK    6  A    between atoms: C_26  and  O_27
REMARK                            x       y       z     vdW  Elec       q    Type
REMARK                         _______ _______ _______ _____ _____    ______ ____
ROOT
ATOM      1  N   UNL     1      34.550 -23.656 -14.714  0.00  0.00    -0.287 N 
ATOM      2  N   UNL     1      32.474 -22.302 -18.724  0.00  0.00    -0.247 N 
ATOM      3  N   UNL     1      33.518 -22.970 -16.734  0.00  0.00    -0.322 NA
ATOM      4  N   UNL     1      31.178 -23.405 -17.113  0.00  0.00    -0.169 NA
ATOM      5  C   UNL     1      33.397 -23.571 -15.532  0.00  0.00    +0.202 C 
ATOM      6  C   UNL     1      32.217 -24.106 -15.058  0.00  0.00    +0.118 C 
ATOM      7  C   UNL     1      32.385 -22.922 -17.462  0.00  0.00    +0.150 C 
ATOM      8  C   UNL     1      31.129 -23.993 -15.899  0.00  0.00    +0.120 C 
ATOM      9  H   UNL     1      34.354 -23.653 -13.750  0.00  0.00    +0.155 HD
ATOM     10  H   UNL     1      31.624 -22.292 -19.219  0.00  0.00    +0.165 HD
ENDROOT
BRANCH   1  11
ATOM     11  C   UNL     1      35.920 -23.743 -15.012  0.00  0.00    +0.050 C 
ATOM     12  C   UNL     1      36.664 -24.832 -14.558  0.00  0.00    +0.010 C 
ATOM     13  C   UNL     1      38.025 -24.918 -14.855  0.00  0.00    -0.021 C 
ATOM     14  C   UNL     1      36.535 -22.742 -15.763  0.00  0.00    +0.015 C 
ATOM     15  C   UNL     1      38.640 -23.917 -15.606  0.00  0.00    -0.004 C 
ATOM     16  C   UNL     1      37.896 -22.828 -16.059  0.00  0.00    +0.001 C 
ATOM     17  C   UNL     1      38.822 -26.081 -14.369  0.00  0.00    +0.031 C 
ENDBRANCH   1  11
BRANCH   2  18
ATOM     18  C   UNL     1      33.541 -21.693 -19.416  0.00  0.00    +0.058 C 
ATOM     19  C   UNL     1      35.651 -20.490 -20.787  0.00  0.00    -0.011 C 
ATOM     20  C   UNL     1      33.282 -20.706 -20.366  0.00  0.00    +0.015 C 
ATOM     21  C   UNL     1      34.855 -22.080 -19.152  0.00  0.00    +0.015 C 
ATOM     22  C   UNL     1      34.338 -20.104 -21.052  0.00  0.00    -0.002 C 
ATOM     23  C   UNL     1      35.910 -21.478 -19.837  0.00  0.00    -0.002 C 
BRANCH  19  24
ATOM     24  C   UNL     1      36.780 -19.846 -21.519  0.00  0.00    +0.136 C 
BRANCH  24  26
ATOM     25  O   UNL     1      36.037 -17.543 -21.249  0.00  0.00    -0.250 OA
ATOM     26  C   UNL     1      36.480 -18.429 -21.967  0.00  0.00    +0.318 C 
BRANCH  26  27
ATOM     27  O   UNL     1      36.760 -18.244 -23.284  0.00  0.00    -0.480 OA
ATOM     28  H   UNL     1      36.719 -18.967 -23.878  0.00  0.00    +0.295 HD
ENDBRANCH  26  27
ENDBRANCH  24  26
ENDBRANCH  19  24
ENDBRANCH   2  18
BRANCH   6  31
ATOM     29  O   UNL     1      33.076 -24.979 -13.046  0.00  0.00    -0.270 OA
ATOM     30  N   UNL     1      30.805 -25.098 -13.338  0.00  0.00    -0.325 N 
ATOM     31  C   UNL     1      32.084 -24.754 -13.762  0.00  0.00    +0.248 C 
ATOM     32  H   UNL     1      30.677 -25.538 -12.467  0.00  0.00    +0.145 HD
ATOM     33  H   UNL     1      30.028 -24.903 -13.910  0.00  0.00    +0.145 HD
ENDBRANCH   6  31
TORSDOF 6
ENDMDL
MODEL 4
REMARK VINA RESULT:     -11.0      2.022      6.931
REMARK  Name = 24871491
REMARK  6 active torsions:
REMARK  status: ('A' for Active; 'I' for Inactive)
REMARK    1  A    between atoms: N_1  and  C_11
REMARK    2  A    between atoms: N_2  and  C_18
REMARK    3  A    between atoms: C_6  and  C_31
REMARK    4  A    between atoms: C_19  and  C_24
REMARK    5  A    between atoms: C_24  and  C_26
REMARK    6  A    between atoms: C_26  and  O_27
REMARK                            x       y       z     vdW  Elec       q    Type
REMARK                         _______ _______ _______ _____ _____    ______ ____
ROOT
ATOM      1  N   UNL     1      36.379 -22.648 -16.954  0.00  0.00    -0.287 N 
ATOM      2  N   UNL     1      33.505 -25.055 -14.096  0.00  0.00    -0.247 N 
ATOM      3  N   UNL     1      34.923 -23.852 -15.522  0.00  0.00    -0.322 NA
ATOM      4  N   UNL     1      35.813 -25.422 -13.926  0.00  0.00    -0.169 NA
ATOM      5  C   UNL     1      36.188 -23.595 -15.919  0.00  0.00    +0.202 C 
ATOM      6  C   UNL     1      37.300 -24.204 -15.375  0.00  0.00    +0.118 C 
ATOM      7  C   UNL     1      34.811 -24.762 -14.535  0.00  0.00    +0.150 C 
ATOM      8  C   UNL     1      37.051 -25.117 -14.371  0.00  0.00    +0.120 C 
ATOM      9  H   UNL     1      37.233 -22.163 -16.896  0.00  0.00    +0.155 HD
ATOM     10  H   UNL     1      33.472 -25.725 -13.376  0.00  0.00    +0.165 HD
ENDROOT
BRANCH   1  11
ATOM     11  C   UNL     1      35.585 -22.265 -18.047  0.00  0.00    +0.050 C 
ATOM     12  C   UNL     1      36.117 -21.445 -19.043  0.00  0.00    +0.010 C 
ATOM     13  C   UNL     1      35.328 -21.066 -20.129  0.00  0.00    -0.021 C 
ATOM     14  C   UNL     1      34.265 -22.705 -18.139  0.00  0.00    +0.015 C 
ATOM     15  C   UNL     1      34.008 -21.506 -20.220  0.00  0.00    -0.004 C 
ATOM     16  C   UNL     1      33.475 -22.325 -19.225  0.00  0.00    +0.001 C 
ATOM     17  C   UNL     1      35.896 -20.188 -21.193  0.00  0.00    +0.031 C 
ENDBRANCH   1  11
BRANCH   2  18
ATOM     18  C   UNL     1      32.237 -24.578 -14.484  0.00  0.00    +0.058 C 
ATOM     19  C   UNL     1      29.727 -23.634 -15.254  0.00  0.00    -0.011 C 
ATOM     20  C   UNL     1      31.119 -25.404 -14.378  0.00  0.00    +0.015 C 
ATOM     21  C   UNL     1      32.101 -23.279 -14.976  0.00  0.00    +0.015 C 
ATOM     22  C   UNL     1      29.863 -24.932 -14.762  0.00  0.00    -0.002 C 
ATOM     23  C   UNL     1      30.846 -22.808 -15.361  0.00  0.00    -0.002 C 
BRANCH  19  24
ATOM     24  C   UNL     1      28.385 -23.129 -15.665  0.00  0.00    +0.136 C 
BRANCH  24  26
ATOM     25  O   UNL     1      28.025 -22.256 -17.909  0.00  0.00    -0.250 OA
ATOM     26  C   UNL     1      28.138 -23.215 -17.158  0.00  0.00    +0.318 C 
BRANCH  26  27
ATOM     27  O   UNL     1      28.053 -24.503 -17.585  0.00  0.00    -0.480 OA
ATOM     28  H   UNL     1      27.875 -25.188 -16.971  0.00  0.00    +0.295 HD
ENDBRANCH  26  27
ENDBRANCH  24  26
ENDBRANCH  19  24
ENDBRANCH   2  18
BRANCH   6  31
ATOM     29  O   UNL     1      38.977 -22.835 -16.304  0.00  0.00    -0.270 OA
ATOM     30  N   UNL     1      39.615 -24.925 -15.610  0.00  0.00    -0.325 N 
ATOM     31  C   UNL     1      38.663 -23.929 -15.801  0.00  0.00    +0.248 C 
ATOM     32  H   UNL     1      40.548 -24.775 -15.886  0.00  0.00    +0.145 HD
ATOM     33  H   UNL     1      39.356 -25.781 -15.199  0.00  0.00    +0.145 HD
ENDBRANCH   6  31
TORSDOF 6
ENDMDL
MODEL 5
REMARK VINA RESULT:     -10.4      3.081      7.188
REMARK  Name = 24871491
REMARK  6 active torsions:
REMARK  status: ('A' for Active; 'I' for Inactive)
REMARK    1  A    between atoms: N_1  and  C_11
REMARK    2  A    between atoms: N_2  and  C_18
REMARK    3  A    between atoms: C_6  and  C_31
REMARK    4  A    between atoms: C_19  and  C_24
REMARK    5  A    between atoms: C_24  and  C_26
REMARK    6  A    between atoms: C_26  and  O_27
REMARK                            x       y       z     vdW  Elec       q    Type
REMARK                         _______ _______ _______ _____ _____    ______ ____
ROOT
ATOM      1  N   UNL     1      34.495 -24.983 -14.483  0.00  0.00    -0.287 N 
ATOM      2  N   UNL     1      37.493 -22.495 -17.138  0.00  0.00    -0.247 N 
ATOM      3  N   UNL     1      35.993 -23.729 -15.827  0.00  0.00    -0.322 NA
ATOM      4  N   UNL     1      38.323 -23.580 -15.235  0.00  0.00    -0.169 NA
ATOM      5  C   UNL     1      35.804 -24.505 -14.738  0.00  0.00    +0.202 C 
ATOM      6  C   UNL     1      36.812 -24.856 -13.863  0.00  0.00    +0.118 C 
ATOM      7  C   UNL     1      37.259 -23.308 -16.012  0.00  0.00    +0.150 C 
ATOM      8  C   UNL     1      38.064 -24.360 -14.165  0.00  0.00    +0.120 C 
ATOM      9  H   UNL     1      34.473 -25.851 -14.020  0.00  0.00    +0.155 HD
ATOM     10  H   UNL     1      38.430 -22.211 -17.233  0.00  0.00    +0.165 HD
ENDROOT
BRANCH   1  11
ATOM     11  C   UNL     1      33.223 -24.458 -14.763  0.00  0.00    +0.050 C 
ATOM     12  C   UNL     1      32.089 -25.255 -14.601  0.00  0.00    +0.010 C 
ATOM     13  C   UNL     1      30.826 -24.733 -14.879  0.00  0.00    -0.021 C 
ATOM     14  C   UNL     1      33.093 -23.140 -15.201  0.00  0.00    +0.015 C 
ATOM     15  C   UNL     1      30.695 -23.415 -15.317  0.00  0.00    -0.004 C 
ATOM     16  C   UNL     1      31.829 -22.619 -15.480  0.00  0.00    +0.001 C 
ATOM     17  C   UNL     1      29.613 -25.584 -14.707  0.00  0.00    +0.031 C 
ENDBRANCH   1  11
BRANCH   2  18
ATOM     18  C   UNL     1      36.648 -22.008 -18.157  0.00  0.00    +0.058 C 
ATOM     19  C   UNL     1      34.978 -21.045 -20.173  0.00  0.00    -0.011 C 
ATOM     20  C   UNL     1      37.157 -21.157 -19.137  0.00  0.00    +0.015 C 
ATOM     21  C   UNL     1      35.303 -22.378 -18.184  0.00  0.00    +0.015 C 
ATOM     22  C   UNL     1      36.322 -20.675 -20.145  0.00  0.00    -0.002 C 
ATOM     23  C   UNL     1      34.468 -21.896 -19.192  0.00  0.00    -0.002 C 
BRANCH  19  24
ATOM     24  C   UNL     1      34.085 -20.530 -21.251  0.00  0.00    +0.136 C 
BRANCH  24  26
ATOM     25  O   UNL     1      35.001 -19.678 -23.340  0.00  0.00    -0.250 OA
ATOM     26  C   UNL     1      34.752 -19.511 -22.153  0.00  0.00    +0.318 C 
BRANCH  26  27
ATOM     27  O   UNL     1      35.053 -18.364 -21.488  0.00  0.00    -0.480 OA
ATOM     28  H   UNL     1      35.392 -18.405 -20.616  0.00  0.00    +0.295 HD
ENDBRANCH  26  27
ENDBRANCH  24  26
ENDBRANCH  19  24
ENDBRANCH   2  18
BRANCH   6  31
ATOM     29  O   UNL     1      35.836 -25.354 -11.778  0.00  0.00    -0.270 OA
ATOM     30  N   UNL     1      37.302 -26.898 -12.630  0.00  0.00    -0.325 N 
ATOM     31  C   UNL     1      36.611 -25.692 -12.691  0.00  0.00    +0.248 C 
ATOM     32  H   UNL     1      37.191 -27.490 -11.851  0.00  0.00    +0.145 HD
ATOM     33  H   UNL     1      37.902 -27.159 -13.365  0.00  0.00    +0.145 HD
ENDBRANCH   6  31
TORSDOF 6
ENDMDL
MODEL 6
REMARK VINA RESULT:     -10.4      3.039      7.142
REMARK  Name = 24871491
REMARK  6 active torsions:
REMARK  status: ('A' for Active; 'I' for Inactive)
REMARK    1  A    between atoms: N_1  and  C_11
REMARK    2  A    between atoms: N_2  and  C_18
REMARK    3  A    between atoms: C_6  and  C_31
REMARK    4  A    between atoms: C_19  and  C_24
REMARK    5  A    between atoms: C_24  and  C_26
REMARK    6  A    between atoms: C_26  and  O_27
REMARK                            x       y       z     vdW  Elec       q    Type
REMARK                         _______ _______ _______ _____ _____    ______ ____
ROOT
ATOM      1  N   UNL     1      34.698 -24.975 -14.322  0.00  0.00    -0.287 N 
ATOM      2  N   UNL     1      37.629 -22.566 -17.120  0.00  0.00    -0.247 N 
ATOM      3  N   UNL     1      36.162 -23.761 -15.737  0.00  0.00    -0.322 NA
ATOM      4  N   UNL     1      38.520 -23.666 -15.252  0.00  0.00    -0.169 NA
ATOM      5  C   UNL     1      36.004 -24.529 -14.638  0.00  0.00    +0.202 C 
ATOM      6  C   UNL     1      37.043 -24.901 -13.809  0.00  0.00    +0.118 C 
ATOM      7  C   UNL     1      37.427 -23.371 -15.981  0.00  0.00    +0.150 C 
ATOM      8  C   UNL     1      38.291 -24.437 -14.168  0.00  0.00    +0.120 C 
ATOM      9  H   UNL     1      34.676 -25.841 -13.855  0.00  0.00    +0.155 HD
ATOM     10  H   UNL     1      38.568 -22.305 -17.258  0.00  0.00    +0.165 HD
ENDROOT
BRANCH   1  11
ATOM     11  C   UNL     1      33.427 -24.421 -14.545  0.00  0.00    +0.050 C 
ATOM     12  C   UNL     1      33.128 -23.835 -15.776  0.00  0.00    +0.010 C 
ATOM     13  C   UNL     1      31.866 -23.285 -15.997  0.00  0.00    -0.021 C 
ATOM     14  C   UNL     1      32.463 -24.458 -13.538  0.00  0.00    +0.015 C 
ATOM     15  C   UNL     1      30.902 -23.322 -14.990  0.00  0.00    -0.004 C 
ATOM     16  C   UNL     1      31.201 -23.907 -13.759  0.00  0.00    +0.001 C 
ATOM     17  C   UNL     1      31.546 -22.657 -17.311  0.00  0.00    +0.031 C 
ENDBRANCH   1  11
BRANCH   2  18
ATOM     18  C   UNL     1      36.751 -22.062 -18.101  0.00  0.00    +0.058 C 
ATOM     19  C   UNL     1      35.013 -21.067 -20.043  0.00  0.00    -0.011 C 
ATOM     20  C   UNL     1      35.415 -22.461 -18.111  0.00  0.00    +0.015 C 
ATOM     21  C   UNL     1      37.219 -21.166 -19.062  0.00  0.00    +0.015 C 
ATOM     22  C   UNL     1      34.545 -21.963 -19.082  0.00  0.00    -0.002 C 
ATOM     23  C   UNL     1      36.350 -20.669 -20.033  0.00  0.00    -0.002 C 
BRANCH  19  24
ATOM     24  C   UNL     1      34.084 -20.534 -21.081  0.00  0.00    +0.136 C 
BRANCH  24  26
ATOM     25  O   UNL     1      34.970 -19.737 -23.204  0.00  0.00    -0.250 OA
ATOM     26  C   UNL     1      34.734 -19.538 -22.020  0.00  0.00    +0.318 C 
BRANCH  26  27
ATOM     27  O   UNL     1      35.037 -18.371 -21.391  0.00  0.00    -0.480 OA
ATOM     28  H   UNL     1      35.054 -18.335 -20.456  0.00  0.00    +0.295 HD
ENDBRANCH  26  27
ENDBRANCH  24  26
ENDBRANCH  19  24
ENDBRANCH   2  18
BRANCH   6  31
ATOM     29  O   UNL     1      36.084 -25.414 -11.718  0.00  0.00    -0.270 OA
ATOM     30  N   UNL     1      37.618 -26.903 -12.546  0.00  0.00    -0.325 N 
ATOM     31  C   UNL     1      36.876 -25.730 -12.625  0.00  0.00    +0.248 C 
ATOM     32  H   UNL     1      37.532 -27.489 -11.759  0.00  0.00    +0.145 HD
ATOM     33  H   UNL     1      38.231 -27.148 -13.277  0.00  0.00    +0.145 HD
ENDBRANCH   6  31
TORSDOF 6
ENDMDL
MODEL 7
REMARK VINA RESULT:      -9.6      8.713     11.987
REMARK  Name = 24871491
REMARK  6 active torsions:
REMARK  status: ('A' for Active; 'I' for Inactive)
REMARK    1  A    between atoms: N_1  and  C_11
REMARK    2  A    between atoms: N_2  and  C_18
REMARK    3  A    between atoms: C_6  and  C_31
REMARK    4  A    between atoms: C_19  and  C_24
REMARK    5  A    between atoms: C_24  and  C_26
REMARK    6  A    between atoms: C_26  and  O_27
REMARK                            x       y       z     vdW  Elec       q    Type
REMARK                         _______ _______ _______ _____ _____    ______ ____
ROOT
ATOM      1  N   UNL     1      33.791 -13.403 -23.726  0.00  0.00    -0.287 N 
ATOM      2  N   UNL     1      34.882 -17.770 -25.127  0.00  0.00    -0.247 N 
ATOM      3  N   UNL     1      34.342 -15.602 -24.418  0.00  0.00    -0.322 NA
ATOM      4  N   UNL     1      34.348 -16.174 -26.758  0.00  0.00    -0.169 NA
ATOM      5  C   UNL     1      33.981 -14.348 -24.763  0.00  0.00    +0.202 C 
ATOM      6  C   UNL     1      33.787 -13.938 -26.066  0.00  0.00    +0.118 C 
ATOM      7  C   UNL     1      34.506 -16.451 -25.450  0.00  0.00    +0.150 C 
ATOM      8  C   UNL     1      33.987 -14.903 -27.033  0.00  0.00    +0.120 C 
ATOM      9  H   UNL     1      33.990 -12.476 -23.991  0.00  0.00    +0.155 HD
ATOM     10  H   UNL     1      34.990 -18.354 -25.912  0.00  0.00    +0.165 HD
ENDROOT
BRANCH   1  11
ATOM     11  C   UNL     1      33.374 -13.531 -22.391  0.00  0.00    +0.050 C 
ATOM     12  C   UNL     1      32.555 -12.556 -21.819  0.00  0.00    +0.010 C 
ATOM     13  C   UNL     1      32.141 -12.685 -20.494  0.00  0.00    -0.021 C 
ATOM     14  C   UNL     1      33.776 -14.633 -21.637  0.00  0.00    +0.015 C 
ATOM     15  C   UNL     1      32.544 -13.787 -19.740  0.00  0.00    -0.004 C 
ATOM     16  C   UNL     1      33.363 -14.761 -20.311  0.00  0.00    +0.001 C 
ATOM     17  C   UNL     1      31.268 -11.642 -19.882  0.00  0.00    +0.031 C 
ENDBRANCH   1  11
BRANCH   2  18
ATOM     18  C   UNL     1      35.136 -18.417 -23.900  0.00  0.00    +0.058 C 
ATOM     19  C   UNL     1      35.636 -19.698 -21.473  0.00  0.00    -0.011 C 
ATOM     20  C   UNL     1      34.265 -19.404 -23.440  0.00  0.00    +0.015 C 
ATOM     21  C   UNL     1      36.257 -18.069 -23.146  0.00  0.00    +0.015 C 
ATOM     22  C   UNL     1      34.515 -20.045 -22.226  0.00  0.00    -0.002 C 
ATOM     23  C   UNL     1      36.507 -18.710 -21.933  0.00  0.00    -0.002 C 
BRANCH  19  24
ATOM     24  C   UNL     1      35.903 -20.383 -20.175  0.00  0.00    +0.136 C 
BRANCH  24  26
ATOM     25  O   UNL     1      33.722 -21.272 -19.560  0.00  0.00    -0.250 OA
ATOM     26  C   UNL     1      34.896 -21.466 -19.844  0.00  0.00    +0.318 C 
BRANCH  26  27
ATOM     27  O   UNL     1      35.450 -22.706 -19.896  0.00  0.00    -0.480 OA
ATOM     28  H   UNL     1      35.162 -23.321 -20.541  0.00  0.00    +0.295 HD
ENDBRANCH  26  27
ENDBRANCH  24  26
ENDBRANCH  19  24
ENDBRANCH   2  18
BRANCH   6  31
ATOM     29  O   UNL     1      33.844 -11.595 -25.838  0.00  0.00    -0.270 OA
ATOM     30  N   UNL     1      32.525 -12.439 -27.513  0.00  0.00    -0.325 N 
ATOM     31  C   UNL     1      33.399 -12.588 -26.441  0.00  0.00    +0.248 C 
ATOM     32  H   UNL     1      32.240 -11.540 -27.795  0.00  0.00    +0.145 HD
ATOM     33  H   UNL     1      32.191 -13.233 -27.990  0.00  0.00    +0.145 HD
ENDBRANCH   6  31
TORSDOF 6
ENDMDL
MODEL 8
REMARK VINA RESULT:      -9.5      3.301      7.191
REMARK  Name = 24871491
REMARK  6 active torsions:
REMARK  status: ('A' for Active; 'I' for Inactive)
REMARK    1  A    between atoms: N_1  and  C_11
REMARK    2  A    between atoms: N_2  and  C_18
REMARK    3  A    between atoms: C_6  and  C_31
REMARK    4  A    between atoms: C_19  and  C_24
REMARK    5  A    between atoms: C_24  and  C_26
REMARK    6  A    between atoms: C_26  and  O_27
REMARK                            x       y       z     vdW  Elec       q    Type
REMARK                         _______ _______ _______ _____ _____    ______ ____
ROOT
ATOM      1  N   UNL     1      34.286 -24.613 -15.142  0.00  0.00    -0.287 N 
ATOM      2  N   UNL     1      37.507 -22.007 -17.390  0.00  0.00    -0.247 N 
ATOM      3  N   UNL     1      35.897 -23.301 -16.282  0.00  0.00    -0.322 NA
ATOM      4  N   UNL     1      38.106 -23.018 -15.362  0.00  0.00    -0.169 NA
ATOM      5  C   UNL     1      35.591 -24.069 -15.216  0.00  0.00    +0.202 C 
ATOM      6  C   UNL     1      36.477 -24.352 -14.196  0.00  0.00    +0.118 C 
ATOM      7  C   UNL     1      37.153 -22.815 -16.291  0.00  0.00    +0.150 C 
ATOM      8  C   UNL     1      37.733 -23.795 -14.324  0.00  0.00    +0.120 C 
ATOM      9  H   UNL     1      34.240 -25.474 -14.668  0.00  0.00    +0.155 HD
ATOM     10  H   UNL     1      38.433 -21.674 -17.354  0.00  0.00    +0.165 HD
ENDROOT
BRANCH   1  11
ATOM     11  C   UNL     1      33.043 -24.161 -15.615  0.00  0.00    +0.050 C 
ATOM     12  C   UNL     1      31.863 -24.704 -15.104  0.00  0.00    +0.010 C 
ATOM     13  C   UNL     1      30.629 -24.255 -15.574  0.00  0.00    -0.021 C 
ATOM     14  C   UNL     1      32.987 -23.170 -16.594  0.00  0.00    +0.015 C 
ATOM     15  C   UNL     1      30.573 -23.264 -16.553  0.00  0.00    -0.004 C 
ATOM     16  C   UNL     1      31.753 -22.722 -17.064  0.00  0.00    +0.001 C 
ATOM     17  C   UNL     1      29.368 -24.836 -15.029  0.00  0.00    +0.031 C 
ENDBRANCH   1  11
BRANCH   2  18
ATOM     18  C   UNL     1      36.797 -21.582 -18.531  0.00  0.00    +0.058 C 
ATOM     19  C   UNL     1      35.391 -20.741 -20.789  0.00  0.00    -0.011 C 
ATOM     20  C   UNL     1      35.643 -22.257 -18.925  0.00  0.00    +0.015 C 
ATOM     21  C   UNL     1      37.250 -20.486 -19.266  0.00  0.00    +0.015 C 
ATOM     22  C   UNL     1      34.939 -21.837 -20.055  0.00  0.00    -0.002 C 
ATOM     23  C   UNL     1      36.547 -20.066 -20.395  0.00  0.00    -0.002 C 
BRANCH  19  24
ATOM     24  C   UNL     1      34.640 -20.291 -21.997  0.00  0.00    +0.136 C 
BRANCH  24  26
ATOM     25  O   UNL     1      35.507 -18.020 -22.133  0.00  0.00    -0.250 OA
ATOM     26  C   UNL     1      35.256 -19.086 -22.678  0.00  0.00    +0.318 C 
BRANCH  26  27
ATOM     27  O   UNL     1      35.506 -19.321 -23.994  0.00  0.00    -0.480 OA
ATOM     28  H   UNL     1      35.836 -18.633 -24.538  0.00  0.00    +0.295 HD
ENDBRANCH  26  27
ENDBRANCH  24  26
ENDBRANCH  19  24
ENDBRANCH   2  18
BRANCH   6  31
ATOM     29  O   UNL     1      35.130 -24.973 -12.367  0.00  0.00    -0.270 OA
ATOM     30  N   UNL     1      37.010 -26.231 -12.740  0.00  0.00    -0.325 N 
ATOM     31  C   UNL     1      36.150 -25.181 -13.047  0.00  0.00    +0.248 C 
ATOM     32  H   UNL     1      36.821 -26.813 -11.969  0.00  0.00    +0.145 HD
ATOM     33  H   UNL     1      37.808 -26.392 -13.294  0.00  0.00    +0.145 HD
ENDBRANCH   6  31
TORSDOF 6
ENDMDL
MODEL 9
REMARK VINA RESULT:      -9.2      2.823      5.333
REMARK  Name = 24871491
REMARK  6 active torsions:
REMARK  status: ('A' for Active; 'I' for Inactive)
REMARK    1  A    between atoms: N_1  and  C_11
REMARK    2  A    between atoms: N_2  and  C_18
REMARK    3  A    between atoms: C_6  and  C_31
REMARK    4  A    between atoms: C_19  and  C_24
REMARK    5  A    between atoms: C_24  and  C_26
REMARK    6  A    between atoms: C_26  and  O_27
REMARK                            x       y       z     vdW  Elec       q    Type
REMARK                         _______ _______ _______ _____ _____    ______ ____
ROOT
ATOM      1  N   UNL     1      33.099 -22.323 -17.643  0.00  0.00    -0.287 N 
ATOM      2  N   UNL     1      37.687 -22.944 -16.759  0.00  0.00    -0.247 N 
ATOM      3  N   UNL     1      35.403 -22.640 -17.186  0.00  0.00    -0.322 NA
ATOM      4  N   UNL     1      37.058 -22.087 -18.847  0.00  0.00    -0.169 NA
ATOM      5  C   UNL     1      34.451 -22.241 -18.056  0.00  0.00    +0.202 C 
ATOM      6  C   UNL     1      34.721 -21.762 -19.321  0.00  0.00    +0.118 C 
ATOM      7  C   UNL     1      36.667 -22.536 -17.641  0.00  0.00    +0.150 C 
ATOM      8  C   UNL     1      36.056 -21.705 -19.667  0.00  0.00    +0.120 C 
ATOM      9  H   UNL     1      32.516 -21.644 -18.053  0.00  0.00    +0.155 HD
ATOM     10  H   UNL     1      38.593 -22.852 -17.134  0.00  0.00    +0.165 HD
ENDROOT
BRANCH   1  11
ATOM     11  C   UNL     1      32.427 -23.186 -16.761  0.00  0.00    +0.050 C 
ATOM     12  C   UNL     1      31.046 -23.354 -16.866  0.00  0.00    +0.010 C 
ATOM     13  C   UNL     1      30.380 -24.211 -15.990  0.00  0.00    -0.021 C 
ATOM     14  C   UNL     1      33.141 -23.875 -15.781  0.00  0.00    +0.015 C 
ATOM     15  C   UNL     1      31.094 -24.901 -15.010  0.00  0.00    -0.004 C 
ATOM     16  C   UNL     1      32.475 -24.732 -14.905  0.00  0.00    +0.001 C 
ATOM     17  C   UNL     1      28.904 -24.390 -16.101  0.00  0.00    +0.031 C 
ENDBRANCH   1  11
BRANCH   2  18
ATOM     18  C   UNL     1      37.667 -23.458 -15.446  0.00  0.00    +0.058 C 
ATOM     19  C   UNL     1      37.626 -24.475 -12.850  0.00  0.00    -0.011 C 
ATOM     20  C   UNL     1      38.208 -24.715 -15.182  0.00  0.00    +0.015 C 
ATOM     21  C   UNL     1      37.104 -22.709 -14.413  0.00  0.00    +0.015 C 
ATOM     22  C   UNL     1      38.187 -25.225 -13.883  0.00  0.00    -0.002 C 
ATOM     23  C   UNL     1      37.084 -23.217 -13.114  0.00  0.00    -0.002 C 
BRANCH  19  24
ATOM     24  C   UNL     1      37.604 -25.019 -11.461  0.00  0.00    +0.136 C 
BRANCH  24  26
ATOM     25  O   UNL     1      36.106 -24.337  -9.667  0.00  0.00    -0.250 OA
ATOM     26  C   UNL     1      36.268 -24.850 -10.766  0.00  0.00    +0.318 C 
BRANCH  26  27
ATOM     27  O   UNL     1      35.243 -25.341 -11.512  0.00  0.00    -0.480 OA
ATOM     28  H   UNL     1      34.769 -24.774 -12.087  0.00  0.00    +0.295 HD
ENDBRANCH  26  27
ENDBRANCH  24  26
ENDBRANCH  19  24
ENDBRANCH   2  18
BRANCH   6  31
ATOM     29  O   UNL     1      32.655 -21.990 -20.430  0.00  0.00    -0.270 OA
ATOM     30  N   UNL     1      33.910 -20.143 -20.951  0.00  0.00    -0.325 N 
ATOM     31  C   UNL     1      33.697 -21.331 -20.260  0.00  0.00    +0.248 C 
ATOM     32  H   UNL     1      33.239 -19.820 -21.595  0.00  0.00    +0.145 HD
ATOM     33  H   UNL     1      34.733 -19.625 -20.797  0.00  0.00    +0.145 HD
ENDBRANCH   6  31
TORSDOF 6
ENDMDL
