MODEL 1
REMARK VINA RESULT:     -12.5      0.000      0.000
REMARK  Name = 10200813
REMARK  4 active torsions:
REMARK  status: ('A' for Active; 'I' for Inactive)
REMARK    1  A    between atoms: C_3  and  C_24
REMARK    2  A    between atoms: C_8  and  C_11
REMARK    3  A    between atoms: N_10  and  C_16
REMARK    4  A    between atoms: C_24  and  C_26
REMARK                            x       y       z     vdW  Elec       q    Type
REMARK                         _______ _______ _______ _____ _____    ______ ____
ROOT
ATOM      1  O   UNL     1      35.408 -17.670 -24.225  0.00  0.00    -0.265 OA
ATOM      2  N   UNL     1      35.021 -15.816 -22.833  0.00  0.00    -0.272 N 
ATOM      3  C   UNL     1      33.341 -13.505 -22.354  0.00  0.00    +0.008 C 
ATOM      4  C   UNL     1      33.447 -14.155 -23.742  0.00  0.00    +0.022 C 
ATOM      5  C   UNL     1      33.614 -14.547 -21.258  0.00  0.00    +0.022 C 
ATOM      6  C   UNL     1      34.787 -14.866 -23.918  0.00  0.00    +0.094 C 
ATOM      7  C   UNL     1      34.950 -15.252 -21.481  0.00  0.00    +0.094 C 
ATOM      8  C   UNL     1      35.331 -17.136 -23.126  0.00  0.00    +0.303 C 
ENDROOT
BRANCH   8  11
ATOM      9  O   UNL     1      36.490 -17.662 -21.202  0.00  0.00    -0.265 OA
ATOM     10  N   UNL     1      34.784 -19.127 -21.939  0.00  0.00    -0.277 N 
ATOM     11  C   UNL     1      35.604 -18.017 -21.967  0.00  0.00    +0.303 C 
ATOM     12  H   UNL     1      34.130 -19.207 -22.671  0.00  0.00    +0.155 HD
BRANCH  10  16
ATOM     13  O   UNL     1      32.545 -22.084 -18.778  0.00  0.00    -0.407 OA
ATOM     14  O   UNL     1      32.515 -23.779 -17.205  0.00  0.00    -0.223 OA
ATOM     15  N   UNL     1      34.516 -23.113 -18.195  0.00  0.00    -0.287 N 
ATOM     16  C   UNL     1      34.780 -20.163 -20.976  0.00  0.00    +0.054 C 
ATOM     17  C   UNL     1      33.573 -20.541 -20.401  0.00  0.00    +0.054 C 
ATOM     18  C   UNL     1      35.994 -20.776 -20.637  0.00  0.00    +0.016 C 
ATOM     19  C   UNL     1      33.624 -21.556 -19.470  0.00  0.00    +0.167 A 
ATOM     20  C   UNL     1      34.815 -22.161 -19.132  0.00  0.00    +0.096 A 
ATOM     21  C   UNL     1      36.022 -21.803 -19.691  0.00  0.00    +0.022 C 
ATOM     22  C   UNL     1      33.148 -23.071 -17.977  0.00  0.00    +0.419 A 
ATOM     23  H   UNL     1      35.157 -23.718 -17.754  0.00  0.00    +0.172 HD
ENDBRANCH  10  16
ENDBRANCH   8  11
BRANCH   3  24
ATOM     24  C   UNL     1      31.972 -12.857 -22.160  0.00  0.00    +0.026 C 
BRANCH  24  26
ATOM     25  F   UNL     1      32.416  -7.684 -20.009  0.00  0.00    -0.204 F 
ATOM     26  C   UNL     1      32.090 -11.473 -21.585  0.00  0.00    -0.022 C 
ATOM     27  C   UNL     1      32.298 -10.394 -22.434  0.00  0.00    -0.002 C 
ATOM     28  C   UNL     1      31.992 -11.292 -20.212  0.00  0.00    -0.002 C 
ATOM     29  C   UNL     1      32.407  -9.110 -21.900  0.00  0.00    +0.029 C 
ATOM     30  C   UNL     1      32.102 -10.008 -19.677  0.00  0.00    +0.029 C 
ATOM     31  C   UNL     1      32.309  -8.917 -20.522  0.00  0.00    +0.140 C 
ENDBRANCH  24  26
ENDBRANCH   3  24
TORSDOF 4
ENDMDL
MODEL 2
REMARK VINA RESULT:     -12.4      4.971      7.705
REMARK  Name = 10200813
REMARK  4 active torsions:
REMARK  status: ('A' for Active; 'I' for Inactive)
REMARK    1  A    between atoms: C_3  and  C_24
REMARK    2  A    between atoms: C_8  and  C_11
REMARK    3  A    between atoms: N_10  and  C_16
REMARK    4  A    between atoms: C_24  and  C_26
REMARK                            x       y       z     vdW  Elec       q    Type
REMARK                         _______ _______ _______ _____ _____    ______ ____
ROOT
ATOM      1  O   UNL     1      32.095 -22.255 -17.926  0.00  0.00    -0.265 OA
ATOM      2  N   UNL     1      33.789 -22.086 -19.547  0.00  0.00    -0.272 N 
ATOM      3  C   UNL     1      35.244 -20.292 -21.295  0.00  0.00    +0.008 C 
ATOM      4  C   UNL     1      33.848 -19.942 -20.756  0.00  0.00    +0.022 C 
ATOM      5  C   UNL     1      35.968 -21.235 -20.321  0.00  0.00    +0.022 C 
ATOM      6  C   UNL     1      33.045 -21.203 -20.443  0.00  0.00    +0.094 C 
ATOM      7  C   UNL     1      35.125 -22.470 -20.013  0.00  0.00    +0.094 C 
ATOM      8  C   UNL     1      33.200 -22.534 -18.373  0.00  0.00    +0.303 C 
ENDROOT
BRANCH   8  11
ATOM      9  O   UNL     1      33.822 -24.662 -17.735  0.00  0.00    -0.265 OA
ATOM     10  N   UNL     1      34.859 -22.812 -16.686  0.00  0.00    -0.277 N 
ATOM     11  C   UNL     1      34.005 -23.466 -17.551  0.00  0.00    +0.303 C 
ATOM     12  H   UNL     1      34.837 -21.827 -16.712  0.00  0.00    +0.155 HD
BRANCH  10  16
ATOM     13  O   UNL     1      39.304 -24.270 -15.321  0.00  0.00    -0.407 OA
ATOM     14  O   UNL     1      40.796 -25.221 -13.832  0.00  0.00    -0.223 OA
ATOM     15  N   UNL     1      38.536 -25.034 -13.294  0.00  0.00    -0.287 N 
ATOM     16  C   UNL     1      35.760 -23.397 -15.767  0.00  0.00    +0.054 C 
ATOM     17  C   UNL     1      37.102 -23.497 -16.113  0.00  0.00    +0.054 C 
ATOM     18  C   UNL     1      35.269 -23.856 -14.537  0.00  0.00    +0.016 C 
ATOM     19  C   UNL     1      37.939 -24.074 -15.182  0.00  0.00    +0.167 A 
ATOM     20  C   UNL     1      37.461 -24.526 -13.971  0.00  0.00    +0.096 A 
ATOM     21  C   UNL     1      36.135 -24.437 -13.608  0.00  0.00    +0.022 C 
ATOM     22  C   UNL     1      39.651 -24.883 -14.103  0.00  0.00    +0.419 A 
ATOM     23  H   UNL     1      38.522 -25.435 -12.394  0.00  0.00    +0.172 HD
ENDBRANCH  10  16
ENDBRANCH   8  11
BRANCH   3  24
ATOM     24  C   UNL     1      36.064 -19.028 -21.539  0.00  0.00    +0.026 C 
BRANCH  24  26
ATOM     25  F   UNL     1      34.339 -16.300 -26.140  0.00  0.00    -0.204 F 
ATOM     26  C   UNL     1      35.603 -18.297 -22.770  0.00  0.00    -0.022 C 
ATOM     27  C   UNL     1      35.636 -16.910 -22.795  0.00  0.00    -0.002 C 
ATOM     28  C   UNL     1      35.150 -19.021 -23.865  0.00  0.00    -0.002 C 
ATOM     29  C   UNL     1      35.208 -16.233 -23.938  0.00  0.00    +0.029 C 
ATOM     30  C   UNL     1      34.722 -18.345 -25.008  0.00  0.00    +0.029 C 
ATOM     31  C   UNL     1      34.751 -16.950 -25.044  0.00  0.00    +0.140 C 
ENDBRANCH  24  26
ENDBRANCH   3  24
TORSDOF 4
ENDMDL
MODEL 3
REMARK VINA RESULT:     -12.3      4.827      7.355
REMARK  Name = 10200813
REMARK  4 active torsions:
REMARK  status: ('A' for Active; 'I' for Inactive)
REMARK    1  A    between atoms: C_3  and  C_24
REMARK    2  A    between atoms: C_8  and  C_11
REMARK    3  A    between atoms: N_10  and  C_16
REMARK    4  A    between atoms: C_24  and  C_26
REMARK                            x       y       z     vdW  Elec       q    Type
REMARK                         _______ _______ _______ _____ _____    ______ ____
ROOT
ATOM      1  O   UNL     1      32.130 -22.133 -18.155  0.00  0.00    -0.265 OA
ATOM      2  N   UNL     1      33.805 -21.895 -19.787  0.00  0.00    -0.272 N 
ATOM      3  C   UNL     1      35.218 -20.033 -21.497  0.00  0.00    +0.008 C 
ATOM      4  C   UNL     1      33.824 -19.717 -20.935  0.00  0.00    +0.022 C 
ATOM      5  C   UNL     1      35.965 -20.993 -20.557  0.00  0.00    +0.022 C 
ATOM      6  C   UNL     1      33.041 -20.997 -20.649  0.00  0.00    +0.094 C 
ATOM      7  C   UNL     1      35.141 -22.248 -20.277  0.00  0.00    +0.094 C 
ATOM      8  C   UNL     1      33.234 -22.384 -18.621  0.00  0.00    +0.303 C 
ENDROOT
BRANCH   8  11
ATOM      9  O   UNL     1      33.865 -24.522 -18.025  0.00  0.00    -0.265 OA
ATOM     10  N   UNL     1      34.942 -22.687 -16.989  0.00  0.00    -0.277 N 
ATOM     11  C   UNL     1      34.059 -23.329 -17.833  0.00  0.00    +0.303 C 
ATOM     12  H   UNL     1      34.924 -21.702 -17.003  0.00  0.00    +0.155 HD
BRANCH  10  16
ATOM     13  O   UNL     1      36.094 -25.599 -13.254  0.00  0.00    -0.407 OA
ATOM     14  O   UNL     1      37.592 -26.592 -11.799  0.00  0.00    -0.223 OA
ATOM     15  N   UNL     1      38.336 -25.129 -13.453  0.00  0.00    -0.287 N 
ATOM     16  C   UNL     1      35.869 -23.286 -16.104  0.00  0.00    +0.054 C 
ATOM     17  C   UNL     1      35.399 -24.155 -15.126  0.00  0.00    +0.054 C 
ATOM     18  C   UNL     1      37.230 -22.985 -16.245  0.00  0.00    +0.016 C 
ATOM     19  C   UNL     1      36.343 -24.712 -14.291  0.00  0.00    +0.167 A 
ATOM     20  C   UNL     1      37.682 -24.419 -14.425  0.00  0.00    +0.096 A 
ATOM     21  C   UNL     1      38.169 -23.562 -15.387  0.00  0.00    +0.022 C 
ATOM     22  C   UNL     1      37.383 -25.842 -12.744  0.00  0.00    +0.419 A 
ATOM     23  H   UNL     1      39.307 -25.132 -13.288  0.00  0.00    +0.172 HD
ENDBRANCH  10  16
ENDBRANCH   8  11
BRANCH   3  24
ATOM     24  C   UNL     1      36.020 -18.751 -21.712  0.00  0.00    +0.026 C 
BRANCH  24  26
ATOM     25  F   UNL     1      34.293 -15.971 -26.282  0.00  0.00    -0.204 F 
ATOM     26  C   UNL     1      35.557 -18.007 -22.935  0.00  0.00    -0.022 C 
ATOM     27  C   UNL     1      35.103 -18.718 -24.037  0.00  0.00    -0.002 C 
ATOM     28  C   UNL     1      35.591 -16.619 -22.945  0.00  0.00    -0.002 C 
ATOM     29  C   UNL     1      34.674 -18.028 -25.171  0.00  0.00    +0.029 C 
ATOM     30  C   UNL     1      35.162 -15.929 -24.079  0.00  0.00    +0.029 C 
ATOM     31  C   UNL     1      34.703 -16.633 -25.192  0.00  0.00    +0.140 C 
ENDBRANCH  24  26
ENDBRANCH   3  24
TORSDOF 4
ENDMDL
MODEL 4
REMARK VINA RESULT:     -11.7      5.058      7.858
REMARK  Name = 10200813
REMARK  4 active torsions:
REMARK  status: ('A' for Active; 'I' for Inactive)
REMARK    1  A    between atoms: C_3  and  C_24
REMARK    2  A    between atoms: C_8  and  C_11
REMARK    3  A    between atoms: N_10  and  C_16
REMARK    4  A    between atoms: C_24  and  C_26
REMARK                            x       y       z     vdW  Elec       q    Type
REMARK                         _______ _______ _______ _____ _____    ______ ____
ROOT
ATOM      1  O   UNL     1      31.795 -22.216 -17.994  0.00  0.00    -0.265 OA
ATOM      2  N   UNL     1      33.641 -22.128 -19.447  0.00  0.00    -0.272 N 
ATOM      3  C   UNL     1      35.245 -20.432 -21.161  0.00  0.00    +0.008 C 
ATOM      4  C   UNL     1      33.799 -20.070 -20.789  0.00  0.00    +0.022 C 
ATOM      5  C   UNL     1      35.878 -21.294 -20.058  0.00  0.00    +0.022 C 
ATOM      6  C   UNL     1      32.981 -21.320 -20.470  0.00  0.00    +0.094 C 
ATOM      7  C   UNL     1      35.020 -22.520 -19.751  0.00  0.00    +0.094 C 
ATOM      8  C   UNL     1      32.942 -22.506 -18.309  0.00  0.00    +0.303 C 
ENDROOT
BRANCH   8  11
ATOM      9  O   UNL     1      34.159 -24.397 -17.795  0.00  0.00    -0.265 OA
ATOM     10  N   UNL     1      33.680 -22.849 -16.071  0.00  0.00    -0.277 N 
ATOM     11  C   UNL     1      33.670 -23.367 -17.349  0.00  0.00    +0.303 C 
ATOM     12  H   UNL     1      33.215 -21.990 -15.943  0.00  0.00    +0.155 HD
BRANCH  10  16
ATOM     13  O   UNL     1      37.532 -23.857 -13.261  0.00  0.00    -0.407 OA
ATOM     14  O   UNL     1      38.537 -24.770 -11.390  0.00  0.00    -0.223 OA
ATOM     15  N   UNL     1      36.236 -24.949 -11.708  0.00  0.00    -0.287 N 
ATOM     16  C   UNL     1      34.282 -23.414 -14.922  0.00  0.00    +0.054 C 
ATOM     17  C   UNL     1      35.657 -23.293 -14.757  0.00  0.00    +0.054 C 
ATOM     18  C   UNL     1      33.472 -24.074 -13.990  0.00  0.00    +0.016 C 
ATOM     19  C   UNL     1      36.193 -23.860 -13.621  0.00  0.00    +0.167 A 
ATOM     20  C   UNL     1      35.401 -24.511 -12.701  0.00  0.00    +0.096 A 
ATOM     21  C   UNL     1      34.037 -24.641 -12.845  0.00  0.00    +0.022 C 
ATOM     22  C   UNL     1      37.523 -24.557 -12.041  0.00  0.00    +0.419 A 
ATOM     23  H   UNL     1      35.971 -25.451 -10.903  0.00  0.00    +0.172 HD
ENDBRANCH  10  16
ENDBRANCH   8  11
BRANCH   3  24
ATOM     24  C   UNL     1      36.073 -19.173 -21.408  0.00  0.00    +0.026 C 
BRANCH  24  26
ATOM     25  F   UNL     1      34.396 -16.467 -26.040  0.00  0.00    -0.204 F 
ATOM     26  C   UNL     1      35.624 -18.449 -22.648  0.00  0.00    -0.022 C 
ATOM     27  C   UNL     1      35.131 -19.175 -23.724  0.00  0.00    -0.002 C 
ATOM     28  C   UNL     1      35.709 -17.064 -22.700  0.00  0.00    -0.002 C 
ATOM     29  C   UNL     1      34.714 -18.503 -24.873  0.00  0.00    +0.029 C 
ATOM     30  C   UNL     1      35.293 -16.392 -23.849  0.00  0.00    +0.029 C 
ATOM     31  C   UNL     1      34.795 -17.112 -24.935  0.00  0.00    +0.140 C 
ENDBRANCH  24  26
ENDBRANCH   3  24
TORSDOF 4
ENDMDL
MODEL 5
REMARK VINA RESULT:     -11.6      3.830      6.749
REMARK  Name = 10200813
REMARK  4 active torsions:
REMARK  status: ('A' for Active; 'I' for Inactive)
REMARK    1  A    between atoms: C_3  and  C_24
REMARK    2  A    between atoms: C_8  and  C_11
REMARK    3  A    between atoms: N_10  and  C_16
REMARK    4  A    between atoms: C_24  and  C_26
REMARK                            x       y       z     vdW  Elec       q    Type
REMARK                         _______ _______ _______ _____ _____    ______ ____
ROOT
ATOM      1  O   UNL     1      32.161 -11.497 -19.215  0.00  0.00    -0.265 OA
ATOM      2  N   UNL     1      32.238 -10.320 -21.249  0.00  0.00    -0.272 N 
ATOM      3  C   UNL     1      33.228  -7.955 -22.597  0.00  0.00    +0.008 C 
ATOM      4  C   UNL     1      33.063  -8.007 -21.070  0.00  0.00    +0.022 C 
ATOM      5  C   UNL     1      33.478  -9.365 -23.153  0.00  0.00    +0.022 C 
ATOM      6  C   UNL     1      31.981  -9.005 -20.665  0.00  0.00    +0.094 C 
ATOM      7  C   UNL     1      32.389 -10.339 -22.707  0.00  0.00    +0.094 C 
ATOM      8  C   UNL     1      32.279 -11.441 -20.433  0.00  0.00    +0.303 C 
ENDROOT
BRANCH   8  11
ATOM      9  O   UNL     1      31.493 -13.367 -21.431  0.00  0.00    -0.265 OA
ATOM     10  N   UNL     1      33.831 -13.034 -21.287  0.00  0.00    -0.277 N 
ATOM     11  C   UNL     1      32.494 -12.739 -21.114  0.00  0.00    +0.303 C 
ATOM     12  H   UNL     1      34.474 -12.369 -20.947  0.00  0.00    +0.155 HD
BRANCH  10  16
ATOM     13  O   UNL     1      35.629 -17.561 -21.143  0.00  0.00    -0.407 OA
ATOM     14  O   UNL     1      36.527 -19.456 -22.118  0.00  0.00    -0.223 OA
ATOM     15  N   UNL     1      35.970 -17.602 -23.416  0.00  0.00    -0.287 N 
ATOM     16  C   UNL     1      34.382 -14.186 -21.896  0.00  0.00    +0.054 C 
ATOM     17  C   UNL     1      34.706 -15.277 -21.099  0.00  0.00    +0.054 C 
ATOM     18  C   UNL     1      34.580 -14.187 -23.283  0.00  0.00    +0.016 C 
ATOM     19  C   UNL     1      35.238 -16.374 -21.742  0.00  0.00    +0.167 A 
ATOM     20  C   UNL     1      35.435 -16.380 -23.105  0.00  0.00    +0.096 A 
ATOM     21  C   UNL     1      35.121 -15.310 -23.913  0.00  0.00    +0.022 C 
ATOM     22  C   UNL     1      36.089 -18.319 -22.236  0.00  0.00    +0.419 A 
ATOM     23  H   UNL     1      36.223 -17.916 -24.314  0.00  0.00    +0.172 HD
ENDBRANCH  10  16
ENDBRANCH   8  11
BRANCH   3  24
ATOM     24  C   UNL     1      34.359  -7.007 -22.989  0.00  0.00    +0.026 C 
BRANCH  24  26
ATOM     25  F   UNL     1      32.690  -3.269 -26.840  0.00  0.00    -0.204 F 
ATOM     26  C   UNL     1      33.912  -6.008 -24.020  0.00  0.00    -0.022 C 
ATOM     27  C   UNL     1      34.653  -5.847 -25.183  0.00  0.00    -0.002 C 
ATOM     28  C   UNL     1      32.766  -5.258 -23.794  0.00  0.00    -0.002 C 
ATOM     29  C   UNL     1      34.238  -4.919 -26.139  0.00  0.00    +0.029 C 
ATOM     30  C   UNL     1      32.351  -4.330 -24.750  0.00  0.00    +0.029 C 
ATOM     31  C   UNL     1      33.087  -4.161 -25.922  0.00  0.00    +0.140 C 
ENDBRANCH  24  26
ENDBRANCH   3  24
TORSDOF 4
ENDMDL
MODEL 6
REMARK VINA RESULT:     -11.3      4.853     10.081
REMARK  Name = 10200813
REMARK  4 active torsions:
REMARK  status: ('A' for Active; 'I' for Inactive)
REMARK    1  A    between atoms: C_3  and  C_24
REMARK    2  A    between atoms: C_8  and  C_11
REMARK    3  A    between atoms: N_10  and  C_16
REMARK    4  A    between atoms: C_24  and  C_26
REMARK                            x       y       z     vdW  Elec       q    Type
REMARK                         _______ _______ _______ _____ _____    ______ ____
ROOT
ATOM      1  O   UNL     1      38.170 -18.965 -19.465  0.00  0.00    -0.265 OA
ATOM      2  N   UNL     1      36.599 -20.599 -20.086  0.00  0.00    -0.272 N 
ATOM      3  C   UNL     1      34.477 -22.339 -19.157  0.00  0.00    +0.008 C 
ATOM      4  C   UNL     1      35.544 -21.784 -18.202  0.00  0.00    +0.022 C 
ATOM      5  C   UNL     1      34.277 -21.383 -20.343  0.00  0.00    +0.022 C 
ATOM      6  C   UNL     1      36.844 -21.477 -18.944  0.00  0.00    +0.094 C 
ATOM      7  C   UNL     1      35.600 -21.082 -21.044  0.00  0.00    +0.094 C 
ATOM      8  C   UNL     1      37.326 -19.426 -20.222  0.00  0.00    +0.303 C 
ENDROOT
BRANCH   8  11
ATOM      9  O   UNL     1      37.798 -18.790 -22.389  0.00  0.00    -0.265 OA
ATOM     10  N   UNL     1      35.957 -17.792 -21.287  0.00  0.00    -0.277 N 
ATOM     11  C   UNL     1      37.050 -18.622 -21.436  0.00  0.00    +0.303 C 
ATOM     12  H   UNL     1      35.498 -17.825 -20.416  0.00  0.00    +0.155 HD
BRANCH  10  16
ATOM     13  O   UNL     1      34.679 -16.580 -25.830  0.00  0.00    -0.407 OA
ATOM     14  O   UNL     1      33.809 -15.135 -27.413  0.00  0.00    -0.223 OA
ATOM     15  N   UNL     1      33.935 -14.508 -25.172  0.00  0.00    -0.287 N 
ATOM     16  C   UNL     1      35.425 -16.898 -22.244  0.00  0.00    +0.054 C 
ATOM     17  C   UNL     1      35.362 -17.297 -23.574  0.00  0.00    +0.054 C 
ATOM     18  C   UNL     1      34.977 -15.640 -21.819  0.00  0.00    +0.016 C 
ATOM     19  C   UNL     1      34.834 -16.389 -24.466  0.00  0.00    +0.167 A 
ATOM     20  C   UNL     1      34.392 -15.151 -24.053  0.00  0.00    +0.096 A 
ATOM     21  C   UNL     1      34.445 -14.735 -22.741  0.00  0.00    +0.022 C 
ATOM     22  C   UNL     1      34.105 -15.365 -26.247  0.00  0.00    +0.419 A 
ATOM     23  H   UNL     1      33.553 -13.600 -25.207  0.00  0.00    +0.172 HD
ENDBRANCH  10  16
ENDBRANCH   8  11
BRANCH   3  24
ATOM     24  C   UNL     1      33.160 -22.576 -18.421  0.00  0.00    +0.026 C 
BRANCH  24  26
ATOM     25  F   UNL     1      34.010 -24.749 -13.308  0.00  0.00    -0.204 F 
ATOM     26  C   UNL     1      33.387 -23.158 -17.053  0.00  0.00    -0.022 C 
ATOM     27  C   UNL     1      32.433 -22.968 -16.062  0.00  0.00    -0.002 C 
ATOM     28  C   UNL     1      34.548 -23.876 -16.799  0.00  0.00    -0.002 C 
ATOM     29  C   UNL     1      32.644 -23.508 -14.793  0.00  0.00    +0.029 C 
ATOM     30  C   UNL     1      34.759 -24.416 -15.530  0.00  0.00    +0.029 C 
ATOM     31  C   UNL     1      33.807 -24.232 -14.528  0.00  0.00    +0.140 C 
ENDBRANCH  24  26
ENDBRANCH   3  24
TORSDOF 4
ENDMDL
MODEL 7
REMARK VINA RESULT:     -11.2      5.320     10.304
REMARK  Name = 10200813
REMARK  4 active torsions:
REMARK  status: ('A' for Active; 'I' for Inactive)
REMARK    1  A    between atoms: C_3  and  C_24
REMARK    2  A    between atoms: C_8  and  C_11
REMARK    3  A    between atoms: N_10  and  C_16
REMARK    4  A    between atoms: C_24  and  C_26
REMARK                            x       y       z     vdW  Elec       q    Type
REMARK                         _______ _______ _______ _____ _____    ______ ____
ROOT
ATOM      1  O   UNL     1      33.799 -13.387 -26.686  0.00  0.00    -0.265 OA
ATOM      2  N   UNL     1      33.958 -14.722 -24.757  0.00  0.00    -0.272 N 
ATOM      3  C   UNL     1      35.162 -17.081 -23.584  0.00  0.00    +0.008 C 
ATOM      4  C   UNL     1      35.025 -16.914 -25.105  0.00  0.00    +0.022 C 
ATOM      5  C   UNL     1      35.251 -15.705 -22.905  0.00  0.00    +0.022 C 
ATOM      6  C   UNL     1      33.852 -16.001 -25.457  0.00  0.00    +0.094 C 
ATOM      7  C   UNL     1      34.076 -14.814 -23.299  0.00  0.00    +0.094 C 
ATOM      8  C   UNL     1      33.897 -13.536 -25.474  0.00  0.00    +0.303 C 
ENDROOT
BRANCH   8  11
ATOM      9  O   UNL     1      34.899 -11.536 -24.910  0.00  0.00    -0.265 OA
ATOM     10  N   UNL     1      32.916 -12.171 -23.787  0.00  0.00    -0.277 N 
ATOM     11  C   UNL     1      33.961 -12.287 -24.681  0.00  0.00    +0.303 C 
ATOM     12  H   UNL     1      32.265 -12.910 -23.776  0.00  0.00    +0.155 HD
BRANCH  10  16
ATOM     13  O   UNL     1      32.958  -7.460 -22.541  0.00  0.00    -0.407 OA
ATOM     14  O   UNL     1      32.572  -5.709 -21.081  0.00  0.00    -0.223 OA
ATOM     15  N   UNL     1      32.074  -7.901 -20.466  0.00  0.00    -0.287 N 
ATOM     16  C   UNL     1      32.676 -11.110 -22.883  0.00  0.00    +0.054 C 
ATOM     17  C   UNL     1      32.983  -9.812 -23.275  0.00  0.00    +0.054 C 
ATOM     18  C   UNL     1      32.136 -11.403 -21.624  0.00  0.00    +0.016 C 
ATOM     19  C   UNL     1      32.729  -8.815 -22.358  0.00  0.00    +0.167 A 
ATOM     20  C   UNL     1      32.199  -9.098 -21.118  0.00  0.00    +0.096 A 
ATOM     21  C   UNL     1      31.887 -10.376 -20.710  0.00  0.00    +0.022 C 
ATOM     22  C   UNL     1      32.531  -6.909 -21.319  0.00  0.00    +0.419 A 
ATOM     23  H   UNL     1      31.723  -7.767 -19.555  0.00  0.00    +0.172 HD
ENDBRANCH  10  16
ENDBRANCH   8  11
BRANCH   3  24
ATOM     24  C   UNL     1      36.379 -17.937 -23.240  0.00  0.00    +0.026 C 
BRANCH  24  26
ATOM     25  F   UNL     1      35.168 -21.772 -19.314  0.00  0.00    -0.204 F 
ATOM     26  C   UNL     1      36.055 -18.963 -22.189  0.00  0.00    -0.022 C 
ATOM     27  C   UNL     1      37.056 -19.410 -21.337  0.00  0.00    -0.002 C 
ATOM     28  C   UNL     1      34.759 -19.450 -22.085  0.00  0.00    -0.002 C 
ATOM     29  C   UNL     1      36.755 -20.361 -20.363  0.00  0.00    +0.029 C 
ATOM     30  C   UNL     1      34.458 -20.402 -21.110  0.00  0.00    +0.029 C 
ATOM     31  C   UNL     1      35.456 -20.857 -20.249  0.00  0.00    +0.140 C 
ENDBRANCH  24  26
ENDBRANCH   3  24
TORSDOF 4
ENDMDL
MODEL 8
REMARK VINA RESULT:     -11.0      4.846      7.590
REMARK  Name = 10200813
REMARK  4 active torsions:
REMARK  status: ('A' for Active; 'I' for Inactive)
REMARK    1  A    between atoms: C_3  and  C_24
REMARK    2  A    between atoms: C_8  and  C_11
REMARK    3  A    between atoms: N_10  and  C_16
REMARK    4  A    between atoms: C_24  and  C_26
REMARK                            x       y       z     vdW  Elec       q    Type
REMARK                         _______ _______ _______ _____ _____    ______ ____
ROOT
ATOM      1  O   UNL     1      32.218 -10.731 -19.043  0.00  0.00    -0.265 OA
ATOM      2  N   UNL     1      32.241  -9.714 -21.162  0.00  0.00    -0.272 N 
ATOM      3  C   UNL     1      33.296  -7.531 -22.747  0.00  0.00    +0.008 C 
ATOM      4  C   UNL     1      33.229  -7.460 -21.214  0.00  0.00    +0.022 C 
ATOM      5  C   UNL     1      33.414  -8.993 -23.206  0.00  0.00    +0.022 C 
ATOM      6  C   UNL     1      32.111  -8.345 -20.668  0.00  0.00    +0.094 C 
ATOM      7  C   UNL     1      32.294  -9.851 -22.621  0.00  0.00    +0.094 C 
ATOM      8  C   UNL     1      32.260 -10.773 -20.266  0.00  0.00    +0.303 C 
ENDROOT
BRANCH   8  11
ATOM      9  O   UNL     1      31.308 -12.784 -20.877  0.00  0.00    -0.265 OA
ATOM     10  N   UNL     1      33.610 -12.440 -21.301  0.00  0.00    -0.277 N 
ATOM     11  C   UNL     1      32.342 -12.129 -20.856  0.00  0.00    +0.303 C 
ATOM     12  H   UNL     1      34.299 -11.746 -21.180  0.00  0.00    +0.155 HD
BRANCH  10  16
ATOM     13  O   UNL     1      34.244 -15.337 -25.168  0.00  0.00    -0.407 OA
ATOM     14  O   UNL     1      34.930 -17.297 -26.186  0.00  0.00    -0.223 OA
ATOM     15  N   UNL     1      35.171 -17.006 -23.887  0.00  0.00    -0.287 N 
ATOM     16  C   UNL     1      34.032 -13.644 -21.911  0.00  0.00    +0.054 C 
ATOM     17  C   UNL     1      33.877 -13.792 -23.284  0.00  0.00    +0.054 C 
ATOM     18  C   UNL     1      34.594 -14.647 -21.110  0.00  0.00    +0.016 C 
ATOM     19  C   UNL     1      34.305 -14.984 -23.829  0.00  0.00    +0.167 A 
ATOM     20  C   UNL     1      34.858 -15.973 -23.045  0.00  0.00    +0.096 A 
ATOM     21  C   UNL     1      35.022 -15.847 -21.684  0.00  0.00    +0.022 C 
ATOM     22  C   UNL     1      34.803 -16.629 -25.168  0.00  0.00    +0.419 A 
ATOM     23  H   UNL     1      35.583 -17.863 -23.629  0.00  0.00    +0.172 HD
ENDBRANCH  10  16
ENDBRANCH   8  11
BRANCH   3  24
ATOM     24  C   UNL     1      34.461  -6.699 -23.279  0.00  0.00    +0.026 C 
BRANCH  24  26
ATOM     25  F   UNL     1      32.824  -3.247 -27.402  0.00  0.00    -0.204 F 
ATOM     26  C   UNL     1      34.023  -5.775 -24.382  0.00  0.00    -0.022 C 
ATOM     27  C   UNL     1      32.895  -4.986 -24.206  0.00  0.00    -0.002 C 
ATOM     28  C   UNL     1      34.753  -5.725 -25.562  0.00  0.00    -0.002 C 
ATOM     29  C   UNL     1      32.489  -4.129 -25.229  0.00  0.00    +0.029 C 
ATOM     30  C   UNL     1      34.347  -4.868 -26.586  0.00  0.00    +0.029 C 
ATOM     31  C   UNL     1      33.216  -4.070 -26.419  0.00  0.00    +0.140 C 
ENDBRANCH  24  26
ENDBRANCH   3  24
TORSDOF 4
ENDMDL
MODEL 9
REMARK VINA RESULT:     -10.7      4.909     10.262
REMARK  Name = 10200813
REMARK  4 active torsions:
REMARK  status: ('A' for Active; 'I' for Inactive)
REMARK    1  A    between atoms: C_3  and  C_24
REMARK    2  A    between atoms: C_8  and  C_11
REMARK    3  A    between atoms: N_10  and  C_16
REMARK    4  A    between atoms: C_24  and  C_26
REMARK                            x       y       z     vdW  Elec       q    Type
REMARK                         _______ _______ _______ _____ _____    ______ ____
ROOT
ATOM      1  O   UNL     1      37.730 -19.036 -21.119  0.00  0.00    -0.265 OA
ATOM      2  N   UNL     1      35.742 -20.287 -21.033  0.00  0.00    -0.272 N 
ATOM      3  C   UNL     1      34.175 -22.169 -19.484  0.00  0.00    +0.008 C 
ATOM      4  C   UNL     1      35.693 -22.026 -19.290  0.00  0.00    +0.022 C 
ATOM      5  C   UNL     1      33.579 -20.847 -19.993  0.00  0.00    +0.022 C 
ATOM      6  C   UNL     1      36.367 -21.522 -20.564  0.00  0.00    +0.094 C 
ATOM      7  C   UNL     1      34.294 -20.363 -21.253  0.00  0.00    +0.094 C 
ATOM      8  C   UNL     1      36.523 -19.168 -21.279  0.00  0.00    +0.303 C 
ENDROOT
BRANCH   8  11
ATOM      9  O   UNL     1      35.348 -17.206 -20.971  0.00  0.00    -0.265 OA
ATOM     10  N   UNL     1      35.798 -17.928 -23.180  0.00  0.00    -0.277 N 
ATOM     11  C   UNL     1      35.814 -17.976 -21.801  0.00  0.00    +0.303 C 
ATOM     12  H   UNL     1      36.245 -18.670 -23.649  0.00  0.00    +0.155 HD
BRANCH  10  16
ATOM     13  O   UNL     1      34.651 -13.306 -24.213  0.00  0.00    -0.407 OA
ATOM     14  O   UNL     1      33.698 -11.662 -25.531  0.00  0.00    -0.223 OA
ATOM     15  N   UNL     1      33.598 -13.902 -26.167  0.00  0.00    -0.287 N 
ATOM     16  C   UNL     1      35.209 -16.933 -23.994  0.00  0.00    +0.054 C 
ATOM     17  C   UNL     1      35.282 -15.605 -23.592  0.00  0.00    +0.054 C 
ATOM     18  C   UNL     1      34.573 -17.321 -25.181  0.00  0.00    +0.016 C 
ATOM     19  C   UNL     1      34.694 -14.675 -24.422  0.00  0.00    +0.167 A 
ATOM     20  C   UNL     1      34.067 -15.051 -25.590  0.00  0.00    +0.096 A 
ATOM     21  C   UNL     1      33.983 -16.361 -26.007  0.00  0.00    +0.022 C 
ATOM     22  C   UNL     1      33.948 -12.846 -25.341  0.00  0.00    +0.419 A 
ATOM     23  H   UNL     1      33.103 -13.836 -27.016  0.00  0.00    +0.172 HD
ENDBRANCH  10  16
ENDBRANCH   8  11
BRANCH   3  24
ATOM     24  C   UNL     1      33.501 -22.605 -18.186  0.00  0.00    +0.026 C 
BRANCH  24  26
ATOM     25  F   UNL     1      37.251 -24.423 -14.415  0.00  0.00    -0.204 F 
ATOM     26  C   UNL     1      34.504 -23.091 -17.176  0.00  0.00    -0.022 C 
ATOM     27  C   UNL     1      35.696 -22.400 -17.010  0.00  0.00    -0.002 C 
ATOM     28  C   UNL     1      34.225 -24.225 -16.425  0.00  0.00    -0.002 C 
ATOM     29  C   UNL     1      36.627 -22.851 -16.073  0.00  0.00    +0.029 C 
ATOM     30  C   UNL     1      35.155 -24.676 -15.489  0.00  0.00    +0.029 C 
ATOM     31  C   UNL     1      36.356 -23.989 -15.313  0.00  0.00    +0.140 C 
ENDBRANCH  24  26
ENDBRANCH   3  24
TORSDOF 4
ENDMDL
