MODEL 1
REMARK VINA RESULT:     -11.4      0.000      0.000
REMARK  Name = 11442891
REMARK  5 active torsions:
REMARK  status: ('A' for Active; 'I' for Inactive)
REMARK    1  A    between atoms: C_12  and  C_30
REMARK    2  A    between atoms: C_13  and  C_19
REMARK    3  A    between atoms: C_16  and  N_22
REMARK    4  A    between atoms: C_30  and  C_31
REMARK    5  A    between atoms: C_30  and  O_37
REMARK                            x       y       z     vdW  Elec       q    Type
REMARK                         _______ _______ _______ _____ _____    ______ ____
ROOT
ATOM      1  O   UNL     1      32.739 -11.859 -21.685  0.00  0.00    -0.271 OA
ATOM      2  O   UNL     1      35.864 -19.327 -24.018  0.00  0.00    -0.270 OA
ATOM      3  N   UNL     1      33.692 -13.071 -23.410  0.00  0.00    -0.231 N 
ATOM      4  N   UNL     1      35.181 -15.463 -25.643  0.00  0.00    -0.273 N 
ATOM      5  N   UNL     1      35.352 -16.680 -25.069  0.00  0.00    -0.157 NA
ATOM      6  N   UNL     1      34.861 -17.530 -22.879  0.00  0.00    -0.264 N 
ATOM      7  C   UNL     1      33.804 -14.339 -22.616  0.00  0.00    +0.077 C 
ATOM      8  C   UNL     1      34.412 -15.226 -23.609  0.00  0.00    +0.067 A 
ATOM      9  C   UNL     1      34.207 -13.184 -24.816  0.00  0.00    +0.091 C 
ATOM     10  C   UNL     1      34.621 -14.584 -24.790  0.00  0.00    +0.093 A 
ATOM     11  C   UNL     1      34.877 -16.520 -23.819  0.00  0.00    +0.157 A 
ATOM     12  C   UNL     1      33.153 -11.925 -22.843  0.00  0.00    +0.265 C 
ATOM     13  C   UNL     1      35.340 -18.838 -23.023  0.00  0.00    +0.251 C 
ATOM     14  H   UNL     1      35.433 -15.249 -26.570  0.00  0.00    +0.189 HD
ATOM     15  H   UNL     1      34.467 -17.305 -22.005  0.00  0.00    +0.157 HD
ENDROOT
BRANCH  13  19
ATOM     16  C   UNL     1      34.971 -21.312 -19.554  0.00  0.00    +0.048 C 
ATOM     17  C   UNL     1      33.830 -20.916 -20.253  0.00  0.00    +0.015 C 
ATOM     18  C   UNL     1      36.231 -20.901 -19.986  0.00  0.00    +0.015 C 
ATOM     19  C   UNL     1      35.212 -19.698 -21.817  0.00  0.00    +0.054 C 
ATOM     20  C   UNL     1      33.951 -20.109 -21.384  0.00  0.00    +0.006 C 
ATOM     21  C   UNL     1      36.352 -20.094 -21.118  0.00  0.00    +0.006 C 
BRANCH  16  22
ATOM     22  N   UNL     1      34.850 -22.120 -18.418  0.00  0.00    -0.312 N 
ATOM     23  N   UNL     1      34.672 -23.970 -16.249  0.00  0.00    +0.388 N 
ATOM     24  C   UNL     1      36.039 -22.430 -17.618  0.00  0.00    +0.068 C 
ATOM     25  C   UNL     1      33.792 -23.137 -18.403  0.00  0.00    +0.068 C 
ATOM     26  C   UNL     1      35.639 -22.865 -16.206  0.00  0.00    -0.056 C 
ATOM     27  C   UNL     1      33.463 -23.547 -16.966  0.00  0.00    -0.056 C 
ATOM     28  C   UNL     1      34.338 -24.413 -14.896  0.00  0.00    -0.101 C 
ATOM     29  H   UNL     1      35.092 -24.756 -16.745  0.00  0.00    -0.080 HD
ENDBRANCH  16  22
ENDBRANCH  13  19
BRANCH  12  30
ATOM     30  C   UNL     1      33.098 -10.719 -23.747  0.00  0.00    +0.214 C 
BRANCH  30  31
ATOM     31  C   UNL     1      32.600  -9.512 -23.004  0.00  0.00    +0.013 C 
ATOM     32  C   UNL     1      31.851  -8.543 -23.670  0.00  0.00    -0.001 C 
ATOM     33  C   UNL     1      32.888  -9.361 -21.647  0.00  0.00    -0.001 C 
ATOM     34  C   UNL     1      31.389  -7.422 -22.981  0.00  0.00    -0.000 C 
ATOM     35  C   UNL     1      32.427  -8.240 -20.957  0.00  0.00    -0.000 C 
ATOM     36  C   UNL     1      31.677  -7.270 -21.623  0.00  0.00    -0.000 C 
ENDBRANCH  30  31
BRANCH  30  37
ATOM     37  O   UNL     1      34.407 -10.504 -24.238  0.00  0.00    -0.340 OA
ATOM     38  C   UNL     1      34.806  -9.144 -24.098  0.00  0.00    +0.175 C 
ENDBRANCH  30  37
ENDBRANCH  12  30
TORSDOF 5
ENDMDL
MODEL 2
REMARK VINA RESULT:     -10.2      1.713      2.816
REMARK  Name = 11442891
REMARK  5 active torsions:
REMARK  status: ('A' for Active; 'I' for Inactive)
REMARK    1  A    between atoms: C_12  and  C_30
REMARK    2  A    between atoms: C_13  and  C_19
REMARK    3  A    between atoms: C_16  and  N_22
REMARK    4  A    between atoms: C_30  and  C_31
REMARK    5  A    between atoms: C_30  and  O_37
REMARK                            x       y       z     vdW  Elec       q    Type
REMARK                         _______ _______ _______ _____ _____    ______ ____
ROOT
ATOM      1  O   UNL     1      33.311  -9.690 -22.069  0.00  0.00    -0.271 OA
ATOM      2  O   UNL     1      35.011 -16.966 -25.961  0.00  0.00    -0.270 OA
ATOM      3  N   UNL     1      33.666 -10.722 -24.108  0.00  0.00    -0.231 N 
ATOM      4  N   UNL     1      34.293 -12.888 -26.908  0.00  0.00    -0.273 N 
ATOM      5  N   UNL     1      34.494 -14.178 -26.538  0.00  0.00    -0.157 NA
ATOM      6  N   UNL     1      34.512 -15.275 -24.404  0.00  0.00    -0.264 N 
ATOM      7  C   UNL     1      33.862 -12.087 -23.518  0.00  0.00    +0.077 C 
ATOM      8  C   UNL     1      34.105 -12.872 -24.729  0.00  0.00    +0.067 A 
ATOM      9  C   UNL     1      33.785 -10.682 -25.605  0.00  0.00    +0.091 C 
ATOM     10  C   UNL     1      34.059 -12.096 -25.844  0.00  0.00    +0.093 A 
ATOM     11  C   UNL     1      34.376 -14.154 -25.197  0.00  0.00    +0.157 A 
ATOM     12  C   UNL     1      33.402  -9.629 -23.296  0.00  0.00    +0.265 C 
ATOM     13  C   UNL     1      34.813 -16.580 -24.814  0.00  0.00    +0.251 C 
ATOM     14  H   UNL     1      34.314 -12.571 -27.839  0.00  0.00    +0.189 HD
ATOM     15  H   UNL     1      34.381 -15.142 -23.437  0.00  0.00    +0.157 HD
ENDROOT
BRANCH  13  19
ATOM     16  C   UNL     1      35.129 -19.458 -21.666  0.00  0.00    +0.048 C 
ATOM     17  C   UNL     1      34.668 -19.848 -22.924  0.00  0.00    +0.015 C 
ATOM     18  C   UNL     1      35.487 -18.130 -21.435  0.00  0.00    +0.015 C 
ATOM     19  C   UNL     1      34.923 -17.580 -23.720  0.00  0.00    +0.054 C 
ATOM     20  C   UNL     1      34.565 -18.909 -23.951  0.00  0.00    +0.006 C 
ATOM     21  C   UNL     1      35.383 -17.191 -22.462  0.00  0.00    +0.006 C 
BRANCH  16  22
ATOM     22  N   UNL     1      35.231 -20.399 -20.636  0.00  0.00    -0.312 N 
ATOM     23  N   UNL     1      35.432 -22.504 -18.716  0.00  0.00    +0.388 N 
ATOM     24  C   UNL     1      36.546 -20.940 -20.275  0.00  0.00    +0.068 C 
ATOM     25  C   UNL     1      34.090 -21.291 -20.400  0.00  0.00    +0.068 C 
ATOM     26  C   UNL     1      36.516 -21.523 -18.859  0.00  0.00    -0.056 C 
ATOM     27  C   UNL     1      34.139 -21.861 -18.980  0.00  0.00    -0.056 C 
ATOM     28  C   UNL     1      35.447 -23.093 -17.377  0.00  0.00    -0.101 C 
ATOM     29  H   UNL     1      35.573 -23.252 -19.393  0.00  0.00    -0.080 HD
ENDBRANCH  16  22
ENDBRANCH  13  19
BRANCH  12  30
ATOM     30  C   UNL     1      33.226  -8.315 -24.013  0.00  0.00    +0.214 C 
BRANCH  30  31
ATOM     31  C   UNL     1      32.443  -7.345 -23.175  0.00  0.00    +0.013 C 
ATOM     32  C   UNL     1      33.016  -6.791 -22.030  0.00  0.00    -0.001 C 
ATOM     33  C   UNL     1      31.143  -6.998 -23.541  0.00  0.00    -0.001 C 
ATOM     34  C   UNL     1      32.290  -5.891 -21.252  0.00  0.00    -0.000 C 
ATOM     35  C   UNL     1      30.415  -6.098 -22.763  0.00  0.00    -0.000 C 
ATOM     36  C   UNL     1      30.988  -5.544 -21.618  0.00  0.00    -0.000 C 
ENDBRANCH  30  31
BRANCH  30  37
ATOM     37  O   UNL     1      34.520  -7.812 -24.289  0.00  0.00    -0.340 OA
ATOM     38  C   UNL     1      34.467  -6.556 -24.958  0.00  0.00    +0.175 C 
ENDBRANCH  30  37
ENDBRANCH  12  30
TORSDOF 5
ENDMDL
MODEL 3
REMARK VINA RESULT:      -9.8      1.506      2.290
REMARK  Name = 11442891
REMARK  5 active torsions:
REMARK  status: ('A' for Active; 'I' for Inactive)
REMARK    1  A    between atoms: C_12  and  C_30
REMARK    2  A    between atoms: C_13  and  C_19
REMARK    3  A    between atoms: C_16  and  N_22
REMARK    4  A    between atoms: C_30  and  C_31
REMARK    5  A    between atoms: C_30  and  O_37
REMARK                            x       y       z     vdW  Elec       q    Type
REMARK                         _______ _______ _______ _____ _____    ______ ____
ROOT
ATOM      1  O   UNL     1      32.864 -13.237 -20.751  0.00  0.00    -0.271 OA
ATOM      2  O   UNL     1      36.912 -20.480 -22.212  0.00  0.00    -0.270 OA
ATOM      3  N   UNL     1      34.008 -14.498 -22.316  0.00  0.00    -0.231 N 
ATOM      4  N   UNL     1      35.839 -16.912 -24.252  0.00  0.00    -0.273 N 
ATOM      5  N   UNL     1      36.131 -18.035 -23.548  0.00  0.00    -0.157 NA
ATOM      6  N   UNL     1      35.670 -18.707 -21.292  0.00  0.00    -0.264 N 
ATOM      7  C   UNL     1      34.241 -15.655 -21.391  0.00  0.00    +0.077 C 
ATOM      8  C   UNL     1      34.980 -16.560 -22.271  0.00  0.00    +0.067 A 
ATOM      9  C   UNL     1      34.580 -14.693 -23.691  0.00  0.00    +0.091 C 
ATOM     10  C   UNL     1      35.153 -16.023 -23.508  0.00  0.00    +0.093 A 
ATOM     11  C   UNL     1      35.599 -17.805 -22.333  0.00  0.00    +0.157 A 
ATOM     12  C   UNL     1      33.322 -13.372 -21.886  0.00  0.00    +0.265 C 
ATOM     13  C   UNL     1      36.302 -19.957 -21.286  0.00  0.00    +0.251 C 
ATOM     14  H   UNL     1      36.095 -16.766 -25.191  0.00  0.00    +0.189 HD
ATOM     15  H   UNL     1      35.223 -18.442 -20.455  0.00  0.00    +0.157 HD
ENDROOT
BRANCH  13  19
ATOM     16  C   UNL     1      36.108 -22.087 -17.582  0.00  0.00    +0.048 C 
ATOM     17  C   UNL     1      35.093 -22.237 -18.527  0.00  0.00    +0.015 C 
ATOM     18  C   UNL     1      37.187 -21.242 -17.845  0.00  0.00    +0.015 C 
ATOM     19  C   UNL     1      36.235 -20.697 -19.998  0.00  0.00    +0.054 C 
ATOM     20  C   UNL     1      35.156 -21.542 -19.735  0.00  0.00    +0.006 C 
ATOM     21  C   UNL     1      37.250 -20.547 -19.053  0.00  0.00    +0.006 C 
BRANCH  16  22
ATOM     22  N   UNL     1      36.044 -22.782 -16.370  0.00  0.00    -0.312 N 
ATOM     23  N   UNL     1      35.935 -24.421 -14.033  0.00  0.00    +0.388 N 
ATOM     24  C   UNL     1      37.284 -23.189 -15.700  0.00  0.00    +0.068 C 
ATOM     25  C   UNL     1      34.879 -23.642 -16.127  0.00  0.00    +0.068 C 
ATOM     26  C   UNL     1      37.028 -23.457 -14.214  0.00  0.00    -0.056 C 
ATOM     27  C   UNL     1      34.701 -23.893 -14.628  0.00  0.00    -0.056 C 
ATOM     28  C   UNL     1      35.737 -24.709 -12.613  0.00  0.00    -0.101 C 
ATOM     29  H   UNL     1      36.182 -25.291 -14.502  0.00  0.00    -0.080 HD
ENDBRANCH  16  22
ENDBRANCH  13  19
BRANCH  12  30
ATOM     30  C   UNL     1      33.156 -12.281 -22.914  0.00  0.00    +0.214 C 
BRANCH  30  31
ATOM     31  C   UNL     1      32.720 -10.996 -22.269  0.00  0.00    +0.013 C 
ATOM     32  C   UNL     1      32.291 -10.993 -20.941  0.00  0.00    -0.001 C 
ATOM     33  C   UNL     1      32.743  -9.807 -22.997  0.00  0.00    -0.001 C 
ATOM     34  C   UNL     1      31.885  -9.801 -20.342  0.00  0.00    -0.000 C 
ATOM     35  C   UNL     1      32.337  -8.614 -22.398  0.00  0.00    -0.000 C 
ATOM     36  C   UNL     1      31.908  -8.611 -21.071  0.00  0.00    -0.000 C 
ENDBRANCH  30  31
BRANCH  30  37
ATOM     37  O   UNL     1      34.405 -12.121 -23.559  0.00  0.00    -0.340 OA
ATOM     38  C   UNL     1      34.249 -11.790 -24.936  0.00  0.00    +0.175 C 
ENDBRANCH  30  37
ENDBRANCH  12  30
TORSDOF 5
ENDMDL
MODEL 4
REMARK VINA RESULT:      -9.8      2.833     12.112
REMARK  Name = 11442891
REMARK  5 active torsions:
REMARK  status: ('A' for Active; 'I' for Inactive)
REMARK    1  A    between atoms: C_12  and  C_30
REMARK    2  A    between atoms: C_13  and  C_19
REMARK    3  A    between atoms: C_16  and  N_22
REMARK    4  A    between atoms: C_30  and  C_31
REMARK    5  A    between atoms: C_30  and  O_37
REMARK                            x       y       z     vdW  Elec       q    Type
REMARK                         _______ _______ _______ _____ _____    ______ ____
ROOT
ATOM      1  O   UNL     1      30.939 -21.969 -17.286  0.00  0.00    -0.271 OA
ATOM      2  O   UNL     1      36.829 -18.847 -22.437  0.00  0.00    -0.270 OA
ATOM      3  N   UNL     1      32.940 -22.388 -18.367  0.00  0.00    -0.231 N 
ATOM      4  N   UNL     1      35.982 -22.408 -20.284  0.00  0.00    -0.273 N 
ATOM      5  N   UNL     1      36.203 -21.235 -20.929  0.00  0.00    -0.157 NA
ATOM      6  N   UNL     1      34.969 -19.181 -21.037  0.00  0.00    -0.264 N 
ATOM      7  C   UNL     1      33.019 -21.032 -19.002  0.00  0.00    +0.077 C 
ATOM      8  C   UNL     1      34.274 -21.153 -19.744  0.00  0.00    +0.067 A 
ATOM      9  C   UNL     1      34.093 -23.288 -18.708  0.00  0.00    +0.091 C 
ATOM     10  C   UNL     1      34.839 -22.378 -19.572  0.00  0.00    +0.093 A 
ATOM     11  C   UNL     1      35.146 -20.474 -20.590  0.00  0.00    +0.157 A 
ATOM     12  C   UNL     1      31.873 -22.727 -17.548  0.00  0.00    +0.265 C 
ATOM     13  C   UNL     1      35.793 -18.458 -21.909  0.00  0.00    +0.251 C 
ATOM     14  H   UNL     1      36.584 -23.186 -20.329  0.00  0.00    +0.189 HD
ATOM     15  H   UNL     1      34.170 -18.710 -20.703  0.00  0.00    +0.157 HD
ENDROOT
BRANCH  13  19
ATOM     16  C   UNL     1      34.449 -14.507 -22.843  0.00  0.00    +0.048 C 
ATOM     17  C   UNL     1      34.809 -15.382 -23.868  0.00  0.00    +0.015 C 
ATOM     18  C   UNL     1      34.528 -14.920 -21.513  0.00  0.00    +0.015 C 
ATOM     19  C   UNL     1      35.326 -17.084 -22.233  0.00  0.00    +0.054 C 
ATOM     20  C   UNL     1      35.247 -16.671 -23.563  0.00  0.00    +0.006 C 
ATOM     21  C   UNL     1      34.966 -16.209 -21.208  0.00  0.00    +0.006 C 
BRANCH  16  22
ATOM     22  N   UNL     1      34.011 -13.214 -23.148  0.00  0.00    -0.312 N 
ATOM     23  N   UNL     1      32.967 -10.680 -23.955  0.00  0.00    +0.388 N 
ATOM     24  C   UNL     1      32.765 -12.711 -22.559  0.00  0.00    +0.068 C 
ATOM     25  C   UNL     1      34.363 -12.656 -24.459  0.00  0.00    +0.068 C 
ATOM     26  C   UNL     1      32.733 -11.181 -22.594  0.00  0.00    -0.056 C 
ATOM     27  C   UNL     1      34.281 -11.128 -24.432  0.00  0.00    -0.056 C 
ATOM     28  C   UNL     1      32.881  -9.221 -23.986  0.00  0.00    -0.101 C 
ATOM     29  H   UNL     1      32.247 -11.054 -24.572  0.00  0.00    -0.080 HD
ENDBRANCH  16  22
ENDBRANCH  13  19
BRANCH  12  30
ATOM     30  C   UNL     1      31.915 -24.121 -16.973  0.00  0.00    +0.214 C 
BRANCH  30  31
ATOM     31  C   UNL     1      32.739 -24.161 -15.718  0.00  0.00    +0.013 C 
ATOM     32  C   UNL     1      34.044 -24.653 -15.756  0.00  0.00    -0.001 C 
ATOM     33  C   UNL     1      32.201 -23.706 -14.515  0.00  0.00    -0.001 C 
ATOM     34  C   UNL     1      34.810 -24.690 -14.592  0.00  0.00    -0.000 C 
ATOM     35  C   UNL     1      32.966 -23.743 -13.349  0.00  0.00    -0.000 C 
ATOM     36  C   UNL     1      34.271 -24.236 -13.387  0.00  0.00    -0.000 C 
ENDBRANCH  30  31
BRANCH  30  37
ATOM     37  O   UNL     1      30.579 -24.505 -16.710  0.00  0.00    -0.340 OA
ATOM     38  C   UNL     1      30.515 -25.687 -15.919  0.00  0.00    +0.175 C 
ENDBRANCH  30  37
ENDBRANCH  12  30
TORSDOF 5
ENDMDL
MODEL 5
REMARK VINA RESULT:      -9.4      1.909      3.751
REMARK  Name = 11442891
REMARK  5 active torsions:
REMARK  status: ('A' for Active; 'I' for Inactive)
REMARK    1  A    between atoms: C_12  and  C_30
REMARK    2  A    between atoms: C_13  and  C_19
REMARK    3  A    between atoms: C_16  and  N_22
REMARK    4  A    between atoms: C_30  and  C_31
REMARK    5  A    between atoms: C_30  and  O_37
REMARK                            x       y       z     vdW  Elec       q    Type
REMARK                         _______ _______ _______ _____ _____    ______ ____
ROOT
ATOM      1  O   UNL     1      32.724 -13.602 -21.459  0.00  0.00    -0.271 OA
ATOM      2  O   UNL     1      36.643 -21.061 -21.488  0.00  0.00    -0.270 OA
ATOM      3  N   UNL     1      34.335 -14.904 -22.489  0.00  0.00    -0.231 N 
ATOM      4  N   UNL     1      36.662 -17.395 -23.633  0.00  0.00    -0.273 N 
ATOM      5  N   UNL     1      36.590 -18.547 -22.919  0.00  0.00    -0.157 NA
ATOM      6  N   UNL     1      35.228 -19.230 -21.066  0.00  0.00    -0.264 N 
ATOM      7  C   UNL     1      34.117 -16.091 -21.598  0.00  0.00    +0.077 C 
ATOM      8  C   UNL     1      35.100 -17.025 -22.147  0.00  0.00    +0.067 A 
ATOM      9  C   UNL     1      35.399 -15.110 -23.528  0.00  0.00    +0.091 C 
ATOM     10  C   UNL     1      35.782 -16.477 -23.188  0.00  0.00    +0.093 A 
ATOM     11  C   UNL     1      35.627 -18.306 -22.010  0.00  0.00    +0.157 A 
ATOM     12  C   UNL     1      33.592 -13.745 -22.321  0.00  0.00    +0.265 C 
ATOM     13  C   UNL     1      35.740 -20.517 -20.861  0.00  0.00    +0.251 C 
ATOM     14  H   UNL     1      37.281 -17.248 -24.384  0.00  0.00    +0.189 HD
ATOM     15  H   UNL     1      34.497 -18.952 -20.467  0.00  0.00    +0.157 HD
ENDROOT
BRANCH  13  19
ATOM     16  C   UNL     1      33.967 -22.699 -17.638  0.00  0.00    +0.048 C 
ATOM     17  C   UNL     1      33.165 -22.186 -18.658  0.00  0.00    +0.015 C 
ATOM     18  C   UNL     1      35.347 -22.500 -17.670  0.00  0.00    +0.015 C 
ATOM     19  C   UNL     1      35.124 -21.276 -19.741  0.00  0.00    +0.054 C 
ATOM     20  C   UNL     1      33.743 -21.475 -19.709  0.00  0.00    +0.006 C 
ATOM     21  C   UNL     1      35.925 -21.788 -18.721  0.00  0.00    +0.006 C 
BRANCH  16  22
ATOM     22  N   UNL     1      33.387 -23.411 -16.583  0.00  0.00    -0.312 N 
ATOM     23  N   UNL     1      32.173 -25.063 -14.594  0.00  0.00    +0.388 N 
ATOM     24  C   UNL     1      34.211 -24.324 -15.784  0.00  0.00    +0.068 C 
ATOM     25  C   UNL     1      31.966 -23.764 -16.686  0.00  0.00    +0.068 C 
ATOM     26  C   UNL     1      33.554 -24.592 -14.427  0.00  0.00    -0.056 C 
ATOM     27  C   UNL     1      31.382 -24.048 -15.300  0.00  0.00    -0.056 C 
ATOM     28  C   UNL     1      31.575 -25.367 -13.295  0.00  0.00    -0.101 C 
ATOM     29  H   UNL     1      32.181 -25.919 -15.147  0.00  0.00    -0.080 HD
ENDBRANCH  16  22
ENDBRANCH  13  19
BRANCH  12  30
ATOM     30  C   UNL     1      33.909 -12.627 -23.282  0.00  0.00    +0.214 C 
BRANCH  30  31
ATOM     31  C   UNL     1      33.776 -13.087 -24.705  0.00  0.00    +0.013 C 
ATOM     32  C   UNL     1      33.220 -14.335 -24.986  0.00  0.00    -0.001 C 
ATOM     33  C   UNL     1      34.210 -12.267 -25.747  0.00  0.00    -0.001 C 
ATOM     34  C   UNL     1      33.097 -14.763 -26.308  0.00  0.00    -0.000 C 
ATOM     35  C   UNL     1      34.088 -12.694 -27.069  0.00  0.00    -0.000 C 
ATOM     36  C   UNL     1      33.531 -13.942 -27.350  0.00  0.00    -0.000 C 
ENDBRANCH  30  31
BRANCH  30  37
ATOM     37  O   UNL     1      33.007 -11.572 -23.007  0.00  0.00    -0.340 OA
ATOM     38  C   UNL     1      33.476 -10.329 -23.522  0.00  0.00    +0.175 C 
ENDBRANCH  30  37
ENDBRANCH  12  30
TORSDOF 5
ENDMDL
MODEL 6
REMARK VINA RESULT:      -9.3      3.831     12.187
REMARK  Name = 11442891
REMARK  5 active torsions:
REMARK  status: ('A' for Active; 'I' for Inactive)
REMARK    1  A    between atoms: C_12  and  C_30
REMARK    2  A    between atoms: C_13  and  C_19
REMARK    3  A    between atoms: C_16  and  N_22
REMARK    4  A    between atoms: C_30  and  C_31
REMARK    5  A    between atoms: C_30  and  O_37
REMARK                            x       y       z     vdW  Elec       q    Type
REMARK                         _______ _______ _______ _____ _____    ______ ____
ROOT
ATOM      1  O   UNL     1      30.216 -22.717 -17.514  0.00  0.00    -0.271 OA
ATOM      2  O   UNL     1      37.317 -19.962 -21.116  0.00  0.00    -0.270 OA
ATOM      3  N   UNL     1      32.512 -22.968 -17.635  0.00  0.00    -0.231 N 
ATOM      4  N   UNL     1      36.048 -22.854 -18.275  0.00  0.00    -0.273 N 
ATOM      5  N   UNL     1      36.387 -21.896 -19.174  0.00  0.00    -0.157 NA
ATOM      6  N   UNL     1      35.098 -20.290 -20.404  0.00  0.00    -0.264 N 
ATOM      7  C   UNL     1      32.699 -21.868 -18.639  0.00  0.00    +0.077 C 
ATOM      8  C   UNL     1      34.150 -21.912 -18.819  0.00  0.00    +0.067 A 
ATOM      9  C   UNL     1      33.789 -23.645 -17.228  0.00  0.00    +0.091 C 
ATOM     10  C   UNL     1      34.720 -22.878 -18.050  0.00  0.00    +0.093 A 
ATOM     11  C   UNL     1      35.213 -21.327 -19.502  0.00  0.00    +0.157 A 
ATOM     12  C   UNL     1      31.248 -23.288 -17.162  0.00  0.00    +0.265 C 
ATOM     13  C   UNL     1      36.123 -19.681 -21.141  0.00  0.00    +0.251 C 
ATOM     14  H   UNL     1      36.693 -23.456 -17.838  0.00  0.00    +0.189 HD
ATOM     15  H   UNL     1      34.191 -19.935 -20.548  0.00  0.00    +0.157 HD
ENDROOT
BRANCH  13  19
ATOM     16  C   UNL     1      34.870 -16.570 -23.794  0.00  0.00    +0.048 C 
ATOM     17  C   UNL     1      35.177 -16.273 -22.466  0.00  0.00    +0.015 C 
ATOM     18  C   UNL     1      34.972 -17.882 -24.256  0.00  0.00    +0.015 C 
ATOM     19  C   UNL     1      35.688 -18.600 -22.063  0.00  0.00    +0.054 C 
ATOM     20  C   UNL     1      35.586 -17.288 -21.600  0.00  0.00    +0.006 C 
ATOM     21  C   UNL     1      35.381 -18.897 -23.391  0.00  0.00    +0.006 C 
BRANCH  16  22
ATOM     22  N   UNL     1      34.459 -15.553 -24.661  0.00  0.00    -0.312 N 
ATOM     23  N   UNL     1      33.375 -13.562 -26.400  0.00  0.00    +0.388 N 
ATOM     24  C   UNL     1      33.986 -14.277 -24.113  0.00  0.00    +0.068 C 
ATOM     25  C   UNL     1      33.884 -15.939 -25.955  0.00  0.00    +0.068 C 
ATOM     26  C   UNL     1      34.075 -13.172 -25.169  0.00  0.00    -0.056 C 
ATOM     27  C   UNL     1      33.978 -14.781 -26.952  0.00  0.00    -0.056 C 
ATOM     28  C   UNL     1      33.421 -12.478 -27.381  0.00  0.00    -0.101 C 
ATOM     29  H   UNL     1      32.398 -13.748 -26.179  0.00  0.00    -0.080 HD
ENDBRANCH  16  22
ENDBRANCH  13  19
BRANCH  12  30
ATOM     30  C   UNL     1      31.198 -24.412 -16.158  0.00  0.00    +0.214 C 
BRANCH  30  31
ATOM     31  C   UNL     1      32.017 -24.085 -14.942  0.00  0.00    +0.013 C 
ATOM     32  C   UNL     1      33.165 -24.823 -14.655  0.00  0.00    -0.001 C 
ATOM     33  C   UNL     1      31.630 -23.043 -14.099  0.00  0.00    -0.001 C 
ATOM     34  C   UNL     1      33.926 -24.520 -13.527  0.00  0.00    -0.000 C 
ATOM     35  C   UNL     1      32.390 -22.739 -12.970  0.00  0.00    -0.000 C 
ATOM     36  C   UNL     1      33.538 -23.477 -12.683  0.00  0.00    -0.000 C 
ENDBRANCH  30  31
BRANCH  30  37
ATOM     37  O   UNL     1      29.839 -24.604 -15.813  0.00  0.00    -0.340 OA
ATOM     38  C   UNL     1      29.653 -25.783 -15.036  0.00  0.00    +0.175 C 
ENDBRANCH  30  37
ENDBRANCH  12  30
TORSDOF 5
ENDMDL
