MODEL 1
REMARK VINA RESULT:     -11.0      0.000      0.000
REMARK  Name = 216210
REMARK  9 active torsions:
REMARK  status: ('A' for Active; 'I' for Inactive)
REMARK    1  A    between atoms: C_4  and  C_26
REMARK    2  A    between atoms: C_6  and  C_13
REMARK    3  A    between atoms: N_12  and  C_20
REMARK    4  A    between atoms: C_20  and  C_21
REMARK    5  A    between atoms: C_21  and  C_23
REMARK    6  A    between atoms: C_23  and  O_24
REMARK    7  A    between atoms: C_26  and  N_27
REMARK    8  A    between atoms: N_27  and  C_29
REMARK    9  A    between atoms: C_34  and  C_37
REMARK                            x       y       z     vdW  Elec       q    Type
REMARK                         _______ _______ _______ _____ _____    ______ ____
ROOT
ATOM      1  N   UNL     1      34.391 -15.911 -25.057  0.00  0.00    -0.261 N 
ATOM      2  N   UNL     1      35.229 -15.243 -23.111  0.00  0.00    -0.388 NA
ATOM      3  C   UNL     1      34.227 -14.551 -24.923  0.00  0.00    +0.079 C 
ATOM      4  C   UNL     1      34.993 -16.292 -23.954  0.00  0.00    +0.184 C 
ATOM      5  C   UNL     1      34.746 -14.108 -23.710  0.00  0.00    +0.146 C 
ATOM      6  C   UNL     1      34.131 -11.860 -24.191  0.00  0.00    +0.039 C 
ATOM      7  C   UNL     1      34.717 -12.772 -23.306  0.00  0.00    +0.034 C 
ATOM      8  C   UNL     1      33.641 -13.621 -25.799  0.00  0.00    -0.004 C 
ATOM      9  C   UNL     1      33.603 -12.275 -25.415  0.00  0.00    +0.058 C 
ATOM     10  C   UNL     1      33.980 -16.718 -26.181  0.00  0.00    +0.120 C 
ENDROOT
BRANCH   6  13
ATOM     11  O   UNL     1      35.122  -9.810 -23.973  0.00  0.00    -0.270 OA
ATOM     12  N   UNL     1      32.848  -9.918 -23.343  0.00  0.00    -0.240 N 
ATOM     13  C   UNL     1      34.072 -10.452 -23.826  0.00  0.00    +0.250 C 
ATOM     14  N   UNL     1      33.411  -7.767 -24.268  0.00  0.00    -0.229 NA
ATOM     15  C   UNL     1      32.526  -8.524 -23.584  0.00  0.00    +0.138 C 
ATOM     16  C   UNL     1      31.319  -8.054 -23.092  0.00  0.00    +0.035 C 
ATOM     17  C   UNL     1      31.001  -6.719 -23.316  0.00  0.00    +0.004 C 
ATOM     18  C   UNL     1      33.069  -6.474 -24.467  0.00  0.00    +0.100 C 
ATOM     19  C   UNL     1      31.887  -5.908 -24.016  0.00  0.00    +0.021 C 
BRANCH  12  20
ATOM     20  C   UNL     1      31.904 -10.769 -22.601  0.00  0.00    +0.112 C 
BRANCH  20  21
ATOM     21  C   UNL     1      32.211 -10.797 -21.109  0.00  0.00    +0.131 C 
BRANCH  21  23
ATOM     22  O   UNL     1      31.847 -12.367 -19.280  0.00  0.00    -0.250 OA
ATOM     23  C   UNL     1      31.952 -12.149 -20.479  0.00  0.00    +0.316 C 
BRANCH  23  24
ATOM     24  O   UNL     1      31.836 -13.121 -21.421  0.00  0.00    -0.480 OA
ATOM     25  H   UNL     1      31.856 -12.896 -22.331  0.00  0.00    +0.295 HD
ENDBRANCH  23  24
ENDBRANCH  21  23
ENDBRANCH  20  21
ENDBRANCH  12  20
ENDBRANCH   6  13
BRANCH   4  26
ATOM     26  C   UNL     1      35.365 -17.696 -23.681  0.00  0.00    +0.164 C 
BRANCH  26  27
ATOM     27  N   UNL     1      35.982 -17.933 -22.381  0.00  0.00    -0.326 N 
ATOM     28  H   UNL     1      36.636 -17.277 -22.047  0.00  0.00    +0.147 HD
BRANCH  27  29
ATOM     29  C   UNL     1      35.695 -19.030 -21.598  0.00  0.00    +0.045 C 
ATOM     30  C   UNL     1      36.721 -19.695 -20.927  0.00  0.00    +0.014 C 
ATOM     31  C   UNL     1      34.378 -19.477 -21.479  0.00  0.00    +0.014 C 
ATOM     32  C   UNL     1      36.431 -20.807 -20.137  0.00  0.00    +0.004 C 
ATOM     33  C   UNL     1      34.089 -20.588 -20.689  0.00  0.00    +0.004 C 
ATOM     34  C   UNL     1      35.115 -21.254 -20.017  0.00  0.00    +0.031 C 
BRANCH  34  37
ATOM     35  N   UNL     1      33.825 -23.326 -19.561  0.00  0.00    -0.343 N 
ATOM     36  N   UNL     1      35.475 -22.613 -18.069  0.00  0.00    -0.285 NA
ATOM     37  C   UNL     1      34.812 -22.413 -19.193  0.00  0.00    +0.117 C 
ATOM     38  H   UNL     1      33.636 -24.104 -18.988  0.00  0.00    +0.144 HD
ATOM     39  H   UNL     1      33.316 -23.193 -20.393  0.00  0.00    +0.144 HD
ATOM     40  H   UNL     1      35.272 -23.396 -17.509  0.00  0.00    +0.188 HD
ENDBRANCH  34  37
ENDBRANCH  27  29
ENDBRANCH  26  27
ENDBRANCH   4  26
TORSDOF 9
ENDMDL
MODEL 2
REMARK VINA RESULT:     -10.6      1.610      3.011
REMARK  Name = 216210
REMARK  9 active torsions:
REMARK  status: ('A' for Active; 'I' for Inactive)
REMARK    1  A    between atoms: C_4  and  C_26
REMARK    2  A    between atoms: C_6  and  C_13
REMARK    3  A    between atoms: N_12  and  C_20
REMARK    4  A    between atoms: C_20  and  C_21
REMARK    5  A    between atoms: C_21  and  C_23
REMARK    6  A    between atoms: C_23  and  O_24
REMARK    7  A    between atoms: C_26  and  N_27
REMARK    8  A    between atoms: N_27  and  C_29
REMARK    9  A    between atoms: C_34  and  C_37
REMARK                            x       y       z     vdW  Elec       q    Type
REMARK                         _______ _______ _______ _____ _____    ______ ____
ROOT
ATOM      1  N   UNL     1      35.037 -16.486 -24.194  0.00  0.00    -0.261 N 
ATOM      2  N   UNL     1      35.236 -16.027 -22.028  0.00  0.00    -0.388 NA
ATOM      3  C   UNL     1      34.325 -15.348 -23.892  0.00  0.00    +0.079 C 
ATOM      4  C   UNL     1      35.570 -16.867 -23.054  0.00  0.00    +0.184 C 
ATOM      5  C   UNL     1      34.434 -15.040 -22.539  0.00  0.00    +0.146 C 
ATOM      6  C   UNL     1      33.050 -13.120 -22.795  0.00  0.00    +0.039 C 
ATOM      7  C   UNL     1      33.814 -13.936 -21.952  0.00  0.00    +0.034 C 
ATOM      8  C   UNL     1      33.553 -14.518 -24.724  0.00  0.00    -0.004 C 
ATOM      9  C   UNL     1      32.922 -13.404 -24.156  0.00  0.00    +0.058 C 
ATOM     10  C   UNL     1      35.157 -17.104 -25.492  0.00  0.00    +0.120 C 
ENDROOT
BRANCH   6  13
ATOM     11  O   UNL     1      31.558 -12.179 -21.340  0.00  0.00    -0.270 OA
ATOM     12  N   UNL     1      32.702 -10.669 -22.751  0.00  0.00    -0.240 N 
ATOM     13  C   UNL     1      32.379 -11.955 -22.241  0.00  0.00    +0.250 C 
ATOM     14  N   UNL     1      32.220  -9.687 -20.605  0.00  0.00    -0.229 NA
ATOM     15  C   UNL     1      32.613  -9.508 -21.885  0.00  0.00    +0.138 C 
ATOM     16  C   UNL     1      32.938  -8.277 -22.432  0.00  0.00    +0.035 C 
ATOM     17  C   UNL     1      32.855  -7.158 -21.611  0.00  0.00    +0.004 C 
ATOM     18  C   UNL     1      32.150  -8.577 -19.837  0.00  0.00    +0.100 C 
ATOM     19  C   UNL     1      32.455  -7.302 -20.287  0.00  0.00    +0.021 C 
BRANCH  12  20
ATOM     20  C   UNL     1      33.127 -10.505 -24.150  0.00  0.00    +0.112 C 
BRANCH  20  21
ATOM     21  C   UNL     1      34.615 -10.206 -24.264  0.00  0.00    +0.131 C 
BRANCH  21  23
ATOM     22  O   UNL     1      34.758 -11.610 -26.252  0.00  0.00    -0.250 OA
ATOM     23  C   UNL     1      35.226 -10.725 -25.549  0.00  0.00    +0.316 C 
BRANCH  23  24
ATOM     24  O   UNL     1      36.380 -10.072 -25.848  0.00  0.00    -0.480 OA
ATOM     25  H   UNL     1      37.011  -9.905 -25.175  0.00  0.00    +0.295 HD
ENDBRANCH  23  24
ENDBRANCH  21  23
ENDBRANCH  20  21
ENDBRANCH  12  20
ENDBRANCH   6  13
BRANCH   4  26
ATOM     26  C   UNL     1      36.427 -18.063 -22.924  0.00  0.00    +0.164 C 
BRANCH  26  27
ATOM     27  N   UNL     1      36.634 -18.531 -21.560  0.00  0.00    -0.326 N 
ATOM     28  H   UNL     1      37.317 -18.083 -21.009  0.00  0.00    +0.147 HD
BRANCH  27  29
ATOM     29  C   UNL     1      35.923 -19.572 -21.003  0.00  0.00    +0.045 C 
ATOM     30  C   UNL     1      36.585 -20.554 -20.264  0.00  0.00    +0.014 C 
ATOM     31  C   UNL     1      34.541 -19.645 -21.180  0.00  0.00    +0.014 C 
ATOM     32  C   UNL     1      35.865 -21.607 -19.703  0.00  0.00    +0.004 C 
ATOM     33  C   UNL     1      33.821 -20.699 -20.618  0.00  0.00    +0.004 C 
ATOM     34  C   UNL     1      34.483 -21.681 -19.880  0.00  0.00    +0.031 C 
BRANCH  34  37
ATOM     35  N   UNL     1      32.677 -22.549 -18.414  0.00  0.00    -0.343 N 
ATOM     36  N   UNL     1      34.051 -24.027 -19.591  0.00  0.00    -0.285 NA
ATOM     37  C   UNL     1      33.732 -22.780 -19.294  0.00  0.00    +0.117 C 
ATOM     38  H   UNL     1      32.181 -23.308 -18.029  0.00  0.00    +0.144 HD
ATOM     39  H   UNL     1      32.425 -21.627 -18.177  0.00  0.00    +0.144 HD
ATOM     40  H   UNL     1      33.544 -24.772 -19.196  0.00  0.00    +0.188 HD
ENDBRANCH  34  37
ENDBRANCH  27  29
ENDBRANCH  26  27
ENDBRANCH   4  26
TORSDOF 9
ENDMDL
MODEL 3
REMARK VINA RESULT:     -10.5      5.564     13.153
REMARK  Name = 216210
REMARK  9 active torsions:
REMARK  status: ('A' for Active; 'I' for Inactive)
REMARK    1  A    between atoms: C_4  and  C_26
REMARK    2  A    between atoms: C_6  and  C_13
REMARK    3  A    between atoms: N_12  and  C_20
REMARK    4  A    between atoms: C_20  and  C_21
REMARK    5  A    between atoms: C_21  and  C_23
REMARK    6  A    between atoms: C_23  and  O_24
REMARK    7  A    between atoms: C_26  and  N_27
REMARK    8  A    between atoms: N_27  and  C_29
REMARK    9  A    between atoms: C_34  and  C_37
REMARK                            x       y       z     vdW  Elec       q    Type
REMARK                         _______ _______ _______ _____ _____    ______ ____
ROOT
ATOM      1  N   UNL     1      34.220 -20.937 -20.284  0.00  0.00    -0.261 N 
ATOM      2  N   UNL     1      36.353 -20.874 -19.664  0.00  0.00    -0.388 NA
ATOM      3  C   UNL     1      34.411 -21.750 -19.189  0.00  0.00    +0.079 C 
ATOM      4  C   UNL     1      35.404 -20.429 -20.541  0.00  0.00    +0.184 C 
ATOM      5  C   UNL     1      35.742 -21.726 -18.782  0.00  0.00    +0.146 C 
ATOM      6  C   UNL     1      35.295 -23.243 -17.003  0.00  0.00    +0.039 C 
ATOM      7  C   UNL     1      36.223 -22.458 -17.695  0.00  0.00    +0.034 C 
ATOM      8  C   UNL     1      33.492 -22.545 -18.483  0.00  0.00    -0.004 C 
ATOM      9  C   UNL     1      33.953 -23.287 -17.388  0.00  0.00    +0.058 C 
ATOM     10  C   UNL     1      32.975 -20.711 -20.977  0.00  0.00    +0.120 C 
ENDROOT
BRANCH   6  13
ATOM     11  O   UNL     1      36.734 -24.741 -16.046  0.00  0.00    -0.270 OA
ATOM     12  N   UNL     1      35.020 -23.927 -14.639  0.00  0.00    -0.240 N 
ATOM     13  C   UNL     1      35.737 -24.028 -15.861  0.00  0.00    +0.250 C 
ATOM     14  N   UNL     1      37.039 -24.382 -13.407  0.00  0.00    -0.229 NA
ATOM     15  C   UNL     1      35.715 -24.113 -13.379  0.00  0.00    +0.138 C 
ATOM     16  C   UNL     1      34.970 -24.004 -12.216  0.00  0.00    +0.035 C 
ATOM     17  C   UNL     1      35.626 -24.182 -11.003  0.00  0.00    +0.004 C 
ATOM     18  C   UNL     1      37.644 -24.549 -12.209  0.00  0.00    +0.100 C 
ATOM     19  C   UNL     1      36.989 -24.459 -10.991  0.00  0.00    +0.021 C 
BRANCH  12  20
ATOM     20  C   UNL     1      33.578 -23.633 -14.641  0.00  0.00    +0.112 C 
BRANCH  20  21
ATOM     21  C   UNL     1      32.739 -24.891 -14.460  0.00  0.00    +0.131 C 
BRANCH  21  23
ATOM     22  O   UNL     1      31.316 -23.776 -12.824  0.00  0.00    -0.250 OA
ATOM     23  C   UNL     1      31.471 -24.647 -13.668  0.00  0.00    +0.316 C 
BRANCH  23  24
ATOM     24  O   UNL     1      30.493 -25.524 -14.018  0.00  0.00    -0.480 OA
ATOM     25  H   UNL     1      30.589 -26.050 -14.788  0.00  0.00    +0.295 HD
ENDBRANCH  23  24
ENDBRANCH  21  23
ENDBRANCH  20  21
ENDBRANCH  12  20
ENDBRANCH   6  13
BRANCH   4  26
ATOM     26  C   UNL     1      35.654 -19.488 -21.652  0.00  0.00    +0.164 C 
BRANCH  26  27
ATOM     27  N   UNL     1      35.890 -18.106 -21.253  0.00  0.00    -0.326 N 
ATOM     28  H   UNL     1      36.360 -17.938 -20.404  0.00  0.00    +0.147 HD
BRANCH  27  29
ATOM     29  C   UNL     1      35.485 -17.023 -22.003  0.00  0.00    +0.045 C 
ATOM     30  C   UNL     1      34.949 -15.899 -21.374  0.00  0.00    +0.014 C 
ATOM     31  C   UNL     1      35.609 -17.053 -23.393  0.00  0.00    +0.014 C 
ATOM     32  C   UNL     1      34.538 -14.806 -22.134  0.00  0.00    +0.004 C 
ATOM     33  C   UNL     1      35.198 -15.958 -24.152  0.00  0.00    +0.004 C 
ATOM     34  C   UNL     1      34.662 -14.834 -23.523  0.00  0.00    +0.031 C 
BRANCH  34  37
ATOM     35  N   UNL     1      34.589 -12.392 -23.965  0.00  0.00    -0.343 N 
ATOM     36  N   UNL     1      33.487 -13.880 -25.389  0.00  0.00    -0.285 NA
ATOM     37  C   UNL     1      34.233 -13.693 -24.316  0.00  0.00    +0.117 C 
ATOM     38  H   UNL     1      34.287 -11.633 -24.516  0.00  0.00    +0.144 HD
ATOM     39  H   UNL     1      35.142 -12.230 -23.167  0.00  0.00    +0.144 HD
ATOM     40  H   UNL     1      33.195 -13.109 -25.927  0.00  0.00    +0.188 HD
ENDBRANCH  34  37
ENDBRANCH  27  29
ENDBRANCH  26  27
ENDBRANCH   4  26
TORSDOF 9
ENDMDL
MODEL 4
REMARK VINA RESULT:     -10.2      5.797     13.292
REMARK  Name = 216210
REMARK  9 active torsions:
REMARK  status: ('A' for Active; 'I' for Inactive)
REMARK    1  A    between atoms: C_4  and  C_26
REMARK    2  A    between atoms: C_6  and  C_13
REMARK    3  A    between atoms: N_12  and  C_20
REMARK    4  A    between atoms: C_20  and  C_21
REMARK    5  A    between atoms: C_21  and  C_23
REMARK    6  A    between atoms: C_23  and  O_24
REMARK    7  A    between atoms: C_26  and  N_27
REMARK    8  A    between atoms: N_27  and  C_29
REMARK    9  A    between atoms: C_34  and  C_37
REMARK                            x       y       z     vdW  Elec       q    Type
REMARK                         _______ _______ _______ _____ _____    ______ ____
ROOT
ATOM      1  N   UNL     1      34.641 -20.979 -20.475  0.00  0.00    -0.261 N 
ATOM      2  N   UNL     1      36.788 -20.502 -20.161  0.00  0.00    -0.388 NA
ATOM      3  C   UNL     1      35.074 -21.538 -19.293  0.00  0.00    +0.079 C 
ATOM      4  C   UNL     1      35.693 -20.367 -20.968  0.00  0.00    +0.184 C 
ATOM      5  C   UNL     1      36.418 -21.252 -19.075  0.00  0.00    +0.146 C 
ATOM      6  C   UNL     1      36.410 -22.458 -17.022  0.00  0.00    +0.039 C 
ATOM      7  C   UNL     1      37.123 -21.693 -17.953  0.00  0.00    +0.034 C 
ATOM      8  C   UNL     1      34.374 -22.309 -18.349  0.00  0.00    -0.004 C 
ATOM      9  C   UNL     1      35.061 -22.761 -17.215  0.00  0.00    +0.058 C 
ATOM     10  C   UNL     1      33.310 -21.063 -21.026  0.00  0.00    +0.120 C 
ENDROOT
BRANCH   6  13
ATOM     11  O   UNL     1      38.221 -22.480 -15.625  0.00  0.00    -0.270 OA
ATOM     12  N   UNL     1      36.433 -23.894 -15.005  0.00  0.00    -0.240 N 
ATOM     13  C   UNL     1      37.091 -22.946 -15.832  0.00  0.00    +0.250 C 
ATOM     14  N   UNL     1      37.588 -23.028 -13.078  0.00  0.00    -0.229 NA
ATOM     15  C   UNL     1      36.705 -23.919 -13.580  0.00  0.00    +0.138 C 
ATOM     16  C   UNL     1      36.037 -24.864 -12.819  0.00  0.00    +0.035 C 
ATOM     17  C   UNL     1      36.291 -24.897 -11.452  0.00  0.00    +0.004 C 
ATOM     18  C   UNL     1      37.811 -23.090 -11.746  0.00  0.00    +0.100 C 
ATOM     19  C   UNL     1      37.194 -23.996 -10.898  0.00  0.00    +0.021 C 
BRANCH  12  20
ATOM     20  C   UNL     1      35.476 -24.852 -15.582  0.00  0.00    +0.112 C 
BRANCH  20  21
ATOM     21  C   UNL     1      35.758 -26.281 -15.136  0.00  0.00    +0.131 C 
BRANCH  21  23
ATOM     22  O   UNL     1      38.151 -26.716 -15.301  0.00  0.00    -0.250 OA
ATOM     23  C   UNL     1      37.021 -26.852 -15.747  0.00  0.00    +0.316 C 
BRANCH  23  24
ATOM     24  O   UNL     1      36.748 -27.560 -16.874  0.00  0.00    -0.480 OA
ATOM     25  H   UNL     1      37.416 -27.692 -17.518  0.00  0.00    +0.295 HD
ENDBRANCH  23  24
ENDBRANCH  21  23
ENDBRANCH  20  21
ENDBRANCH  12  20
ENDBRANCH   6  13
BRANCH   4  26
ATOM     26  C   UNL     1      35.670 -19.624 -22.244  0.00  0.00    +0.164 C 
BRANCH  26  27
ATOM     27  N   UNL     1      35.984 -18.204 -22.141  0.00  0.00    -0.326 N 
ATOM     28  H   UNL     1      36.615 -17.914 -21.443  0.00  0.00    +0.147 HD
BRANCH  27  29
ATOM     29  C   UNL     1      35.441 -17.248 -22.972  0.00  0.00    +0.045 C 
ATOM     30  C   UNL     1      35.180 -17.552 -24.308  0.00  0.00    +0.014 C 
ATOM     31  C   UNL     1      35.154 -15.976 -22.477  0.00  0.00    +0.014 C 
ATOM     32  C   UNL     1      34.633 -16.584 -25.149  0.00  0.00    +0.004 C 
ATOM     33  C   UNL     1      34.606 -15.008 -23.318  0.00  0.00    +0.004 C 
ATOM     34  C   UNL     1      34.346 -15.311 -24.654  0.00  0.00    +0.031 C 
BRANCH  34  37
ATOM     35  N   UNL     1      33.976 -12.942 -25.298  0.00  0.00    -0.343 N 
ATOM     36  N   UNL     1      33.045 -14.668 -26.569  0.00  0.00    -0.285 NA
ATOM     37  C   UNL     1      33.774 -14.301 -25.531  0.00  0.00    +0.117 C 
ATOM     38  H   UNL     1      33.580 -12.274 -25.905  0.00  0.00    +0.144 HD
ATOM     39  H   UNL     1      34.514 -12.648 -24.528  0.00  0.00    +0.144 HD
ATOM     40  H   UNL     1      32.657 -13.986 -27.164  0.00  0.00    +0.188 HD
ENDBRANCH  34  37
ENDBRANCH  27  29
ENDBRANCH  26  27
ENDBRANCH   4  26
TORSDOF 9
ENDMDL
MODEL 5
REMARK VINA RESULT:      -9.9      3.186     10.643
REMARK  Name = 216210
REMARK  9 active torsions:
REMARK  status: ('A' for Active; 'I' for Inactive)
REMARK    1  A    between atoms: C_4  and  C_26
REMARK    2  A    between atoms: C_6  and  C_13
REMARK    3  A    between atoms: N_12  and  C_20
REMARK    4  A    between atoms: C_20  and  C_21
REMARK    5  A    between atoms: C_21  and  C_23
REMARK    6  A    between atoms: C_23  and  O_24
REMARK    7  A    between atoms: C_26  and  N_27
REMARK    8  A    between atoms: N_27  and  C_29
REMARK    9  A    between atoms: C_34  and  C_37
REMARK                            x       y       z     vdW  Elec       q    Type
REMARK                         _______ _______ _______ _____ _____    ______ ____
ROOT
ATOM      1  N   UNL     1      34.222 -15.461 -24.571  0.00  0.00    -0.261 N 
ATOM      2  N   UNL     1      34.535 -14.907 -22.442  0.00  0.00    -0.388 NA
ATOM      3  C   UNL     1      34.891 -16.473 -23.921  0.00  0.00    +0.079 C 
ATOM      4  C   UNL     1      34.026 -14.539 -23.656  0.00  0.00    +0.184 C 
ATOM      5  C   UNL     1      35.099 -16.148 -22.584  0.00  0.00    +0.146 C 
ATOM      6  C   UNL     1      36.210 -18.215 -22.185  0.00  0.00    +0.039 C 
ATOM      7  C   UNL     1      35.753 -16.991 -21.684  0.00  0.00    +0.034 C 
ATOM      8  C   UNL     1      35.357 -17.706 -24.408  0.00  0.00    -0.004 C 
ATOM      9  C   UNL     1      36.016 -18.568 -23.522  0.00  0.00    +0.058 C 
ATOM     10  C   UNL     1      33.832 -15.445 -25.961  0.00  0.00    +0.120 C 
ENDROOT
BRANCH   6  13
ATOM     11  O   UNL     1      38.096 -18.889 -21.079  0.00  0.00    -0.270 OA
ATOM     12  N   UNL     1      36.179 -20.227 -20.741  0.00  0.00    -0.240 N 
ATOM     13  C   UNL     1      36.900 -19.136 -21.295  0.00  0.00    +0.250 C 
ATOM     14  N   UNL     1      37.578 -20.170 -18.782  0.00  0.00    -0.229 NA
ATOM     15  C   UNL     1      36.546 -20.746 -19.437  0.00  0.00    +0.138 C 
ATOM     16  C   UNL     1      35.810 -21.811 -18.944  0.00  0.00    +0.035 C 
ATOM     17  C   UNL     1      36.155 -22.317 -17.695  0.00  0.00    +0.004 C 
ATOM     18  C   UNL     1      37.885 -20.688 -17.571  0.00  0.00    +0.100 C 
ATOM     19  C   UNL     1      37.211 -21.750 -16.990  0.00  0.00    +0.021 C 
BRANCH  12  20
ATOM     20  C   UNL     1      35.060 -20.834 -21.480  0.00  0.00    +0.112 C 
BRANCH  20  21
ATOM     21  C   UNL     1      33.715 -20.261 -21.053  0.00  0.00    +0.131 C 
BRANCH  21  23
ATOM     22  O   UNL     1      32.302 -20.808 -19.144  0.00  0.00    -0.250 OA
ATOM     23  C   UNL     1      32.957 -21.171 -20.110  0.00  0.00    +0.316 C 
BRANCH  23  24
ATOM     24  O   UNL     1      33.082 -22.474 -20.474  0.00  0.00    -0.480 OA
ATOM     25  H   UNL     1      33.576 -23.065 -19.939  0.00  0.00    +0.295 HD
ENDBRANCH  23  24
ENDBRANCH  21  23
ENDBRANCH  20  21
ENDBRANCH  12  20
ENDBRANCH   6  13
BRANCH   4  26
ATOM     26  C   UNL     1      33.331 -13.265 -23.931  0.00  0.00    +0.164 C 
BRANCH  26  27
ATOM     27  N   UNL     1      32.451 -12.797 -22.867  0.00  0.00    -0.326 N 
ATOM     28  H   UNL     1      31.843 -13.445 -22.443  0.00  0.00    +0.147 HD
BRANCH  27  29
ATOM     29  C   UNL     1      32.426 -11.491 -22.427  0.00  0.00    +0.045 C 
ATOM     30  C   UNL     1      31.837 -11.178 -21.202  0.00  0.00    +0.014 C 
ATOM     31  C   UNL     1      32.988 -10.481 -23.209  0.00  0.00    +0.014 C 
ATOM     32  C   UNL     1      31.810  -9.857 -20.758  0.00  0.00    +0.004 C 
ATOM     33  C   UNL     1      32.962  -9.160 -22.764  0.00  0.00    +0.004 C 
ATOM     34  C   UNL     1      32.373  -8.847 -21.539  0.00  0.00    +0.031 C 
BRANCH  34  37
ATOM     35  N   UNL     1      31.493  -6.528 -21.652  0.00  0.00    -0.343 N 
ATOM     36  N   UNL     1      33.142  -7.088 -20.095  0.00  0.00    -0.285 NA
ATOM     37  C   UNL     1      32.345  -7.468 -21.076  0.00  0.00    +0.117 C 
ATOM     38  H   UNL     1      31.490  -5.599 -21.323  0.00  0.00    +0.144 HD
ATOM     39  H   UNL     1      30.893  -6.791 -22.387  0.00  0.00    +0.144 HD
ATOM     40  H   UNL     1      33.125  -6.155 -19.780  0.00  0.00    +0.188 HD
ENDBRANCH  34  37
ENDBRANCH  27  29
ENDBRANCH  26  27
ENDBRANCH   4  26
TORSDOF 9
ENDMDL
MODEL 6
REMARK VINA RESULT:      -9.8      3.594      7.058
REMARK  Name = 216210
REMARK  9 active torsions:
REMARK  status: ('A' for Active; 'I' for Inactive)
REMARK    1  A    between atoms: C_4  and  C_26
REMARK    2  A    between atoms: C_6  and  C_13
REMARK    3  A    between atoms: N_12  and  C_20
REMARK    4  A    between atoms: C_20  and  C_21
REMARK    5  A    between atoms: C_21  and  C_23
REMARK    6  A    between atoms: C_23  and  O_24
REMARK    7  A    between atoms: C_26  and  N_27
REMARK    8  A    between atoms: N_27  and  C_29
REMARK    9  A    between atoms: C_34  and  C_37
REMARK                            x       y       z     vdW  Elec       q    Type
REMARK                         _______ _______ _______ _____ _____    ______ ____
ROOT
ATOM      1  N   UNL     1      35.675 -21.218 -19.744  0.00  0.00    -0.261 N 
ATOM      2  N   UNL     1      33.743 -20.922 -20.802  0.00  0.00    -0.388 NA
ATOM      3  C   UNL     1      35.825 -20.269 -20.730  0.00  0.00    +0.079 C 
ATOM      4  C   UNL     1      34.416 -21.588 -19.816  0.00  0.00    +0.184 C 
ATOM      5  C   UNL     1      34.627 -20.066 -21.408  0.00  0.00    +0.146 C 
ATOM      6  C   UNL     1      35.626 -18.434 -22.823  0.00  0.00    +0.039 C 
ATOM      7  C   UNL     1      34.486 -19.159 -22.459  0.00  0.00    +0.034 C 
ATOM      8  C   UNL     1      36.961 -19.534 -21.109  0.00  0.00    -0.004 C 
ATOM      9  C   UNL     1      36.843 -18.617 -22.161  0.00  0.00    +0.058 C 
ATOM     10  C   UNL     1      36.698 -21.685 -18.839  0.00  0.00    +0.120 C 
ENDROOT
BRANCH   6  13
ATOM     11  O   UNL     1      35.760 -17.920 -25.048  0.00  0.00    -0.270 OA
ATOM     12  N   UNL     1      35.218 -16.123 -23.613  0.00  0.00    -0.240 N 
ATOM     13  C   UNL     1      35.541 -17.473 -23.912  0.00  0.00    +0.250 C 
ATOM     14  N   UNL     1      34.162 -15.890 -25.766  0.00  0.00    -0.229 NA
ATOM     15  C   UNL     1      34.502 -15.321 -24.588  0.00  0.00    +0.138 C 
ATOM     16  C   UNL     1      34.211 -14.010 -24.246  0.00  0.00    +0.035 C 
ATOM     17  C   UNL     1      33.526 -13.233 -25.174  0.00  0.00    +0.004 C 
ATOM     18  C   UNL     1      33.499 -15.104 -26.643  0.00  0.00    +0.100 C 
ATOM     19  C   UNL     1      33.160 -13.783 -26.397  0.00  0.00    +0.021 C 
BRANCH  12  20
ATOM     20  C   UNL     1      35.602 -15.531 -22.321  0.00  0.00    +0.112 C 
BRANCH  20  21
ATOM     21  C   UNL     1      34.558 -15.788 -21.242  0.00  0.00    +0.131 C 
BRANCH  21  23
ATOM     22  O   UNL     1      34.183 -13.386 -21.064  0.00  0.00    -0.250 OA
ATOM     23  C   UNL     1      33.835 -14.530 -20.809  0.00  0.00    +0.316 C 
BRANCH  23  24
ATOM     24  O   UNL     1      32.719 -14.824 -20.091  0.00  0.00    -0.480 OA
ATOM     25  H   UNL     1      32.692 -15.597 -19.562  0.00  0.00    +0.295 HD
ENDBRANCH  23  24
ENDBRANCH  21  23
ENDBRANCH  20  21
ENDBRANCH  12  20
ENDBRANCH   6  13
BRANCH   4  26
ATOM     26  C   UNL     1      33.821 -22.603 -18.923  0.00  0.00    +0.164 C 
BRANCH  26  27
ATOM     27  N   UNL     1      32.547 -22.229 -18.322  0.00  0.00    -0.326 N 
ATOM     28  H   UNL     1      32.073 -21.443 -18.679  0.00  0.00    +0.147 HD
BRANCH  27  29
ATOM     29  C   UNL     1      31.973 -22.920 -17.277  0.00  0.00    +0.045 C 
ATOM     30  C   UNL     1      30.592 -22.875 -17.084  0.00  0.00    +0.014 C 
ATOM     31  C   UNL     1      32.775 -23.663 -16.409  0.00  0.00    +0.014 C 
ATOM     32  C   UNL     1      30.014 -23.572 -16.024  0.00  0.00    +0.004 C 
ATOM     33  C   UNL     1      32.195 -24.360 -15.350  0.00  0.00    +0.004 C 
ATOM     34  C   UNL     1      30.814 -24.315 -15.157  0.00  0.00    +0.031 C 
BRANCH  34  37
ATOM     35  N   UNL     1      29.093 -25.854 -14.244  0.00  0.00    -0.343 N 
ATOM     36  N   UNL     1      30.718 -24.936 -12.838  0.00  0.00    -0.285 NA
ATOM     37  C   UNL     1      30.210 -25.043 -14.052  0.00  0.00    +0.117 C 
ATOM     38  H   UNL     1      28.700 -26.338 -13.481  0.00  0.00    +0.144 HD
ATOM     39  H   UNL     1      28.697 -25.945 -15.140  0.00  0.00    +0.144 HD
ATOM     40  H   UNL     1      30.311 -25.427 -12.088  0.00  0.00    +0.188 HD
ENDBRANCH  34  37
ENDBRANCH  27  29
ENDBRANCH  26  27
ENDBRANCH   4  26
TORSDOF 9
ENDMDL
MODEL 7
REMARK VINA RESULT:      -9.5      2.922     11.019
REMARK  Name = 216210
REMARK  9 active torsions:
REMARK  status: ('A' for Active; 'I' for Inactive)
REMARK    1  A    between atoms: C_4  and  C_26
REMARK    2  A    between atoms: C_6  and  C_13
REMARK    3  A    between atoms: N_12  and  C_20
REMARK    4  A    between atoms: C_20  and  C_21
REMARK    5  A    between atoms: C_21  and  C_23
REMARK    6  A    between atoms: C_23  and  O_24
REMARK    7  A    between atoms: C_26  and  N_27
REMARK    8  A    between atoms: N_27  and  C_29
REMARK    9  A    between atoms: C_34  and  C_37
REMARK                            x       y       z     vdW  Elec       q    Type
REMARK                         _______ _______ _______ _____ _____    ______ ____
ROOT
ATOM      1  N   UNL     1      33.653 -13.212 -23.378  0.00  0.00    -0.261 N 
ATOM      2  N   UNL     1      33.177 -14.020 -21.363  0.00  0.00    -0.388 NA
ATOM      3  C   UNL     1      34.347 -14.383 -23.170  0.00  0.00    +0.079 C 
ATOM      4  C   UNL     1      32.963 -13.025 -22.276  0.00  0.00    +0.184 C 
ATOM      5  C   UNL     1      34.064 -14.909 -21.913  0.00  0.00    +0.146 C 
ATOM      6  C   UNL     1      35.518 -16.757 -22.284  0.00  0.00    +0.039 C 
ATOM      7  C   UNL     1      34.628 -16.092 -21.432  0.00  0.00    +0.034 C 
ATOM      8  C   UNL     1      35.243 -15.063 -24.012  0.00  0.00    -0.004 C 
ATOM      9  C   UNL     1      35.820 -16.253 -23.551  0.00  0.00    +0.058 C 
ATOM     10  C   UNL     1      33.693 -12.390 -24.563  0.00  0.00    +0.120 C 
ENDROOT
BRANCH   6  13
ATOM     11  O   UNL     1      37.324 -17.914 -21.492  0.00  0.00    -0.270 OA
ATOM     12  N   UNL     1      35.362 -19.186 -21.828  0.00  0.00    -0.240 N 
ATOM     13  C   UNL     1      36.137 -17.996 -21.839  0.00  0.00    +0.250 C 
ATOM     14  N   UNL     1      36.654 -20.019 -19.973  0.00  0.00    -0.229 NA
ATOM     15  C   UNL     1      35.647 -20.221 -20.852  0.00  0.00    +0.138 C 
ATOM     16  C   UNL     1      34.862 -21.362 -20.884  0.00  0.00    +0.035 C 
ATOM     17  C   UNL     1      35.127 -22.361 -19.953  0.00  0.00    +0.004 C 
ATOM     18  C   UNL     1      36.883 -21.012 -19.084  0.00  0.00    +0.100 C 
ATOM     19  C   UNL     1      36.155 -22.189 -19.033  0.00  0.00    +0.021 C 
BRANCH  12  20
ATOM     20  C   UNL     1      34.272 -19.377 -22.798  0.00  0.00    +0.112 C 
BRANCH  20  21
ATOM     21  C   UNL     1      34.797 -19.602 -24.210  0.00  0.00    +0.131 C 
BRANCH  21  23
ATOM     22  O   UNL     1      34.493 -17.856 -25.885  0.00  0.00    -0.250 OA
ATOM     23  C   UNL     1      34.045 -18.803 -25.254  0.00  0.00    +0.316 C 
BRANCH  23  24
ATOM     24  O   UNL     1      32.782 -19.275 -25.422  0.00  0.00    -0.480 OA
ATOM     25  H   UNL     1      32.121 -18.723 -25.792  0.00  0.00    +0.295 HD
ENDBRANCH  23  24
ENDBRANCH  21  23
ENDBRANCH  20  21
ENDBRANCH  12  20
ENDBRANCH   6  13
BRANCH   4  26
ATOM     26  C   UNL     1      32.067 -11.869 -22.072  0.00  0.00    +0.164 C 
BRANCH  26  27
ATOM     27  N   UNL     1      32.685 -10.707 -21.445  0.00  0.00    -0.326 N 
ATOM     28  H   UNL     1      33.382 -10.858 -20.765  0.00  0.00    +0.147 HD
BRANCH  27  29
ATOM     29  C   UNL     1      32.342  -9.409 -21.755  0.00  0.00    +0.045 C 
ATOM     30  C   UNL     1      32.567  -8.388 -20.831  0.00  0.00    +0.014 C 
ATOM     31  C   UNL     1      31.765  -9.117 -22.992  0.00  0.00    +0.014 C 
ATOM     32  C   UNL     1      32.216  -7.076 -21.145  0.00  0.00    +0.004 C 
ATOM     33  C   UNL     1      31.416  -7.804 -23.305  0.00  0.00    +0.004 C 
ATOM     34  C   UNL     1      31.641  -6.783 -22.381  0.00  0.00    +0.031 C 
BRANCH  34  37
ATOM     35  N   UNL     1      31.515  -4.882 -23.974  0.00  0.00    -0.343 N 
ATOM     36  N   UNL     1      30.711  -4.647 -21.794  0.00  0.00    -0.285 NA
ATOM     37  C   UNL     1      31.276  -5.413 -22.708  0.00  0.00    +0.117 C 
ATOM     38  H   UNL     1      31.260  -3.952 -24.175  0.00  0.00    +0.144 HD
ATOM     39  H   UNL     1      31.939  -5.436 -24.669  0.00  0.00    +0.144 HD
ATOM     40  H   UNL     1      30.463  -3.720 -22.012  0.00  0.00    +0.188 HD
ENDBRANCH  34  37
ENDBRANCH  27  29
ENDBRANCH  26  27
ENDBRANCH   4  26
TORSDOF 9
ENDMDL
MODEL 8
REMARK VINA RESULT:      -9.5      3.954      7.065
REMARK  Name = 216210
REMARK  9 active torsions:
REMARK  status: ('A' for Active; 'I' for Inactive)
REMARK    1  A    between atoms: C_4  and  C_26
REMARK    2  A    between atoms: C_6  and  C_13
REMARK    3  A    between atoms: N_12  and  C_20
REMARK    4  A    between atoms: C_20  and  C_21
REMARK    5  A    between atoms: C_21  and  C_23
REMARK    6  A    between atoms: C_23  and  O_24
REMARK    7  A    between atoms: C_26  and  N_27
REMARK    8  A    between atoms: N_27  and  C_29
REMARK    9  A    between atoms: C_34  and  C_37
REMARK                            x       y       z     vdW  Elec       q    Type
REMARK                         _______ _______ _______ _____ _____    ______ ____
ROOT
ATOM      1  N   UNL     1      32.008  -9.596 -20.866  0.00  0.00    -0.261 N 
ATOM      2  N   UNL     1      32.500 -10.211 -22.944  0.00  0.00    -0.388 NA
ATOM      3  C   UNL     1      32.457  -8.508 -21.579  0.00  0.00    +0.079 C 
ATOM      4  C   UNL     1      32.047 -10.599 -21.714  0.00  0.00    +0.184 C 
ATOM      5  C   UNL     1      32.772  -8.869 -22.886  0.00  0.00    +0.146 C 
ATOM      6  C   UNL     1      33.414  -6.640 -23.419  0.00  0.00    +0.039 C 
ATOM      7  C   UNL     1      33.253  -7.966 -23.836  0.00  0.00    +0.034 C 
ATOM      8  C   UNL     1      32.626  -7.172 -21.177  0.00  0.00    -0.004 C 
ATOM      9  C   UNL     1      33.106  -6.248 -22.114  0.00  0.00    +0.058 C 
ATOM     10  C   UNL     1      31.589  -9.602 -19.485  0.00  0.00    +0.120 C 
ENDROOT
BRANCH   6  13
ATOM     11  O   UNL     1      35.129  -5.690 -24.598  0.00  0.00    -0.270 OA
ATOM     12  N   UNL     1      32.996  -4.736 -24.946  0.00  0.00    -0.240 N 
ATOM     13  C   UNL     1      33.912  -5.652 -24.365  0.00  0.00    +0.250 C 
ATOM     14  N   UNL     1      34.351  -4.632 -26.935  0.00  0.00    -0.229 NA
ATOM     15  C   UNL     1      33.243  -4.220 -26.280  0.00  0.00    +0.138 C 
ATOM     16  C   UNL     1      32.319  -3.330 -26.801  0.00  0.00    +0.035 C 
ATOM     17  C   UNL     1      32.546  -2.828 -28.078  0.00  0.00    +0.004 C 
ATOM     18  C   UNL     1      34.540  -4.123 -28.174  0.00  0.00    +0.100 C 
ATOM     19  C   UNL     1      33.676  -3.228 -28.784  0.00  0.00    +0.021 C 
BRANCH  12  20
ATOM     20  C   UNL     1      31.798  -4.307 -24.208  0.00  0.00    +0.112 C 
BRANCH  20  21
ATOM     21  C   UNL     1      31.948  -2.900 -23.643  0.00  0.00    +0.131 C 
BRANCH  21  23
ATOM     22  O   UNL     1      30.006  -1.786 -24.607  0.00  0.00    -0.250 OA
ATOM     23  C   UNL     1      30.645  -2.129 -23.623  0.00  0.00    +0.316 C 
BRANCH  23  24
ATOM     24  O   UNL     1      30.249  -1.861 -22.351  0.00  0.00    -0.480 OA
ATOM     25  H   UNL     1      29.733  -1.100 -22.171  0.00  0.00    +0.295 HD
ENDBRANCH  23  24
ENDBRANCH  21  23
ENDBRANCH  20  21
ENDBRANCH  12  20
ENDBRANCH   6  13
BRANCH   4  26
ATOM     26  C   UNL     1      31.641 -11.974 -21.356  0.00  0.00    +0.164 C 
BRANCH  26  27
ATOM     27  N   UNL     1      32.702 -12.812 -20.813  0.00  0.00    -0.326 N 
ATOM     28  H   UNL     1      32.932 -12.718 -19.860  0.00  0.00    +0.147 HD
BRANCH  27  29
ATOM     29  C   UNL     1      33.401 -13.729 -21.567  0.00  0.00    +0.045 C 
ATOM     30  C   UNL     1      34.189 -14.694 -20.939  0.00  0.00    +0.014 C 
ATOM     31  C   UNL     1      33.323 -13.691 -22.960  0.00  0.00    +0.014 C 
ATOM     32  C   UNL     1      34.898 -15.620 -21.703  0.00  0.00    +0.004 C 
ATOM     33  C   UNL     1      34.032 -14.618 -23.723  0.00  0.00    +0.004 C 
ATOM     34  C   UNL     1      34.820 -15.583 -23.095  0.00  0.00    +0.031 C 
BRANCH  34  37
ATOM     35  N   UNL     1      36.293 -17.572 -23.293  0.00  0.00    -0.343 N 
ATOM     36  N   UNL     1      35.546 -16.463 -25.209  0.00  0.00    -0.285 NA
ATOM     37  C   UNL     1      35.559 -16.549 -23.892  0.00  0.00    +0.117 C 
ATOM     38  H   UNL     1      36.787 -18.216 -23.852  0.00  0.00    +0.144 HD
ATOM     39  H   UNL     1      36.318 -17.651 -22.312  0.00  0.00    +0.144 HD
ATOM     40  H   UNL     1      36.045 -17.116 -25.751  0.00  0.00    +0.188 HD
ENDBRANCH  34  37
ENDBRANCH  27  29
ENDBRANCH  26  27
ENDBRANCH   4  26
TORSDOF 9
ENDMDL
MODEL 9
REMARK VINA RESULT:      -9.4      3.758      7.333
REMARK  Name = 216210
REMARK  9 active torsions:
REMARK  status: ('A' for Active; 'I' for Inactive)
REMARK    1  A    between atoms: C_4  and  C_26
REMARK    2  A    between atoms: C_6  and  C_13
REMARK    3  A    between atoms: N_12  and  C_20
REMARK    4  A    between atoms: C_20  and  C_21
REMARK    5  A    between atoms: C_21  and  C_23
REMARK    6  A    between atoms: C_23  and  O_24
REMARK    7  A    between atoms: C_26  and  N_27
REMARK    8  A    between atoms: N_27  and  C_29
REMARK    9  A    between atoms: C_34  and  C_37
REMARK                            x       y       z     vdW  Elec       q    Type
REMARK                         _______ _______ _______ _____ _____    ______ ____
ROOT
ATOM      1  N   UNL     1      35.661 -21.595 -19.386  0.00  0.00    -0.261 N 
ATOM      2  N   UNL     1      33.768 -21.375 -20.529  0.00  0.00    -0.388 NA
ATOM      3  C   UNL     1      35.825 -20.657 -20.381  0.00  0.00    +0.079 C 
ATOM      4  C   UNL     1      34.418 -22.004 -19.504  0.00  0.00    +0.184 C 
ATOM      5  C   UNL     1      34.651 -20.502 -21.112  0.00  0.00    +0.146 C 
ATOM      6  C   UNL     1      35.660 -18.864 -22.513  0.00  0.00    +0.039 C 
ATOM      7  C   UNL     1      34.527 -19.617 -22.184  0.00  0.00    +0.034 C 
ATOM      8  C   UNL     1      36.953 -19.894 -20.725  0.00  0.00    -0.004 C 
ATOM      9  C   UNL     1      36.852 -18.998 -21.797  0.00  0.00    +0.058 C 
ATOM     10  C   UNL     1      36.658 -22.015 -18.431  0.00  0.00    +0.120 C 
ENDROOT
BRANCH   6  13
ATOM     11  O   UNL     1      35.803 -18.396 -24.747  0.00  0.00    -0.270 OA
ATOM     12  N   UNL     1      35.294 -16.561 -23.349  0.00  0.00    -0.240 N 
ATOM     13  C   UNL     1      35.592 -17.923 -23.621  0.00  0.00    +0.250 C 
ATOM     14  N   UNL     1      34.242 -16.352 -25.505  0.00  0.00    -0.229 NA
ATOM     15  C   UNL     1      34.593 -15.766 -24.339  0.00  0.00    +0.138 C 
ATOM     16  C   UNL     1      34.327 -14.444 -24.024  0.00  0.00    +0.035 C 
ATOM     17  C   UNL     1      33.656 -13.672 -24.967  0.00  0.00    +0.004 C 
ATOM     18  C   UNL     1      33.593 -15.572 -26.398  0.00  0.00    +0.100 C 
ATOM     19  C   UNL     1      33.279 -14.240 -26.179  0.00  0.00    +0.021 C 
BRANCH  12  20
ATOM     20  C   UNL     1      35.690 -15.951 -22.069  0.00  0.00    +0.112 C 
BRANCH  20  21
ATOM     21  C   UNL     1      34.591 -16.060 -21.020  0.00  0.00    +0.131 C 
BRANCH  21  23
ATOM     22  O   UNL     1      32.780 -14.562 -20.372  0.00  0.00    -0.250 OA
ATOM     23  C   UNL     1      33.946 -14.728 -20.700  0.00  0.00    +0.316 C 
BRANCH  23  24
ATOM     24  O   UNL     1      34.837 -13.708 -20.811  0.00  0.00    -0.480 OA
ATOM     25  H   UNL     1      34.799 -13.131 -21.549  0.00  0.00    +0.295 HD
ENDBRANCH  23  24
ENDBRANCH  21  23
ENDBRANCH  20  21
ENDBRANCH  12  20
ENDBRANCH   6  13
BRANCH   4  26
ATOM     26  C   UNL     1      33.816 -23.022 -18.620  0.00  0.00    +0.164 C 
BRANCH  26  27
ATOM     27  N   UNL     1      33.473 -22.556 -17.282  0.00  0.00    -0.326 N 
ATOM     28  H   UNL     1      32.832 -21.814 -17.195  0.00  0.00    +0.147 HD
BRANCH  27  29
ATOM     29  C   UNL     1      34.002 -23.102 -16.133  0.00  0.00    +0.045 C 
ATOM     30  C   UNL     1      33.226 -23.950 -15.342  0.00  0.00    +0.014 C 
ATOM     31  C   UNL     1      35.313 -22.805 -15.759  0.00  0.00    +0.014 C 
ATOM     32  C   UNL     1      33.762 -24.501 -14.178  0.00  0.00    +0.004 C 
ATOM     33  C   UNL     1      35.848 -23.356 -14.595  0.00  0.00    +0.004 C 
ATOM     34  C   UNL     1      35.073 -24.204 -13.804  0.00  0.00    +0.031 C 
BRANCH  34  37
ATOM     35  N   UNL     1      36.587 -25.792 -12.642  0.00  0.00    -0.343 N 
ATOM     36  N   UNL     1      35.228 -24.343 -11.411  0.00  0.00    -0.285 NA
ATOM     37  C   UNL     1      35.631 -24.779 -12.590  0.00  0.00    +0.117 C 
ATOM     38  H   UNL     1      36.952 -26.167 -11.807  0.00  0.00    +0.144 HD
ATOM     39  H   UNL     1      36.898 -26.132 -13.511  0.00  0.00    +0.144 HD
ATOM     40  H   UNL     1      35.604 -24.731 -10.588  0.00  0.00    +0.188 HD
ENDBRANCH  34  37
ENDBRANCH  27  29
ENDBRANCH  26  27
ENDBRANCH   4  26
TORSDOF 9
ENDMDL
