MODEL 1
REMARK VINA RESULT:     -12.1      0.000      0.000
REMARK  Name = 124173720
REMARK  4 active torsions:
REMARK  status: ('A' for Active; 'I' for Inactive)
REMARK    1  A    between atoms: C_13  and  N_24
REMARK    2  A    between atoms: C_18  and  C_23
REMARK    3  A    between atoms: N_24  and  C_26
REMARK    4  A    between atoms: C_26  and  C_30
REMARK                            x       y       z     vdW  Elec       q    Type
REMARK                         _______ _______ _______ _____ _____    ______ ____
ROOT
ATOM      1  O   UNL     1      32.418 -22.693 -18.554  0.00  0.00    -0.473 OA
ATOM      2  N   UNL     1      34.209 -23.792 -16.367  0.00  0.00    -0.272 N 
ATOM      3  N   UNL     1      36.345 -23.351 -16.692  0.00  0.00    -0.374 NA
ATOM      4  C   UNL     1      36.210 -24.169 -15.606  0.00  0.00    +0.190 C 
ATOM      5  C   UNL     1      35.122 -23.125 -17.160  0.00  0.00    +0.188 C 
ATOM      6  C   UNL     1      32.766 -23.832 -16.481  0.00  0.00    +0.141 C 
ATOM      7  C   UNL     1      34.892 -24.462 -15.385  0.00  0.00    +0.169 C 
ATOM      8  C   UNL     1      34.846 -22.285 -18.343  0.00  0.00    +0.078 C 
ATOM      9  C   UNL     1      32.189 -22.605 -17.150  0.00  0.00    +0.227 C 
ATOM     10  C   UNL     1      33.595 -22.124 -18.961  0.00  0.00    +0.144 C 
ATOM     11  C   UNL     1      35.943 -21.616 -18.928  0.00  0.00    +0.008 C 
ATOM     12  C   UNL     1      33.468 -21.367 -20.140  0.00  0.00    +0.051 C 
ATOM     13  C   UNL     1      34.568 -20.724 -20.695  0.00  0.00    +0.048 C 
ATOM     14  C   UNL     1      35.808 -20.844 -20.085  0.00  0.00    +0.015 C 
ATOM     15  O   UNL     1      39.415 -25.063 -14.279  0.00  0.00    -0.432 OA
ATOM     16  O   UNL     1      39.066 -23.499 -15.913  0.00  0.00    -0.226 OA
ATOM     17  N   UNL     1      37.279 -24.618 -14.868  0.00  0.00    -0.194 N 
ATOM     18  C   UNL     1      37.197 -25.485 -13.714  0.00  0.00    +0.195 C 
ATOM     19  C   UNL     1      38.596 -26.068 -13.672  0.00  0.00    +0.236 C 
ATOM     20  C   UNL     1      38.619 -24.307 -15.111  0.00  0.00    +0.411 C 
ENDROOT
BRANCH  18  23
ATOM     21  F   UNL     1      35.801 -25.275 -11.848  0.00  0.00    -0.196 F 
ATOM     22  F   UNL     1      37.910 -24.807 -11.590  0.00  0.00    -0.196 F 
ATOM     23  C   UNL     1      36.869 -24.706 -12.442  0.00  0.00    +0.340 C 
ENDBRANCH  18  23
BRANCH  13  24
ATOM     24  N   UNL     1      34.425 -19.957 -21.869  0.00  0.00    -0.327 N 
ATOM     25  H   UNL     1      33.517 -19.770 -22.199  0.00  0.00    +0.147 HD
BRANCH  24  26
ATOM     26  C   UNL     1      35.539 -19.440 -22.601  0.00  0.00    +0.146 C 
ATOM     27  C   UNL     1      35.328 -19.685 -24.088  0.00  0.00    +0.031 C 
BRANCH  26  30
ATOM     28  O   UNL     1      35.495 -17.456 -21.205  0.00  0.00    -0.274 OA
ATOM     29  N   UNL     1      36.039 -17.223 -23.424  0.00  0.00    -0.327 N 
ATOM     30  C   UNL     1      35.679 -17.955 -22.313  0.00  0.00    +0.237 C 
ATOM     31  H   UNL     1      36.158 -16.248 -23.354  0.00  0.00    +0.145 HD
ATOM     32  H   UNL     1      36.176 -17.674 -24.288  0.00  0.00    +0.145 HD
ENDBRANCH  26  30
ENDBRANCH  24  26
ENDBRANCH  13  24
TORSDOF 4
ENDMDL
MODEL 2
REMARK VINA RESULT:     -11.6      0.976      1.211
REMARK  Name = 124173720
REMARK  4 active torsions:
REMARK  status: ('A' for Active; 'I' for Inactive)
REMARK    1  A    between atoms: C_13  and  N_24
REMARK    2  A    between atoms: C_18  and  C_23
REMARK    3  A    between atoms: N_24  and  C_26
REMARK    4  A    between atoms: C_26  and  C_30
REMARK                            x       y       z     vdW  Elec       q    Type
REMARK                         _______ _______ _______ _____ _____    ______ ____
ROOT
ATOM      1  O   UNL     1      32.707 -22.662 -18.749  0.00  0.00    -0.473 OA
ATOM      2  N   UNL     1      34.147 -23.802 -16.335  0.00  0.00    -0.272 N 
ATOM      3  N   UNL     1      36.331 -23.502 -16.407  0.00  0.00    -0.374 NA
ATOM      4  C   UNL     1      36.014 -24.278 -15.327  0.00  0.00    +0.190 C 
ATOM      5  C   UNL     1      35.190 -23.216 -17.025  0.00  0.00    +0.188 C 
ATOM      6  C   UNL     1      32.729 -23.757 -16.623  0.00  0.00    +0.141 C 
ATOM      7  C   UNL     1      34.662 -24.482 -15.262  0.00  0.00    +0.169 C 
ATOM      8  C   UNL     1      35.113 -22.397 -18.252  0.00  0.00    +0.078 C 
ATOM      9  C   UNL     1      32.317 -22.518 -17.386  0.00  0.00    +0.227 C 
ATOM     10  C   UNL     1      33.958 -22.179 -19.022  0.00  0.00    +0.144 C 
ATOM     11  C   UNL     1      36.313 -21.815 -18.714  0.00  0.00    +0.008 C 
ATOM     12  C   UNL     1      34.024 -21.452 -20.224  0.00  0.00    +0.051 C 
ATOM     13  C   UNL     1      35.222 -20.895 -20.655  0.00  0.00    +0.048 C 
ATOM     14  C   UNL     1      36.369 -21.071 -19.896  0.00  0.00    +0.015 C 
ATOM     15  O   UNL     1      38.971 -25.325 -13.598  0.00  0.00    -0.432 OA
ATOM     16  O   UNL     1      38.923 -23.793 -15.298  0.00  0.00    -0.226 OA
ATOM     17  N   UNL     1      36.954 -24.768 -14.454  0.00  0.00    -0.194 N 
ATOM     18  C   UNL     1      36.679 -25.593 -13.299  0.00  0.00    +0.195 C 
ATOM     19  C   UNL     1      38.022 -26.259 -13.073  0.00  0.00    +0.236 C 
ATOM     20  C   UNL     1      38.331 -24.548 -14.538  0.00  0.00    +0.411 C 
ENDROOT
BRANCH  18  23
ATOM     21  F   UNL     1      36.453 -23.454 -12.378  0.00  0.00    -0.196 F 
ATOM     22  F   UNL     1      34.927 -24.929 -11.896  0.00  0.00    -0.196 F 
ATOM     23  C   UNL     1      36.250 -24.757 -12.095  0.00  0.00    +0.340 C 
ENDBRANCH  18  23
BRANCH  13  24
ATOM     24  N   UNL     1      35.271 -20.156 -21.855  0.00  0.00    -0.327 N 
ATOM     25  H   UNL     1      34.973 -20.590 -22.686  0.00  0.00    +0.147 HD
BRANCH  24  26
ATOM     26  C   UNL     1      35.734 -18.804 -21.918  0.00  0.00    +0.146 C 
ATOM     27  C   UNL     1      37.239 -18.772 -21.698  0.00  0.00    +0.031 C 
BRANCH  26  30
ATOM     28  O   UNL     1      34.593 -18.748 -24.058  0.00  0.00    -0.274 OA
ATOM     29  N   UNL     1      36.009 -17.021 -23.525  0.00  0.00    -0.327 N 
ATOM     30  C   UNL     1      35.373 -18.216 -23.271  0.00  0.00    +0.237 C 
ATOM     31  H   UNL     1      35.851 -16.549 -24.375  0.00  0.00    +0.145 HD
ATOM     32  H   UNL     1      36.624 -16.638 -22.857  0.00  0.00    +0.145 HD
ENDBRANCH  26  30
ENDBRANCH  24  26
ENDBRANCH  13  24
TORSDOF 4
ENDMDL
MODEL 3
REMARK VINA RESULT:     -11.4      3.864      6.080
REMARK  Name = 124173720
REMARK  4 active torsions:
REMARK  status: ('A' for Active; 'I' for Inactive)
REMARK    1  A    between atoms: C_13  and  N_24
REMARK    2  A    between atoms: C_18  and  C_23
REMARK    3  A    between atoms: N_24  and  C_26
REMARK    4  A    between atoms: C_26  and  C_30
REMARK                            x       y       z     vdW  Elec       q    Type
REMARK                         _______ _______ _______ _____ _____    ______ ____
ROOT
ATOM      1  O   UNL     1      32.675 -22.422 -17.853  0.00  0.00    -0.473 OA
ATOM      2  N   UNL     1      35.054 -23.379 -16.234  0.00  0.00    -0.272 N 
ATOM      3  N   UNL     1      34.517 -23.995 -14.186  0.00  0.00    -0.374 NA
ATOM      4  C   UNL     1      35.876 -24.032 -14.330  0.00  0.00    +0.190 C 
ATOM      5  C   UNL     1      34.016 -23.591 -15.348  0.00  0.00    +0.188 C 
ATOM      6  C   UNL     1      34.995 -22.947 -17.615  0.00  0.00    +0.141 C 
ATOM      7  C   UNL     1      36.236 -23.650 -15.594  0.00  0.00    +0.169 C 
ATOM      8  C   UNL     1      32.570 -23.415 -15.593  0.00  0.00    +0.078 C 
ATOM      9  C   UNL     1      33.696 -23.311 -18.296  0.00  0.00    +0.227 C 
ATOM     10  C   UNL     1      31.996 -22.862 -16.750  0.00  0.00    +0.144 C 
ATOM     11  C   UNL     1      31.690 -23.800 -14.559  0.00  0.00    +0.008 C 
ATOM     12  C   UNL     1      30.607 -22.661 -16.835  0.00  0.00    +0.051 C 
ATOM     13  C   UNL     1      29.766 -23.046 -15.797  0.00  0.00    +0.048 C 
ATOM     14  C   UNL     1      30.308 -23.623 -14.658  0.00  0.00    +0.015 C 
ATOM     15  O   UNL     1      37.460 -24.931 -11.245  0.00  0.00    -0.432 OA
ATOM     16  O   UNL     1      35.204 -24.996 -11.624  0.00  0.00    -0.226 OA
ATOM     17  N   UNL     1      36.728 -24.404 -13.318  0.00  0.00    -0.194 N 
ATOM     18  C   UNL     1      38.170 -24.460 -13.412  0.00  0.00    +0.195 C 
ATOM     19  C   UNL     1      38.573 -24.372 -11.954  0.00  0.00    +0.236 C 
ATOM     20  C   UNL     1      36.339 -24.792 -12.033  0.00  0.00    +0.411 C 
ENDROOT
BRANCH  18  23
ATOM     21  F   UNL     1      39.012 -25.507 -15.328  0.00  0.00    -0.196 F 
ATOM     22  F   UNL     1      39.739 -26.197 -13.396  0.00  0.00    -0.196 F 
ATOM     23  C   UNL     1      38.645 -25.761 -14.055  0.00  0.00    +0.340 C 
ENDBRANCH  18  23
BRANCH  13  24
ATOM     24  N   UNL     1      28.373 -22.852 -15.902  0.00  0.00    -0.327 N 
ATOM     25  H   UNL     1      27.822 -22.963 -15.095  0.00  0.00    +0.147 HD
BRANCH  24  26
ATOM     26  C   UNL     1      27.727 -22.501 -17.130  0.00  0.00    +0.146 C 
ATOM     27  C   UNL     1      27.629 -23.730 -18.021  0.00  0.00    +0.031 C 
BRANCH  26  30
ATOM     28  O   UNL     1      25.693 -22.251 -15.831  0.00  0.00    -0.274 OA
ATOM     29  N   UNL     1      25.905 -21.051 -17.777  0.00  0.00    -0.327 N 
ATOM     30  C   UNL     1      26.347 -21.943 -16.825  0.00  0.00    +0.237 C 
ATOM     31  H   UNL     1      25.022 -20.627 -17.682  0.00  0.00    +0.145 HD
ATOM     32  H   UNL     1      26.472 -20.838 -18.554  0.00  0.00    +0.145 HD
ENDBRANCH  26  30
ENDBRANCH  24  26
ENDBRANCH  13  24
TORSDOF 4
ENDMDL
MODEL 4
REMARK VINA RESULT:     -10.8      4.118      8.851
REMARK  Name = 124173720
REMARK  4 active torsions:
REMARK  status: ('A' for Active; 'I' for Inactive)
REMARK    1  A    between atoms: C_13  and  N_24
REMARK    2  A    between atoms: C_18  and  C_23
REMARK    3  A    between atoms: N_24  and  C_26
REMARK    4  A    between atoms: C_26  and  C_30
REMARK                            x       y       z     vdW  Elec       q    Type
REMARK                         _______ _______ _______ _____ _____    ______ ____
ROOT
ATOM      1  O   UNL     1      33.974 -23.118 -16.973  0.00  0.00    -0.473 OA
ATOM      2  N   UNL     1      34.166 -21.514 -19.539  0.00  0.00    -0.272 N 
ATOM      3  N   UNL     1      36.158 -20.625 -19.859  0.00  0.00    -0.374 NA
ATOM      4  C   UNL     1      35.303 -20.183 -20.829  0.00  0.00    +0.190 C 
ATOM      5  C   UNL     1      35.461 -21.434 -19.068  0.00  0.00    +0.188 C 
ATOM      6  C   UNL     1      33.055 -22.279 -19.014  0.00  0.00    +0.141 C 
ATOM      7  C   UNL     1      34.056 -20.719 -20.651  0.00  0.00    +0.169 C 
ATOM      8  C   UNL     1      36.036 -22.111 -17.888  0.00  0.00    +0.078 C 
ATOM      9  C   UNL     1      33.489 -23.511 -18.253  0.00  0.00    +0.227 C 
ATOM     10  C   UNL     1      35.318 -22.863 -16.943  0.00  0.00    +0.144 C 
ATOM     11  C   UNL     1      37.422 -21.957 -17.669  0.00  0.00    +0.008 C 
ATOM     12  C   UNL     1      35.959 -23.388 -15.807  0.00  0.00    +0.051 C 
ATOM     13  C   UNL     1      37.326 -23.216 -15.616  0.00  0.00    +0.048 C 
ATOM     14  C   UNL     1      38.061 -22.503 -16.552  0.00  0.00    +0.015 C 
ATOM     15  O   UNL     1      36.928 -17.831 -22.987  0.00  0.00    -0.432 OA
ATOM     16  O   UNL     1      37.981 -19.077 -21.381  0.00  0.00    -0.226 OA
ATOM     17  N   UNL     1      35.682 -19.317 -21.826  0.00  0.00    -0.194 N 
ATOM     18  C   UNL     1      34.822 -18.815 -22.874  0.00  0.00    +0.195 C 
ATOM     19  C   UNL     1      35.557 -17.558 -23.295  0.00  0.00    +0.236 C 
ATOM     20  C   UNL     1      36.961 -18.781 -21.991  0.00  0.00    +0.411 C 
ENDROOT
BRANCH  18  23
ATOM     21  F   UNL     1      34.130 -19.184 -25.079  0.00  0.00    -0.196 F 
ATOM     22  F   UNL     1      35.929 -20.203 -24.400  0.00  0.00    -0.196 F 
ATOM     23  C   UNL     1      34.694 -19.810 -24.026  0.00  0.00    +0.340 C 
ENDBRANCH  18  23
BRANCH  13  24
ATOM     24  N   UNL     1      37.958 -23.760 -14.480  0.00  0.00    -0.327 N 
ATOM     25  H   UNL     1      38.939 -23.840 -14.482  0.00  0.00    +0.147 HD
BRANCH  24  26
ATOM     26  C   UNL     1      37.238 -24.202 -13.326  0.00  0.00    +0.146 C 
ATOM     27  C   UNL     1      37.515 -25.679 -13.089  0.00  0.00    +0.031 C 
BRANCH  26  30
ATOM     28  O   UNL     1      38.441 -22.424 -12.195  0.00  0.00    -0.274 OA
ATOM     29  N   UNL     1      37.085 -23.795 -10.948  0.00  0.00    -0.327 N 
ATOM     30  C   UNL     1      37.664 -23.374 -12.125  0.00  0.00    +0.237 C 
ATOM     31  H   UNL     1      37.290 -23.331 -10.104  0.00  0.00    +0.145 HD
ATOM     32  H   UNL     1      36.467 -24.562 -10.950  0.00  0.00    +0.145 HD
ENDBRANCH  26  30
ENDBRANCH  24  26
ENDBRANCH  13  24
TORSDOF 4
ENDMDL
MODEL 5
REMARK VINA RESULT:      -9.4      7.661     11.700
REMARK  Name = 124173720
REMARK  4 active torsions:
REMARK  status: ('A' for Active; 'I' for Inactive)
REMARK    1  A    between atoms: C_13  and  N_24
REMARK    2  A    between atoms: C_18  and  C_23
REMARK    3  A    between atoms: N_24  and  C_26
REMARK    4  A    between atoms: C_26  and  C_30
REMARK                            x       y       z     vdW  Elec       q    Type
REMARK                         _______ _______ _______ _____ _____    ______ ____
ROOT
ATOM      1  O   UNL     1      33.844 -12.209 -26.506  0.00  0.00    -0.473 OA
ATOM      2  N   UNL     1      34.588 -14.943 -25.424  0.00  0.00    -0.272 N 
ATOM      3  N   UNL     1      34.713 -14.999 -23.223  0.00  0.00    -0.374 NA
ATOM      4  C   UNL     1      35.126 -16.198 -23.732  0.00  0.00    +0.190 C 
ATOM      5  C   UNL     1      34.390 -14.231 -24.257  0.00  0.00    +0.188 C 
ATOM      6  C   UNL     1      34.362 -14.525 -26.792  0.00  0.00    +0.141 C 
ATOM      7  C   UNL     1      35.061 -16.188 -25.099  0.00  0.00    +0.169 C 
ATOM      8  C   UNL     1      33.901 -12.844 -24.119  0.00  0.00    +0.078 C 
ATOM      9  C   UNL     1      33.298 -13.458 -26.919  0.00  0.00    +0.227 C 
ATOM     10  C   UNL     1      33.677 -11.943 -25.174  0.00  0.00    +0.144 C 
ATOM     11  C   UNL     1      33.677 -12.368 -22.809  0.00  0.00    +0.008 C 
ATOM     12  C   UNL     1      33.296 -10.615 -24.915  0.00  0.00    +0.051 C 
ATOM     13  C   UNL     1      33.088 -10.174 -23.613  0.00  0.00    +0.048 C 
ATOM     14  C   UNL     1      33.273 -11.054 -22.556  0.00  0.00    +0.015 C 
ATOM     15  O   UNL     1      36.225 -18.384 -21.116  0.00  0.00    -0.432 OA
ATOM     16  O   UNL     1      35.180 -16.374 -20.789  0.00  0.00    -0.226 OA
ATOM     17  N   UNL     1      35.545 -17.244 -22.946  0.00  0.00    -0.194 N 
ATOM     18  C   UNL     1      35.994 -18.531 -23.428  0.00  0.00    +0.195 C 
ATOM     19  C   UNL     1      36.812 -19.027 -22.252  0.00  0.00    +0.236 C 
ATOM     20  C   UNL     1      35.603 -17.234 -21.550  0.00  0.00    +0.411 C 
ENDROOT
BRANCH  18  23
ATOM     21  F   UNL     1      35.213 -20.363 -24.657  0.00  0.00    -0.196 F 
ATOM     22  F   UNL     1      34.499 -20.138 -22.614  0.00  0.00    -0.196 F 
ATOM     23  C   UNL     1      34.821 -19.461 -23.735  0.00  0.00    +0.340 C 
ENDBRANCH  18  23
BRANCH  13  24
ATOM     24  N   UNL     1      32.692  -8.844 -23.368  0.00  0.00    -0.327 N 
ATOM     25  H   UNL     1      31.806  -8.552 -23.681  0.00  0.00    +0.147 HD
BRANCH  24  26
ATOM     26  C   UNL     1      33.521  -7.898 -22.686  0.00  0.00    +0.146 C 
ATOM     27  C   UNL     1      33.859  -6.749 -23.624  0.00  0.00    +0.031 C 
BRANCH  26  30
ATOM     28  O   UNL     1      31.760  -6.724 -21.499  0.00  0.00    -0.274 OA
ATOM     29  N   UNL     1      33.401  -7.765 -20.276  0.00  0.00    -0.327 N 
ATOM     30  C   UNL     1      32.790  -7.393 -21.454  0.00  0.00    +0.237 C 
ATOM     31  H   UNL     1      33.015  -7.491 -19.413  0.00  0.00    +0.145 HD
ATOM     32  H   UNL     1      34.225  -8.304 -20.297  0.00  0.00    +0.145 HD
ENDBRANCH  26  30
ENDBRANCH  24  26
ENDBRANCH  13  24
TORSDOF 4
ENDMDL
MODEL 6
REMARK VINA RESULT:      -9.3      4.017      8.647
REMARK  Name = 124173720
REMARK  4 active torsions:
REMARK  status: ('A' for Active; 'I' for Inactive)
REMARK    1  A    between atoms: C_13  and  N_24
REMARK    2  A    between atoms: C_18  and  C_23
REMARK    3  A    between atoms: N_24  and  C_26
REMARK    4  A    between atoms: C_26  and  C_30
REMARK                            x       y       z     vdW  Elec       q    Type
REMARK                         _______ _______ _______ _____ _____    ______ ____
ROOT
ATOM      1  O   UNL     1      36.541 -23.834 -15.860  0.00  0.00    -0.473 OA
ATOM      2  N   UNL     1      36.526 -21.984 -18.263  0.00  0.00    -0.272 N 
ATOM      3  N   UNL     1      34.519 -21.712 -19.135  0.00  0.00    -0.374 NA
ATOM      4  C   UNL     1      35.445 -21.088 -19.923  0.00  0.00    +0.190 C 
ATOM      5  C   UNL     1      35.181 -22.263 -18.124  0.00  0.00    +0.188 C 
ATOM      6  C   UNL     1      37.626 -22.364 -17.402  0.00  0.00    +0.141 C 
ATOM      7  C   UNL     1      36.702 -21.245 -19.405  0.00  0.00    +0.169 C 
ATOM      8  C   UNL     1      34.527 -23.041 -17.051  0.00  0.00    +0.078 C 
ATOM      9  C   UNL     1      37.209 -22.580 -15.965  0.00  0.00    +0.227 C 
ATOM     10  C   UNL     1      35.187 -23.758 -16.039  0.00  0.00    +0.144 C 
ATOM     11  C   UNL     1      33.117 -23.099 -17.066  0.00  0.00    +0.008 C 
ATOM     12  C   UNL     1      34.460 -24.538 -15.122  0.00  0.00    +0.051 C 
ATOM     13  C   UNL     1      33.071 -24.579 -15.165  0.00  0.00    +0.048 C 
ATOM     14  C   UNL     1      32.396 -23.854 -16.137  0.00  0.00    +0.015 C 
ATOM     15  O   UNL     1      33.899 -19.671 -22.827  0.00  0.00    -0.432 OA
ATOM     16  O   UNL     1      32.769 -20.577 -21.055  0.00  0.00    -0.226 OA
ATOM     17  N   UNL     1      35.117 -20.410 -21.072  0.00  0.00    -0.194 N 
ATOM     18  C   UNL     1      36.052 -19.735 -21.945  0.00  0.00    +0.195 C 
ATOM     19  C   UNL     1      35.270 -19.676 -23.242  0.00  0.00    +0.236 C 
ATOM     20  C   UNL     1      33.826 -20.261 -21.585  0.00  0.00    +0.411 C 
ENDROOT
BRANCH  18  23
ATOM     21  F   UNL     1      37.651 -18.366 -20.921  0.00  0.00    -0.196 F 
ATOM     22  F   UNL     1      36.403 -17.481 -22.469  0.00  0.00    -0.196 F 
ATOM     23  C   UNL     1      36.402 -18.340 -21.429  0.00  0.00    +0.340 C 
ENDBRANCH  18  23
BRANCH  13  24
ATOM     24  N   UNL     1      32.354 -25.353 -14.230  0.00  0.00    -0.327 N 
ATOM     25  H   UNL     1      32.690 -26.250 -14.008  0.00  0.00    +0.147 HD
BRANCH  24  26
ATOM     26  C   UNL     1      31.160 -24.892 -13.591  0.00  0.00    +0.146 C 
ATOM     27  C   UNL     1      31.335 -23.438 -13.177  0.00  0.00    +0.031 C 
BRANCH  26  30
ATOM     28  O   UNL     1      29.390 -24.093 -15.047  0.00  0.00    -0.274 OA
ATOM     29  N   UNL     1      29.675 -26.359 -14.810  0.00  0.00    -0.327 N 
ATOM     30  C   UNL     1      29.991 -25.043 -14.550  0.00  0.00    +0.237 C 
ATOM     31  H   UNL     1      28.933 -26.577 -15.418  0.00  0.00    +0.145 HD
ATOM     32  H   UNL     1      30.192 -27.083 -14.386  0.00  0.00    +0.145 HD
ENDBRANCH  26  30
ENDBRANCH  24  26
ENDBRANCH  13  24
TORSDOF 4
ENDMDL
