MODEL 1
REMARK VINA RESULT:     -11.7      0.000      0.000
REMARK  Name = 23586145
REMARK  7 active torsions:
REMARK  status: ('A' for Active; 'I' for Inactive)
REMARK    1  A    between atoms: C_5  and  O_24
REMARK    2  A    between atoms: C_7  and  N_10
REMARK    3  A    between atoms: N_10  and  C_12
REMARK    4  A    between atoms: C_15  and  S_18
REMARK    5  A    between atoms: S_18  and  N_21
REMARK    6  A    between atoms: O_24  and  C_25
REMARK    7  A    between atoms: C_25  and  C_26
REMARK                            x       y       z     vdW  Elec       q    Type
REMARK                         _______ _______ _______ _____ _____    ______ ____
ROOT
ATOM      1  N   UNL     1      32.784 -23.450 -14.671  0.00  0.00    -0.299 NA
ATOM      2  N   UNL     1      31.816 -22.957 -16.817  0.00  0.00    -0.106 N 
ATOM      3  N   UNL     1      30.588 -22.686 -17.333  0.00  0.00    -0.139 NA
ATOM      4  N   UNL     1      30.430 -23.022 -15.086  0.00  0.00    -0.145 NA
ATOM      5  C   UNL     1      33.909 -23.522 -15.306  0.00  0.00    +0.291 C 
ATOM      6  C   UNL     1      34.146 -23.326 -16.753  0.00  0.00    +0.105 C 
ATOM      7  C   UNL     1      33.050 -23.042 -17.479  0.00  0.00    +0.142 C 
ATOM      8  C   UNL     1      31.693 -23.160 -15.437  0.00  0.00    +0.178 C 
ATOM      9  C   UNL     1      29.808 -22.738 -16.258  0.00  0.00    +0.230 C 
ENDROOT
BRANCH   7  10
ATOM     10  N   UNL     1      33.061 -22.826 -18.827  0.00  0.00    -0.299 N 
ATOM     11  H   UNL     1      32.453 -23.392 -19.356  0.00  0.00    +0.153 HD
BRANCH  10  12
ATOM     12  C   UNL     1      33.825 -21.907 -19.554  0.00  0.00    +0.049 C 
ATOM     13  C   UNL     1      35.224 -21.981 -19.542  0.00  0.00    +0.016 C 
ATOM     14  C   UNL     1      33.200 -20.901 -20.302  0.00  0.00    +0.016 C 
ATOM     15  C   UNL     1      35.355 -20.065 -21.009  0.00  0.00    +0.122 C 
ATOM     16  C   UNL     1      35.985 -21.064 -20.266  0.00  0.00    +0.021 C 
ATOM     17  C   UNL     1      33.962 -19.984 -21.027  0.00  0.00    +0.021 C 
BRANCH  15  18
ATOM     18  S   UNL     1      36.308 -18.918 -21.916  0.00  0.00    +0.057 S 
ATOM     19  O   UNL     1      37.689 -19.008 -21.463  0.00  0.00    -0.153 OA
ATOM     20  O   UNL     1      35.999 -19.075 -23.330  0.00  0.00    -0.153 OA
BRANCH  18  21
ATOM     21  N   UNL     1      35.643 -17.441 -21.370  0.00  0.00    -0.203 NA
ATOM     22  H   UNL     1      35.944 -17.268 -20.411  0.00  0.00    +0.144 HD
ATOM     23  H   UNL     1      34.626 -17.493 -21.404  0.00  0.00    +0.144 HD
ENDBRANCH  18  21
ENDBRANCH  15  18
ENDBRANCH  10  12
ENDBRANCH   7  10
BRANCH   5  24
ATOM     24  O   UNL     1      35.029 -23.800 -14.645  0.00  0.00    -0.451 OA
BRANCH  24  25
ATOM     25  C   UNL     1      36.183 -23.120 -15.101  0.00  0.00    +0.208 C 
BRANCH  25  26
ATOM     26  C   UNL     1      37.399 -23.688 -14.371  0.00  0.00    +0.044 C 
ATOM     27  C   UNL     1      37.067 -23.962 -12.897  0.00  0.00    +0.004 C 
ATOM     28  C   UNL     1      37.902 -24.962 -15.063  0.00  0.00    +0.004 C 
ATOM     29  C   UNL     1      38.252 -24.580 -12.157  0.00  0.00    +0.000 C 
ATOM     30  C   UNL     1      39.086 -25.578 -14.319  0.00  0.00    +0.000 C 
ATOM     31  C   UNL     1      38.754 -25.840 -12.854  0.00  0.00    +0.000 C 
ENDBRANCH  25  26
ENDBRANCH  24  25
ENDBRANCH   5  24
TORSDOF 7
ENDMDL
MODEL 2
REMARK VINA RESULT:     -11.6      3.483      7.224
REMARK  Name = 23586145
REMARK  7 active torsions:
REMARK  status: ('A' for Active; 'I' for Inactive)
REMARK    1  A    between atoms: C_5  and  O_24
REMARK    2  A    between atoms: C_7  and  N_10
REMARK    3  A    between atoms: N_10  and  C_12
REMARK    4  A    between atoms: C_15  and  S_18
REMARK    5  A    between atoms: S_18  and  N_21
REMARK    6  A    between atoms: O_24  and  C_25
REMARK    7  A    between atoms: C_25  and  C_26
REMARK                            x       y       z     vdW  Elec       q    Type
REMARK                         _______ _______ _______ _____ _____    ______ ____
ROOT
ATOM      1  N   UNL     1      31.695 -23.539 -16.527  0.00  0.00    -0.299 NA
ATOM      2  N   UNL     1      32.475 -24.542 -14.485  0.00  0.00    -0.106 N 
ATOM      3  N   UNL     1      31.942 -25.098 -13.365  0.00  0.00    -0.139 NA
ATOM      4  N   UNL     1      30.277 -24.418 -14.763  0.00  0.00    -0.145 NA
ATOM      5  C   UNL     1      32.947 -23.389 -16.816  0.00  0.00    +0.291 C 
ATOM      6  C   UNL     1      34.117 -23.784 -16.002  0.00  0.00    +0.105 C 
ATOM      7  C   UNL     1      33.825 -24.366 -14.825  0.00  0.00    +0.142 C 
ATOM      8  C   UNL     1      31.434 -24.133 -15.327  0.00  0.00    +0.178 C 
ATOM      9  C   UNL     1      30.636 -24.996 -13.588  0.00  0.00    +0.230 C 
ENDROOT
BRANCH   7  10
ATOM     10  N   UNL     1      34.763 -24.801 -13.933  0.00  0.00    -0.299 N 
ATOM     11  H   UNL     1      34.436 -24.986 -13.023  0.00  0.00    +0.153 HD
BRANCH  10  12
ATOM     12  C   UNL     1      36.129 -25.017 -14.145  0.00  0.00    +0.049 C 
ATOM     13  C   UNL     1      37.081 -24.198 -13.524  0.00  0.00    +0.016 C 
ATOM     14  C   UNL     1      36.561 -26.054 -14.982  0.00  0.00    +0.016 C 
ATOM     15  C   UNL     1      38.864 -25.449 -14.571  0.00  0.00    +0.122 C 
ATOM     16  C   UNL     1      38.443 -24.414 -13.736  0.00  0.00    +0.021 C 
ATOM     17  C   UNL     1      37.923 -26.269 -15.194  0.00  0.00    +0.021 C 
BRANCH  15  18
ATOM     18  S   UNL     1      40.569 -25.718 -14.836  0.00  0.00    +0.057 S 
ATOM     19  O   UNL     1      41.273 -24.464 -14.607  0.00  0.00    -0.153 OA
ATOM     20  O   UNL     1      40.966 -26.915 -14.109  0.00  0.00    -0.153 OA
BRANCH  18  21
ATOM     21  N   UNL     1      40.586 -26.062 -16.510  0.00  0.00    -0.203 NA
ATOM     22  H   UNL     1      41.336 -25.534 -16.957  0.00  0.00    +0.144 HD
ATOM     23  H   UNL     1      39.692 -25.797 -16.921  0.00  0.00    +0.144 HD
ENDBRANCH  18  21
ENDBRANCH  15  18
ENDBRANCH  10  12
ENDBRANCH   7  10
BRANCH   5  24
ATOM     24  O   UNL     1      33.301 -22.821 -17.964  0.00  0.00    -0.451 OA
BRANCH  24  25
ATOM     25  C   UNL     1      34.694 -22.768 -18.207  0.00  0.00    +0.208 C 
BRANCH  25  26
ATOM     26  C   UNL     1      34.927 -22.065 -19.543  0.00  0.00    +0.044 C 
ATOM     27  C   UNL     1      33.724 -21.183 -19.907  0.00  0.00    +0.004 C 
ATOM     28  C   UNL     1      36.218 -21.238 -19.503  0.00  0.00    +0.004 C 
ATOM     29  C   UNL     1      33.954 -20.427 -21.215  0.00  0.00    +0.000 C 
ATOM     30  C   UNL     1      36.444 -20.481 -20.812  0.00  0.00    +0.000 C 
ATOM     31  C   UNL     1      35.243 -19.614 -21.174  0.00  0.00    +0.000 C 
ENDBRANCH  25  26
ENDBRANCH  24  25
ENDBRANCH   5  24
TORSDOF 7
ENDMDL
MODEL 3
REMARK VINA RESULT:     -11.4      5.475     10.820
REMARK  Name = 23586145
REMARK  7 active torsions:
REMARK  status: ('A' for Active; 'I' for Inactive)
REMARK    1  A    between atoms: C_5  and  O_24
REMARK    2  A    between atoms: C_7  and  N_10
REMARK    3  A    between atoms: N_10  and  C_12
REMARK    4  A    between atoms: C_15  and  S_18
REMARK    5  A    between atoms: S_18  and  N_21
REMARK    6  A    between atoms: O_24  and  C_25
REMARK    7  A    between atoms: C_25  and  C_26
REMARK                            x       y       z     vdW  Elec       q    Type
REMARK                         _______ _______ _______ _____ _____    ______ ____
ROOT
ATOM      1  N   UNL     1      34.003 -14.575 -23.361  0.00  0.00    -0.299 NA
ATOM      2  N   UNL     1      35.094 -16.682 -23.756  0.00  0.00    -0.106 N 
ATOM      3  N   UNL     1      35.378 -17.489 -24.812  0.00  0.00    -0.139 NA
ATOM      4  N   UNL     1      34.262 -15.638 -25.528  0.00  0.00    -0.145 NA
ATOM      5  C   UNL     1      34.294 -14.770 -22.116  0.00  0.00    +0.291 C 
ATOM      6  C   UNL     1      35.010 -15.921 -21.524  0.00  0.00    +0.105 C 
ATOM      7  C   UNL     1      35.396 -16.867 -22.399  0.00  0.00    +0.142 C 
ATOM      8  C   UNL     1      34.409 -15.552 -24.221  0.00  0.00    +0.178 C 
ATOM      9  C   UNL     1      34.860 -16.817 -25.834  0.00  0.00    +0.230 C 
ENDROOT
BRANCH   7  10
ATOM     10  N   UNL     1      36.069 -18.003 -22.051  0.00  0.00    -0.299 N 
ATOM     11  H   UNL     1      37.017 -18.037 -22.313  0.00  0.00    +0.153 HD
BRANCH  10  12
ATOM     12  C   UNL     1      35.584 -19.125 -21.370  0.00  0.00    +0.049 C 
ATOM     13  C   UNL     1      34.217 -19.430 -21.388  0.00  0.00    +0.016 C 
ATOM     14  C   UNL     1      36.461 -19.958 -20.663  0.00  0.00    +0.016 C 
ATOM     15  C   UNL     1      34.614 -21.373 -20.007  0.00  0.00    +0.122 C 
ATOM     16  C   UNL     1      33.735 -20.549 -20.709  0.00  0.00    +0.021 C 
ATOM     17  C   UNL     1      35.978 -21.077 -19.984  0.00  0.00    +0.021 C 
BRANCH  15  18
ATOM     18  S   UNL     1      34.010 -22.773 -19.158  0.00  0.00    +0.057 S 
ATOM     19  O   UNL     1      32.675 -22.470 -18.664  0.00  0.00    -0.153 OA
ATOM     20  O   UNL     1      34.223 -23.947 -19.992  0.00  0.00    -0.153 OA
BRANCH  18  21
ATOM     21  N   UNL     1      35.087 -22.839 -17.833  0.00  0.00    -0.203 NA
ATOM     22  H   UNL     1      34.581 -23.137 -16.999  0.00  0.00    +0.144 HD
ATOM     23  H   UNL     1      35.489 -21.915 -17.675  0.00  0.00    +0.144 HD
ENDBRANCH  18  21
ENDBRANCH  15  18
ENDBRANCH  10  12
ENDBRANCH   7  10
BRANCH   5  24
ATOM     24  O   UNL     1      33.940 -13.873 -21.201  0.00  0.00    -0.451 OA
BRANCH  24  25
ATOM     25  C   UNL     1      32.654 -14.058 -20.640  0.00  0.00    +0.208 C 
BRANCH  25  26
ATOM     26  C   UNL     1      31.900 -12.731 -20.707  0.00  0.00    +0.044 C 
ATOM     27  C   UNL     1      32.216 -11.866 -19.479  0.00  0.00    +0.004 C 
ATOM     28  C   UNL     1      32.237 -11.981 -22.003  0.00  0.00    +0.004 C 
ATOM     29  C   UNL     1      31.514 -10.511 -19.548  0.00  0.00    +0.000 C 
ATOM     30  C   UNL     1      31.536 -10.625 -22.068  0.00  0.00    +0.000 C 
ATOM     31  C   UNL     1      31.844  -9.774 -20.841  0.00  0.00    +0.000 C 
ENDBRANCH  25  26
ENDBRANCH  24  25
ENDBRANCH   5  24
TORSDOF 7
ENDMDL
MODEL 4
REMARK VINA RESULT:     -11.4      4.023      7.283
REMARK  Name = 23586145
REMARK  7 active torsions:
REMARK  status: ('A' for Active; 'I' for Inactive)
REMARK    1  A    between atoms: C_5  and  O_24
REMARK    2  A    between atoms: C_7  and  N_10
REMARK    3  A    between atoms: N_10  and  C_12
REMARK    4  A    between atoms: C_15  and  S_18
REMARK    5  A    between atoms: S_18  and  N_21
REMARK    6  A    between atoms: O_24  and  C_25
REMARK    7  A    between atoms: C_25  and  C_26
REMARK                            x       y       z     vdW  Elec       q    Type
REMARK                         _______ _______ _______ _____ _____    ______ ____
ROOT
ATOM      1  N   UNL     1      37.405 -23.690 -13.864  0.00  0.00    -0.299 NA
ATOM      2  N   UNL     1      35.491 -24.376 -12.579  0.00  0.00    -0.106 N 
ATOM      3  N   UNL     1      35.172 -24.581 -11.274  0.00  0.00    -0.139 NA
ATOM      4  N   UNL     1      37.342 -23.909 -11.447  0.00  0.00    -0.145 NA
ATOM      5  C   UNL     1      36.640 -23.837 -14.897  0.00  0.00    +0.291 C 
ATOM      6  C   UNL     1      35.224 -24.264 -14.921  0.00  0.00    +0.105 C 
ATOM      7  C   UNL     1      34.685 -24.527 -13.717  0.00  0.00    +0.142 C 
ATOM      8  C   UNL     1      36.827 -23.964 -12.659  0.00  0.00    +0.178 C 
ATOM      9  C   UNL     1      36.309 -24.287 -10.651  0.00  0.00    +0.230 C 
ENDROOT
BRANCH   7  10
ATOM     10  N   UNL     1      33.395 -24.933 -13.528  0.00  0.00    -0.299 N 
ATOM     11  H   UNL     1      33.256 -25.603 -12.820  0.00  0.00    +0.153 HD
BRANCH  10  12
ATOM     12  C   UNL     1      32.246 -24.521 -14.213  0.00  0.00    +0.049 C 
ATOM     13  C   UNL     1      32.170 -23.234 -14.760  0.00  0.00    +0.016 C 
ATOM     14  C   UNL     1      31.158 -25.392 -14.358  0.00  0.00    +0.016 C 
ATOM     15  C   UNL     1      29.945 -23.698 -15.582  0.00  0.00    +0.122 C 
ATOM     16  C   UNL     1      31.024 -22.825 -15.442  0.00  0.00    +0.021 C 
ATOM     17  C   UNL     1      30.013 -24.982 -15.040  0.00  0.00    +0.021 C 
BRANCH  15  18
ATOM     18  S   UNL     1      28.511 -23.185 -16.436  0.00  0.00    +0.057 S 
ATOM     19  O   UNL     1      27.453 -22.959 -15.462  0.00  0.00    -0.153 OA
ATOM     20  O   UNL     1      28.879 -22.124 -17.362  0.00  0.00    -0.153 OA
BRANCH  18  21
ATOM     21  N   UNL     1      28.146 -24.593 -17.332  0.00  0.00    -0.203 NA
ATOM     22  H   UNL     1      28.495 -24.489 -18.285  0.00  0.00    +0.144 HD
ATOM     23  H   UNL     1      27.136 -24.730 -17.353  0.00  0.00    +0.144 HD
ENDBRANCH  18  21
ENDBRANCH  15  18
ENDBRANCH  10  12
ENDBRANCH   7  10
BRANCH   5  24
ATOM     24  O   UNL     1      37.113 -23.593 -16.115  0.00  0.00    -0.451 OA
BRANCH  24  25
ATOM     25  C   UNL     1      36.893 -22.280 -16.597  0.00  0.00    +0.208 C 
BRANCH  25  26
ATOM     26  C   UNL     1      36.274 -22.373 -17.991  0.00  0.00    +0.044 C 
ATOM     27  C   UNL     1      34.744 -22.453 -17.900  0.00  0.00    +0.004 C 
ATOM     28  C   UNL     1      36.709 -21.184 -18.857  0.00  0.00    +0.004 C 
ATOM     29  C   UNL     1      34.099 -22.494 -19.284  0.00  0.00    +0.000 C 
ATOM     30  C   UNL     1      36.060 -21.227 -20.240  0.00  0.00    +0.000 C 
ATOM     31  C   UNL     1      34.541 -21.315 -20.145  0.00  0.00    +0.000 C 
ENDBRANCH  25  26
ENDBRANCH  24  25
ENDBRANCH   5  24
TORSDOF 7
ENDMDL
MODEL 5
REMARK VINA RESULT:     -11.1      4.771     10.290
REMARK  Name = 23586145
REMARK  7 active torsions:
REMARK  status: ('A' for Active; 'I' for Inactive)
REMARK    1  A    between atoms: C_5  and  O_24
REMARK    2  A    between atoms: C_7  and  N_10
REMARK    3  A    between atoms: N_10  and  C_12
REMARK    4  A    between atoms: C_15  and  S_18
REMARK    5  A    between atoms: S_18  and  N_21
REMARK    6  A    between atoms: O_24  and  C_25
REMARK    7  A    between atoms: C_25  and  C_26
REMARK                            x       y       z     vdW  Elec       q    Type
REMARK                         _______ _______ _______ _____ _____    ______ ____
ROOT
ATOM      1  N   UNL     1      34.520 -16.057 -24.376  0.00  0.00    -0.299 NA
ATOM      2  N   UNL     1      35.243 -18.280 -23.809  0.00  0.00    -0.106 N 
ATOM      3  N   UNL     1      35.210 -19.523 -24.356  0.00  0.00    -0.139 NA
ATOM      4  N   UNL     1      34.209 -18.031 -25.756  0.00  0.00    -0.145 NA
ATOM      5  C   UNL     1      35.027 -15.708 -23.238  0.00  0.00    +0.291 C 
ATOM      6  C   UNL     1      35.700 -16.573 -22.244  0.00  0.00    +0.105 C 
ATOM      7  C   UNL     1      35.784 -17.872 -22.580  0.00  0.00    +0.142 C 
ATOM      8  C   UNL     1      34.623 -17.382 -24.686  0.00  0.00    +0.178 C 
ATOM      9  C   UNL     1      34.585 -19.312 -25.509  0.00  0.00    +0.230 C 
ENDROOT
BRANCH   7  10
ATOM     10  N   UNL     1      36.368 -18.828 -21.799  0.00  0.00    -0.299 N 
ATOM     11  H   UNL     1      37.352 -18.808 -21.760  0.00  0.00    +0.153 HD
BRANCH  10  12
ATOM     12  C   UNL     1      35.749 -19.833 -21.048  0.00  0.00    +0.049 C 
ATOM     13  C   UNL     1      36.518 -20.758 -20.330  0.00  0.00    +0.016 C 
ATOM     14  C   UNL     1      34.352 -19.926 -21.005  0.00  0.00    +0.016 C 
ATOM     15  C   UNL     1      34.508 -21.845 -19.545  0.00  0.00    +0.122 C 
ATOM     16  C   UNL     1      35.900 -21.760 -19.582  0.00  0.00    +0.021 C 
ATOM     17  C   UNL     1      33.734 -20.928 -20.256  0.00  0.00    +0.021 C 
BRANCH  15  18
ATOM     18  S   UNL     1      33.735 -23.100 -18.608  0.00  0.00    +0.057 S 
ATOM     19  O   UNL     1      32.403 -22.642 -18.238  0.00  0.00    -0.153 OA
ATOM     20  O   UNL     1      33.896 -24.366 -19.309  0.00  0.00    -0.153 OA
BRANCH  18  21
ATOM     21  N   UNL     1      34.720 -23.116 -17.212  0.00  0.00    -0.203 NA
ATOM     22  H   UNL     1      35.386 -22.345 -17.258  0.00  0.00    +0.144 HD
ATOM     23  H   UNL     1      35.226 -24.000 -17.164  0.00  0.00    +0.144 HD
ENDBRANCH  18  21
ENDBRANCH  15  18
ENDBRANCH  10  12
ENDBRANCH   7  10
BRANCH   5  24
ATOM     24  O   UNL     1      34.975 -14.438 -22.849  0.00  0.00    -0.451 OA
BRANCH  24  25
ATOM     25  C   UNL     1      33.939 -13.670 -23.431  0.00  0.00    +0.208 C 
BRANCH  25  26
ATOM     26  C   UNL     1      32.864 -13.426 -22.373  0.00  0.00    +0.044 C 
ATOM     27  C   UNL     1      33.337 -13.919 -20.998  0.00  0.00    +0.004 C 
ATOM     28  C   UNL     1      32.484 -11.940 -22.320  0.00  0.00    +0.004 C 
ATOM     29  C   UNL     1      32.299 -13.638 -19.912  0.00  0.00    +0.000 C 
ATOM     30  C   UNL     1      31.449 -11.662 -21.231  0.00  0.00    +0.000 C 
ATOM     31  C   UNL     1      31.918 -12.162 -19.869  0.00  0.00    +0.000 C 
ENDBRANCH  25  26
ENDBRANCH  24  25
ENDBRANCH   5  24
TORSDOF 7
ENDMDL
MODEL 6
REMARK VINA RESULT:     -11.0      2.122      6.013
REMARK  Name = 23586145
REMARK  7 active torsions:
REMARK  status: ('A' for Active; 'I' for Inactive)
REMARK    1  A    between atoms: C_5  and  O_24
REMARK    2  A    between atoms: C_7  and  N_10
REMARK    3  A    between atoms: N_10  and  C_12
REMARK    4  A    between atoms: C_15  and  S_18
REMARK    5  A    between atoms: S_18  and  N_21
REMARK    6  A    between atoms: O_24  and  C_25
REMARK    7  A    between atoms: C_25  and  C_26
REMARK                            x       y       z     vdW  Elec       q    Type
REMARK                         _______ _______ _______ _____ _____    ______ ____
ROOT
ATOM      1  N   UNL     1      32.453 -23.345 -14.794  0.00  0.00    -0.299 NA
ATOM      2  N   UNL     1      34.164 -23.586 -16.467  0.00  0.00    -0.106 N 
ATOM      3  N   UNL     1      35.487 -23.893 -16.521  0.00  0.00    -0.139 NA
ATOM      4  N   UNL     1      34.768 -23.935 -14.361  0.00  0.00    -0.145 NA
ATOM      5  C   UNL     1      31.666 -23.062 -15.781  0.00  0.00    +0.291 C 
ATOM      6  C   UNL     1      32.005 -23.002 -17.220  0.00  0.00    +0.105 C 
ATOM      7  C   UNL     1      33.288 -23.275 -17.517  0.00  0.00    +0.142 C 
ATOM      8  C   UNL     1      33.746 -23.618 -15.131  0.00  0.00    +0.178 C 
ATOM      9  C   UNL     1      35.788 -24.090 -15.242  0.00  0.00    +0.230 C 
ENDROOT
BRANCH   7  10
ATOM     10  N   UNL     1      33.796 -23.272 -18.784  0.00  0.00    -0.299 N 
ATOM     11  H   UNL     1      33.797 -24.140 -19.248  0.00  0.00    +0.153 HD
BRANCH  10  12
ATOM     12  C   UNL     1      34.319 -22.194 -19.508  0.00  0.00    +0.049 C 
ATOM     13  C   UNL     1      35.701 -21.979 -19.561  0.00  0.00    +0.016 C 
ATOM     14  C   UNL     1      33.464 -21.317 -20.189  0.00  0.00    +0.016 C 
ATOM     15  C   UNL     1      35.363 -20.036 -20.957  0.00  0.00    +0.122 C 
ATOM     16  C   UNL     1      36.221 -20.904 -20.282  0.00  0.00    +0.021 C 
ATOM     17  C   UNL     1      33.983 -20.242 -20.910  0.00  0.00    +0.021 C 
BRANCH  15  18
ATOM     18  S   UNL     1      36.013 -18.690 -21.860  0.00  0.00    +0.057 S 
ATOM     19  O   UNL     1      35.684 -18.879 -23.265  0.00  0.00    -0.153 OA
ATOM     20  O   UNL     1      35.635 -17.456 -21.187  0.00  0.00    -0.153 OA
BRANCH  18  21
ATOM     21  N   UNL     1      37.691 -18.938 -21.647  0.00  0.00    -0.203 NA
ATOM     22  H   UNL     1      38.110 -18.097 -21.252  0.00  0.00    +0.144 HD
ATOM     23  H   UNL     1      38.121 -19.142 -22.549  0.00  0.00    +0.144 HD
ENDBRANCH  18  21
ENDBRANCH  15  18
ENDBRANCH  10  12
ENDBRANCH   7  10
BRANCH   5  24
ATOM     24  O   UNL     1      30.386 -22.782 -15.553  0.00  0.00    -0.451 OA
BRANCH  24  25
ATOM     25  C   UNL     1      29.526 -23.904 -15.488  0.00  0.00    +0.208 C 
BRANCH  25  26
ATOM     26  C   UNL     1      28.195 -23.531 -16.141  0.00  0.00    +0.044 C 
ATOM     27  C   UNL     1      27.490 -22.428 -15.341  0.00  0.00    +0.004 C 
ATOM     28  C   UNL     1      28.409 -23.099 -17.597  0.00  0.00    +0.004 C 
ATOM     29  C   UNL     1      26.181 -22.001 -16.003  0.00  0.00    +0.000 C 
ATOM     30  C   UNL     1      27.098 -22.671 -18.256  0.00  0.00    +0.000 C 
ATOM     31  C   UNL     1      26.396 -21.581 -17.453  0.00  0.00    +0.000 C 
ENDBRANCH  25  26
ENDBRANCH  24  25
ENDBRANCH   5  24
TORSDOF 7
ENDMDL
MODEL 7
REMARK VINA RESULT:     -10.9      3.574      7.545
REMARK  Name = 23586145
REMARK  7 active torsions:
REMARK  status: ('A' for Active; 'I' for Inactive)
REMARK    1  A    between atoms: C_5  and  O_24
REMARK    2  A    between atoms: C_7  and  N_10
REMARK    3  A    between atoms: N_10  and  C_12
REMARK    4  A    between atoms: C_15  and  S_18
REMARK    5  A    between atoms: S_18  and  N_21
REMARK    6  A    between atoms: O_24  and  C_25
REMARK    7  A    between atoms: C_25  and  C_26
REMARK                            x       y       z     vdW  Elec       q    Type
REMARK                         _______ _______ _______ _____ _____    ______ ____
ROOT
ATOM      1  N   UNL     1      37.319 -22.672 -15.817  0.00  0.00    -0.299 NA
ATOM      2  N   UNL     1      35.818 -23.616 -14.191  0.00  0.00    -0.106 N 
ATOM      3  N   UNL     1      35.850 -23.990 -12.885  0.00  0.00    -0.139 NA
ATOM      4  N   UNL     1      37.883 -23.176 -13.510  0.00  0.00    -0.145 NA
ATOM      5  C   UNL     1      36.318 -22.742 -16.634  0.00  0.00    +0.291 C 
ATOM      6  C   UNL     1      34.956 -23.245 -16.356  0.00  0.00    +0.105 C 
ATOM      7  C   UNL     1      34.751 -23.679 -15.100  0.00  0.00    +0.142 C 
ATOM      8  C   UNL     1      37.077 -23.120 -14.551  0.00  0.00    +0.178 C 
ATOM      9  C   UNL     1      37.100 -23.705 -12.536  0.00  0.00    +0.230 C 
ENDROOT
BRANCH   7  10
ATOM     10  N   UNL     1      33.565 -24.180 -14.647  0.00  0.00    -0.299 N 
ATOM     11  H   UNL     1      33.623 -24.794 -13.880  0.00  0.00    +0.153 HD
BRANCH  10  12
ATOM     12  C   UNL     1      32.276 -23.933 -15.133  0.00  0.00    +0.049 C 
ATOM     13  C   UNL     1      32.081 -23.071 -16.219  0.00  0.00    +0.016 C 
ATOM     14  C   UNL     1      31.165 -24.546 -14.539  0.00  0.00    +0.016 C 
ATOM     15  C   UNL     1      29.695 -23.440 -16.106  0.00  0.00    +0.122 C 
ATOM     16  C   UNL     1      30.796 -22.826 -16.703  0.00  0.00    +0.021 C 
ATOM     17  C   UNL     1      29.880 -24.301 -15.023  0.00  0.00    +0.021 C 
BRANCH  15  18
ATOM     18  S   UNL     1      28.087 -23.133 -16.712  0.00  0.00    +0.057 S 
ATOM     19  O   UNL     1      27.156 -23.188 -15.594  0.00  0.00    -0.153 OA
ATOM     20  O   UNL     1      28.131 -21.950 -17.560  0.00  0.00    -0.153 OA
BRANCH  18  21
ATOM     21  N   UNL     1      27.845 -24.506 -17.700  0.00  0.00    -0.203 NA
ATOM     22  H   UNL     1      27.152 -24.290 -18.417  0.00  0.00    +0.144 HD
ATOM     23  H   UNL     1      27.513 -25.282 -17.128  0.00  0.00    +0.144 HD
ENDBRANCH  18  21
ENDBRANCH  15  18
ENDBRANCH  10  12
ENDBRANCH   7  10
BRANCH   5  24
ATOM     24  O   UNL     1      36.457 -22.329 -17.891  0.00  0.00    -0.451 OA
BRANCH  24  25
ATOM     25  C   UNL     1      35.278 -22.371 -18.673  0.00  0.00    +0.208 C 
BRANCH  25  26
ATOM     26  C   UNL     1      35.524 -21.590 -19.962  0.00  0.00    +0.044 C 
ATOM     27  C   UNL     1      34.265 -20.815 -20.374  0.00  0.00    +0.004 C 
ATOM     28  C   UNL     1      36.720 -20.642 -19.802  0.00  0.00    +0.004 C 
ATOM     29  C   UNL     1      34.501 -19.984 -21.634  0.00  0.00    +0.000 C 
ATOM     30  C   UNL     1      36.953 -19.811 -21.063  0.00  0.00    +0.000 C 
ATOM     31  C   UNL     1      35.697 -19.050 -21.474  0.00  0.00    +0.000 C 
ENDBRANCH  25  26
ENDBRANCH  24  25
ENDBRANCH   5  24
TORSDOF 7
ENDMDL
MODEL 8
REMARK VINA RESULT:     -10.2      6.243      9.608
REMARK  Name = 23586145
REMARK  7 active torsions:
REMARK  status: ('A' for Active; 'I' for Inactive)
REMARK    1  A    between atoms: C_5  and  O_24
REMARK    2  A    between atoms: C_7  and  N_10
REMARK    3  A    between atoms: N_10  and  C_12
REMARK    4  A    between atoms: C_15  and  S_18
REMARK    5  A    between atoms: S_18  and  N_21
REMARK    6  A    between atoms: O_24  and  C_25
REMARK    7  A    between atoms: C_25  and  C_26
REMARK                            x       y       z     vdW  Elec       q    Type
REMARK                         _______ _______ _______ _____ _____    ______ ____
ROOT
ATOM      1  N   UNL     1      34.531 -18.340 -24.850  0.00  0.00    -0.299 NA
ATOM      2  N   UNL     1      34.491 -15.946 -24.623  0.00  0.00    -0.106 N 
ATOM      3  N   UNL     1      34.116 -14.868 -25.360  0.00  0.00    -0.139 NA
ATOM      4  N   UNL     1      33.728 -16.783 -26.530  0.00  0.00    -0.145 NA
ATOM      5  C   UNL     1      35.038 -18.345 -23.659  0.00  0.00    +0.291 C 
ATOM      6  C   UNL     1      35.337 -17.180 -22.798  0.00  0.00    +0.105 C 
ATOM      7  C   UNL     1      35.042 -15.982 -23.333  0.00  0.00    +0.142 C 
ATOM      8  C   UNL     1      34.243 -17.109 -25.362  0.00  0.00    +0.178 C 
ATOM      9  C   UNL     1      33.671 -15.428 -26.480  0.00  0.00    +0.230 C 
ENDROOT
BRANCH   7  10
ATOM     10  N   UNL     1      35.242 -14.790 -22.698  0.00  0.00    -0.299 N 
ATOM     11  H   UNL     1      36.174 -14.476 -22.661  0.00  0.00    +0.153 HD
BRANCH  10  12
ATOM     12  C   UNL     1      34.294 -13.959 -22.091  0.00  0.00    +0.049 C 
ATOM     13  C   UNL     1      33.835 -14.234 -20.796  0.00  0.00    +0.016 C 
ATOM     14  C   UNL     1      33.792 -12.842 -22.771  0.00  0.00    +0.016 C 
ATOM     15  C   UNL     1      32.395 -12.295 -20.877  0.00  0.00    +0.122 C 
ATOM     16  C   UNL     1      32.890 -13.405 -20.192  0.00  0.00    +0.021 C 
ATOM     17  C   UNL     1      32.847 -12.013 -22.167  0.00  0.00    +0.021 C 
BRANCH  15  18
ATOM     18  S   UNL     1      31.212 -11.258 -20.120  0.00  0.00    +0.057 S 
ATOM     19  O   UNL     1      29.953 -11.398 -20.837  0.00  0.00    -0.153 OA
ATOM     20  O   UNL     1      31.254 -11.481 -18.682  0.00  0.00    -0.153 OA
BRANCH  18  21
ATOM     21  N   UNL     1      31.870  -9.716 -20.455  0.00  0.00    -0.203 NA
ATOM     22  H   UNL     1      31.234  -8.995 -20.117  0.00  0.00    +0.144 HD
ATOM     23  H   UNL     1      31.997  -9.613 -21.461  0.00  0.00    +0.144 HD
ENDBRANCH  18  21
ENDBRANCH  15  18
ENDBRANCH  10  12
ENDBRANCH   7  10
BRANCH   5  24
ATOM     24  O   UNL     1      35.352 -19.497 -23.075  0.00  0.00    -0.451 OA
BRANCH  24  25
ATOM     25  C   UNL     1      36.192 -19.390 -21.941  0.00  0.00    +0.208 C 
BRANCH  25  26
ATOM     26  C   UNL     1      35.496 -20.060 -20.758  0.00  0.00    +0.044 C 
ATOM     27  C   UNL     1      34.040 -20.398 -21.107  0.00  0.00    +0.004 C 
ATOM     28  C   UNL     1      36.259 -21.317 -20.321  0.00  0.00    +0.004 C 
ATOM     29  C   UNL     1      33.337 -21.117 -19.957  0.00  0.00    +0.000 C 
ATOM     30  C   UNL     1      35.552 -22.035 -19.172  0.00  0.00    +0.000 C 
ATOM     31  C   UNL     1      34.103 -22.361 -19.520  0.00  0.00    +0.000 C 
ENDBRANCH  25  26
ENDBRANCH  24  25
ENDBRANCH   5  24
TORSDOF 7
ENDMDL
MODEL 9
REMARK VINA RESULT:     -10.1      2.474      5.289
REMARK  Name = 23586145
REMARK  7 active torsions:
REMARK  status: ('A' for Active; 'I' for Inactive)
REMARK    1  A    between atoms: C_5  and  O_24
REMARK    2  A    between atoms: C_7  and  N_10
REMARK    3  A    between atoms: N_10  and  C_12
REMARK    4  A    between atoms: C_15  and  S_18
REMARK    5  A    between atoms: S_18  and  N_21
REMARK    6  A    between atoms: O_24  and  C_25
REMARK    7  A    between atoms: C_25  and  C_26
REMARK                            x       y       z     vdW  Elec       q    Type
REMARK                         _______ _______ _______ _____ _____    ______ ____
ROOT
ATOM      1  N   UNL     1      34.991 -23.127 -14.840  0.00  0.00    -0.299 NA
ATOM      2  N   UNL     1      35.885 -22.770 -17.044  0.00  0.00    -0.106 N 
ATOM      3  N   UNL     1      37.083 -22.473 -17.612  0.00  0.00    -0.139 NA
ATOM      4  N   UNL     1      37.305 -22.598 -15.348  0.00  0.00    -0.145 NA
ATOM      5  C   UNL     1      33.860 -23.321 -15.438  0.00  0.00    +0.291 C 
ATOM      6  C   UNL     1      33.583 -23.270 -16.890  0.00  0.00    +0.105 C 
ATOM      7  C   UNL     1      34.645 -22.985 -17.665  0.00  0.00    +0.142 C 
ATOM      8  C   UNL     1      36.047 -22.842 -15.655  0.00  0.00    +0.178 C 
ATOM      9  C   UNL     1      37.886 -22.384 -16.556  0.00  0.00    +0.230 C 
ENDROOT
BRANCH   7  10
ATOM     10  N   UNL     1      34.596 -22.893 -19.026  0.00  0.00    -0.299 N 
ATOM     11  H   UNL     1      34.356 -23.720 -19.503  0.00  0.00    +0.153 HD
BRANCH  10  12
ATOM     12  C   UNL     1      34.844 -21.775 -19.831  0.00  0.00    +0.049 C 
ATOM     13  C   UNL     1      33.781 -21.018 -20.339  0.00  0.00    +0.016 C 
ATOM     14  C   UNL     1      36.158 -21.401 -20.137  0.00  0.00    +0.016 C 
ATOM     15  C   UNL     1      35.342 -19.538 -21.441  0.00  0.00    +0.122 C 
ATOM     16  C   UNL     1      34.029 -19.904 -21.141  0.00  0.00    +0.021 C 
ATOM     17  C   UNL     1      36.407 -20.287 -20.939  0.00  0.00    +0.021 C 
BRANCH  15  18
ATOM     18  S   UNL     1      35.652 -18.143 -22.445  0.00  0.00    +0.057 S 
ATOM     19  O   UNL     1      34.886 -18.283 -23.675  0.00  0.00    -0.153 OA
ATOM     20  O   UNL     1      35.501 -16.945 -21.631  0.00  0.00    -0.153 OA
BRANCH  18  21
ATOM     21  N   UNL     1      37.309 -18.360 -22.799  0.00  0.00    -0.203 NA
ATOM     22  H   UNL     1      37.558 -17.801 -23.615  0.00  0.00    +0.144 HD
ATOM     23  H   UNL     1      37.489 -19.345 -22.993  0.00  0.00    +0.144 HD
ENDBRANCH  18  21
ENDBRANCH  15  18
ENDBRANCH  10  12
ENDBRANCH   7  10
BRANCH   5  24
ATOM     24  O   UNL     1      32.772 -23.605 -14.727  0.00  0.00    -0.451 OA
BRANCH  24  25
ATOM     25  C   UNL     1      31.836 -22.551 -14.609  0.00  0.00    +0.208 C 
BRANCH  25  26
ATOM     26  C   UNL     1      30.452 -23.091 -14.964  0.00  0.00    +0.044 C 
ATOM     27  C   UNL     1      30.017 -22.596 -16.351  0.00  0.00    +0.004 C 
ATOM     28  C   UNL     1      30.435 -24.624 -14.902  0.00  0.00    +0.004 C 
ATOM     29  C   UNL     1      28.657 -23.165 -16.752  0.00  0.00    +0.000 C 
ATOM     30  C   UNL     1      29.074 -25.190 -15.305  0.00  0.00    +0.000 C 
ATOM     31  C   UNL     1      28.642 -24.688 -16.679  0.00  0.00    +0.000 C 
ENDBRANCH  25  26
ENDBRANCH  24  25
ENDBRANCH   5  24
TORSDOF 7
ENDMDL
