MODEL 1
REMARK VINA RESULT:     -11.9      0.000      0.000
REMARK  Name = 44123754
REMARK  11 active torsions:
REMARK  status: ('A' for Active; 'I' for Inactive)
REMARK    1  A    between atoms: C_3  and  C_22
REMARK    2  A    between atoms: C_4  and  C_7
REMARK    3  A    between atoms: N_6  and  C_15
REMARK    4  A    between atoms: C_8  and  N_12
REMARK    5  A    between atoms: C_15  and  O_16
REMARK    6  A    between atoms: O_16  and  P_17
REMARK    7  A    between atoms: P_17  and  O_20
REMARK    8  A    between atoms: C_22  and  C_23
REMARK    9  A    between atoms: C_26  and  C_29
REMARK   10  A    between atoms: C_29  and  O_30
REMARK   11  A    between atoms: O_30  and  C_32
REMARK                            x       y       z     vdW  Elec       q    Type
REMARK                         _______ _______ _______ _____ _____    ______ ____
ROOT
ATOM      1  O   UNL     1      34.568 -24.981 -16.715  0.00  0.00    -0.354 OA
ATOM      2  N   UNL     1      33.900 -24.483 -17.827  0.00  0.00    -0.081 NA
ATOM      3  C   UNL     1      33.604 -23.218 -17.514  0.00  0.00    +0.105 C 
ATOM      4  C   UNL     1      34.654 -24.009 -15.771  0.00  0.00    +0.175 C 
ATOM      5  C   UNL     1      34.055 -22.866 -16.230  0.00  0.00    +0.058 C 
ENDROOT
BRANCH   4   7
ATOM      6  N   UNL     1      37.110 -25.421 -13.396  0.00  0.00    -0.266 N 
ATOM      7  C   UNL     1      35.328 -24.382 -14.549  0.00  0.00    +0.048 C 
ATOM      8  C   UNL     1      36.517 -25.096 -14.553  0.00  0.00    +0.156 C 
ATOM      9  C   UNL     1      34.771 -24.016 -13.328  0.00  0.00    +0.003 C 
ATOM     10  C   UNL     1      36.595 -25.081 -12.207  0.00  0.00    +0.064 C 
ATOM     11  C   UNL     1      35.408 -24.367 -12.141  0.00  0.00    +0.016 C 
BRANCH   8  12
ATOM     12  N   UNL     1      37.116 -25.487 -15.771  0.00  0.00    -0.303 NA
ATOM     13  H   UNL     1      36.811 -25.089 -16.619  0.00  0.00    +0.121 HD
ATOM     14  H   UNL     1      37.837 -26.156 -15.771  0.00  0.00    +0.121 HD
ENDBRANCH   8  12
BRANCH   6  15
ATOM     15  C   UNL     1      38.366 -26.175 -13.402  0.00  0.00    +0.251 C 
BRANCH  15  16
ATOM     16  O   UNL     1      39.437 -25.271 -13.636  0.00  0.00    -0.250 OA
BRANCH  16  17
ATOM     17  P   UNL     1      40.669 -25.726 -14.608  0.00  0.00    +0.504 P 
ATOM     18  O   UNL     1      41.371 -26.929 -14.016  0.00  0.00    -0.225 OA
ATOM     19  O   UNL     1      41.456 -24.492 -14.994  0.00  0.00    -0.116 OA
BRANCH  17  20
ATOM     20  O   UNL     1      39.815 -26.212 -15.913  0.00  0.00    -0.301 OA
ATOM     21  H   UNL     1      38.867 -26.166 -15.714  0.00  0.00    +0.222 HD
ENDBRANCH  17  20
ENDBRANCH  16  17
ENDBRANCH  15  16
ENDBRANCH   6  15
ENDBRANCH   4   7
BRANCH   3  22
ATOM     22  C   UNL     1      32.882 -22.373 -18.479  0.00  0.00    +0.075 C 
BRANCH  22  23
ATOM     23  C   UNL     1      33.778 -21.573 -19.416  0.00  0.00    -0.016 C 
ATOM     24  C   UNL     1      35.162 -21.740 -19.369  0.00  0.00    -0.004 C 
ATOM     25  C   UNL     1      33.214 -20.674 -20.322  0.00  0.00    -0.004 C 
ATOM     26  C   UNL     1      35.419 -20.109 -21.133  0.00  0.00    +0.021 C 
ATOM     27  C   UNL     1      35.983 -21.008 -20.227  0.00  0.00    -0.001 C 
ATOM     28  C   UNL     1      34.035 -19.942 -21.180  0.00  0.00    -0.001 C 
BRANCH  26  29
ATOM     29  C   UNL     1      36.296 -19.329 -22.052  0.00  0.00    +0.234 C 
BRANCH  29  30
ATOM     30  O   UNL     1      36.070 -17.938 -21.854  0.00  0.00    -0.455 OA
BRANCH  30  32
ATOM     31  N   UNL     1      35.235 -15.945 -22.699  0.00  0.00    -0.210 NA
ATOM     32  C   UNL     1      35.564 -17.238 -22.918  0.00  0.00    +0.225 C 
ATOM     33  C   UNL     1      35.421 -17.880 -24.137  0.00  0.00    +0.058 C 
ATOM     34  C   UNL     1      34.907 -17.147 -25.202  0.00  0.00    +0.006 C 
ATOM     35  C   UNL     1      34.740 -15.265 -23.757  0.00  0.00    +0.102 C 
ATOM     36  C   UNL     1      34.558 -15.814 -25.017  0.00  0.00    +0.021 C 
ENDBRANCH  30  32
ENDBRANCH  29  30
ENDBRANCH  26  29
ENDBRANCH  22  23
ENDBRANCH   3  22
TORSDOF 11
ENDMDL
MODEL 2
REMARK VINA RESULT:     -11.6      5.578     12.176
REMARK  Name = 44123754
REMARK  11 active torsions:
REMARK  status: ('A' for Active; 'I' for Inactive)
REMARK    1  A    between atoms: C_3  and  C_22
REMARK    2  A    between atoms: C_4  and  C_7
REMARK    3  A    between atoms: N_6  and  C_15
REMARK    4  A    between atoms: C_8  and  N_12
REMARK    5  A    between atoms: C_15  and  O_16
REMARK    6  A    between atoms: O_16  and  P_17
REMARK    7  A    between atoms: P_17  and  O_20
REMARK    8  A    between atoms: C_22  and  C_23
REMARK    9  A    between atoms: C_26  and  C_29
REMARK   10  A    between atoms: C_29  and  O_30
REMARK   11  A    between atoms: O_30  and  C_32
REMARK                            x       y       z     vdW  Elec       q    Type
REMARK                         _______ _______ _______ _____ _____    ______ ____
ROOT
ATOM      1  O   UNL     1      35.156 -15.767 -21.247  0.00  0.00    -0.354 OA
ATOM      2  N   UNL     1      35.660 -17.039 -21.004  0.00  0.00    -0.081 NA
ATOM      3  C   UNL     1      35.627 -17.656 -22.188  0.00  0.00    +0.105 C 
ATOM      4  C   UNL     1      34.835 -15.655 -22.561  0.00  0.00    +0.175 C 
ATOM      5  C   UNL     1      35.116 -16.831 -23.205  0.00  0.00    +0.058 C 
ENDROOT
BRANCH   4   7
ATOM      6  N   UNL     1      32.811 -12.564 -22.667  0.00  0.00    -0.266 N 
ATOM      7  C   UNL     1      34.295 -14.379 -22.967  0.00  0.00    +0.048 C 
ATOM      8  C   UNL     1      33.283 -13.749 -22.256  0.00  0.00    +0.156 C 
ATOM      9  C   UNL     1      34.801 -13.758 -24.104  0.00  0.00    +0.003 C 
ATOM     10  C   UNL     1      33.280 -11.945 -23.759  0.00  0.00    +0.064 C 
ATOM     11  C   UNL     1      34.291 -12.528 -24.509  0.00  0.00    +0.016 C 
BRANCH   8  12
ATOM     12  N   UNL     1      32.742 -14.345 -21.096  0.00  0.00    -0.303 NA
ATOM     13  H   UNL     1      33.011 -14.021 -20.206  0.00  0.00    +0.121 HD
ATOM     14  H   UNL     1      32.097 -15.083 -21.178  0.00  0.00    +0.121 HD
ENDBRANCH   8  12
BRANCH   6  15
ATOM     15  C   UNL     1      31.744 -11.899 -21.916  0.00  0.00    +0.251 C 
BRANCH  15  16
ATOM     16  O   UNL     1      32.333 -10.990 -20.997  0.00  0.00    -0.250 OA
BRANCH  16  17
ATOM     17  P   UNL     1      31.935 -11.081 -19.415  0.00  0.00    +0.504 P 
ATOM     18  O   UNL     1      32.727 -10.060 -18.628  0.00  0.00    -0.225 OA
ATOM     19  O   UNL     1      31.937 -12.537 -19.003  0.00  0.00    -0.116 OA
BRANCH  17  20
ATOM     20  O   UNL     1      30.382 -10.581 -19.501  0.00  0.00    -0.301 OA
ATOM     21  H   UNL     1      30.198  -9.970 -18.770  0.00  0.00    +0.222 HD
ENDBRANCH  17  20
ENDBRANCH  16  17
ENDBRANCH  15  16
ENDBRANCH   6  15
ENDBRANCH   4   7
BRANCH   3  22
ATOM     22  C   UNL     1      36.096 -19.046 -22.306  0.00  0.00    +0.075 C 
BRANCH  22  23
ATOM     23  C   UNL     1      35.457 -20.017 -21.321  0.00  0.00    -0.016 C 
ATOM     24  C   UNL     1      36.261 -20.813 -20.506  0.00  0.00    -0.004 C 
ATOM     25  C   UNL     1      34.067 -20.108 -21.234  0.00  0.00    -0.004 C 
ATOM     26  C   UNL     1      34.286 -21.794 -19.517  0.00  0.00    +0.021 C 
ATOM     27  C   UNL     1      35.676 -21.702 -19.605  0.00  0.00    -0.001 C 
ATOM     28  C   UNL     1      33.483 -20.997 -20.332  0.00  0.00    -0.001 C 
BRANCH  26  29
ATOM     29  C   UNL     1      33.661 -22.742 -18.552  0.00  0.00    +0.234 C 
BRANCH  29  30
ATOM     30  O   UNL     1      32.296 -22.391 -18.361  0.00  0.00    -0.455 OA
BRANCH  30  32
ATOM     31  N   UNL     1      30.382 -22.674 -17.081  0.00  0.00    -0.210 NA
ATOM     32  C   UNL     1      31.730 -22.743 -17.164  0.00  0.00    +0.225 C 
ATOM     33  C   UNL     1      32.552 -23.146 -16.124  0.00  0.00    +0.058 C 
ATOM     34  C   UNL     1      31.953 -23.500 -14.920  0.00  0.00    +0.006 C 
ATOM     35  C   UNL     1      29.835 -23.027 -15.895  0.00  0.00    +0.102 C 
ATOM     36  C   UNL     1      30.569 -23.443 -14.796  0.00  0.00    +0.021 C 
ENDBRANCH  30  32
ENDBRANCH  29  30
ENDBRANCH  26  29
ENDBRANCH  22  23
ENDBRANCH   3  22
TORSDOF 11
ENDMDL
MODEL 3
REMARK VINA RESULT:     -11.4      4.226      6.051
REMARK  Name = 44123754
REMARK  11 active torsions:
REMARK  status: ('A' for Active; 'I' for Inactive)
REMARK    1  A    between atoms: C_3  and  C_22
REMARK    2  A    between atoms: C_4  and  C_7
REMARK    3  A    between atoms: N_6  and  C_15
REMARK    4  A    between atoms: C_8  and  N_12
REMARK    5  A    between atoms: C_15  and  O_16
REMARK    6  A    between atoms: O_16  and  P_17
REMARK    7  A    between atoms: P_17  and  O_20
REMARK    8  A    between atoms: C_22  and  C_23
REMARK    9  A    between atoms: C_26  and  C_29
REMARK   10  A    between atoms: C_29  and  O_30
REMARK   11  A    between atoms: O_30  and  C_32
REMARK                            x       y       z     vdW  Elec       q    Type
REMARK                         _______ _______ _______ _____ _____    ______ ____
ROOT
ATOM      1  O   UNL     1      34.089 -23.404 -18.557  0.00  0.00    -0.354 OA
ATOM      2  N   UNL     1      34.946 -22.878 -19.517  0.00  0.00    -0.081 NA
ATOM      3  C   UNL     1      35.852 -22.180 -18.826  0.00  0.00    +0.105 C 
ATOM      4  C   UNL     1      34.500 -23.010 -17.325  0.00  0.00    +0.175 C 
ATOM      5  C   UNL     1      35.619 -22.229 -17.440  0.00  0.00    +0.058 C 
ENDROOT
BRANCH   4   7
ATOM      6  N   UNL     1      31.637 -23.682 -15.085  0.00  0.00    -0.266 N 
ATOM      7  C   UNL     1      33.701 -23.483 -16.218  0.00  0.00    +0.048 C 
ATOM      8  C   UNL     1      32.341 -23.223 -16.129  0.00  0.00    +0.156 C 
ATOM      9  C   UNL     1      34.310 -24.221 -15.208  0.00  0.00    +0.003 C 
ATOM     10  C   UNL     1      32.198 -24.394 -14.099  0.00  0.00    +0.064 C 
ATOM     11  C   UNL     1      33.554 -24.683 -14.135  0.00  0.00    +0.016 C 
BRANCH   8  12
ATOM     12  N   UNL     1      31.685 -22.478 -17.133  0.00  0.00    -0.303 NA
ATOM     13  H   UNL     1      32.094 -22.386 -18.024  0.00  0.00    +0.121 HD
ATOM     14  H   UNL     1      30.819 -22.051 -16.941  0.00  0.00    +0.121 HD
ENDBRANCH   8  12
BRANCH   6  15
ATOM     15  C   UNL     1      30.201 -23.408 -14.993  0.00  0.00    +0.251 C 
BRANCH  15  16
ATOM     16  O   UNL     1      29.533 -24.140 -16.011  0.00  0.00    -0.250 OA
BRANCH  16  17
ATOM     17  P   UNL     1      28.223 -23.486 -16.737  0.00  0.00    +0.504 P 
ATOM     18  O   UNL     1      27.224 -23.045 -15.690  0.00  0.00    -0.225 OA
ATOM     19  O   UNL     1      27.798 -24.396 -17.868  0.00  0.00    -0.116 OA
BRANCH  17  20
ATOM     20  O   UNL     1      28.914 -22.156 -17.388  0.00  0.00    -0.301 OA
ATOM     21  H   UNL     1      28.335 -21.390 -17.251  0.00  0.00    +0.222 HD
ENDBRANCH  17  20
ENDBRANCH  16  17
ENDBRANCH  15  16
ENDBRANCH   6  15
ENDBRANCH   4   7
BRANCH   3  22
ATOM     22  C   UNL     1      36.932 -21.476 -19.534  0.00  0.00    +0.075 C 
BRANCH  22  23
ATOM     23  C   UNL     1      36.458 -20.477 -20.582  0.00  0.00    -0.016 C 
ATOM     24  C   UNL     1      37.337 -19.512 -21.074  0.00  0.00    -0.004 C 
ATOM     25  C   UNL     1      35.145 -20.528 -21.051  0.00  0.00    -0.004 C 
ATOM     26  C   UNL     1      35.590 -18.649 -22.502  0.00  0.00    +0.021 C 
ATOM     27  C   UNL     1      36.903 -18.598 -22.034  0.00  0.00    -0.001 C 
ATOM     28  C   UNL     1      34.711 -19.613 -22.010  0.00  0.00    -0.001 C 
BRANCH  26  29
ATOM     29  C   UNL     1      35.127 -17.672 -23.530  0.00  0.00    +0.234 C 
BRANCH  29  30
ATOM     30  O   UNL     1      35.701 -16.398 -23.264  0.00  0.00    -0.455 OA
BRANCH  30  32
ATOM     31  N   UNL     1      34.215 -14.654 -23.630  0.00  0.00    -0.210 NA
ATOM     32  C   UNL     1      34.867 -15.442 -22.746  0.00  0.00    +0.225 C 
ATOM     33  C   UNL     1      34.737 -15.338 -21.370  0.00  0.00    +0.058 C 
ATOM     34  C   UNL     1      33.884 -14.361 -20.869  0.00  0.00    +0.006 C 
ATOM     35  C   UNL     1      33.394 -13.716 -23.106  0.00  0.00    +0.102 C 
ATOM     36  C   UNL     1      33.195 -13.530 -21.747  0.00  0.00    +0.021 C 
ENDBRANCH  30  32
ENDBRANCH  29  30
ENDBRANCH  26  29
ENDBRANCH  22  23
ENDBRANCH   3  22
TORSDOF 11
ENDMDL
MODEL 4
REMARK VINA RESULT:     -11.3      3.272      5.933
REMARK  Name = 44123754
REMARK  11 active torsions:
REMARK  status: ('A' for Active; 'I' for Inactive)
REMARK    1  A    between atoms: C_3  and  C_22
REMARK    2  A    between atoms: C_4  and  C_7
REMARK    3  A    between atoms: N_6  and  C_15
REMARK    4  A    between atoms: C_8  and  N_12
REMARK    5  A    between atoms: C_15  and  O_16
REMARK    6  A    between atoms: O_16  and  P_17
REMARK    7  A    between atoms: P_17  and  O_20
REMARK    8  A    between atoms: C_22  and  C_23
REMARK    9  A    between atoms: C_26  and  C_29
REMARK   10  A    between atoms: C_29  and  O_30
REMARK   11  A    between atoms: O_30  and  C_32
REMARK                            x       y       z     vdW  Elec       q    Type
REMARK                         _______ _______ _______ _____ _____    ______ ____
ROOT
ATOM      1  O   UNL     1      36.789 -20.150 -19.985  0.00  0.00    -0.354 OA
ATOM      2  N   UNL     1      37.165 -19.331 -21.043  0.00  0.00    -0.081 NA
ATOM      3  C   UNL     1      36.165 -19.423 -21.924  0.00  0.00    +0.105 C 
ATOM      4  C   UNL     1      35.582 -20.709 -20.258  0.00  0.00    +0.175 C 
ATOM      5  C   UNL     1      35.141 -20.278 -21.481  0.00  0.00    +0.058 C 
ENDROOT
BRANCH   4   7
ATOM      6  N   UNL     1      35.311 -22.864 -17.267  0.00  0.00    -0.266 N 
ATOM      7  C   UNL     1      35.058 -21.593 -19.243  0.00  0.00    +0.048 C 
ATOM      8  C   UNL     1      35.837 -22.045 -18.188  0.00  0.00    +0.156 C 
ATOM      9  C   UNL     1      33.732 -22.005 -19.321  0.00  0.00    +0.003 C 
ATOM     10  C   UNL     1      34.037 -23.276 -17.318  0.00  0.00    +0.064 C 
ATOM     11  C   UNL     1      33.211 -22.856 -18.350  0.00  0.00    +0.016 C 
BRANCH   8  12
ATOM     12  N   UNL     1      37.188 -21.651 -18.072  0.00  0.00    -0.303 NA
ATOM     13  H   UNL     1      37.907 -22.281 -18.308  0.00  0.00    +0.121 HD
ATOM     14  H   UNL     1      37.410 -20.746 -17.755  0.00  0.00    +0.121 HD
ENDBRANCH   8  12
BRANCH   6  15
ATOM     15  C   UNL     1      36.134 -23.341 -16.153  0.00  0.00    +0.251 C 
BRANCH  15  16
ATOM     16  O   UNL     1      35.654 -24.614 -15.746  0.00  0.00    -0.250 OA
BRANCH  16  17
ATOM     17  P   UNL     1      36.713 -25.728 -15.190  0.00  0.00    +0.504 P 
ATOM     18  O   UNL     1      38.099 -25.125 -15.118  0.00  0.00    -0.225 OA
ATOM     19  O   UNL     1      36.479 -27.025 -15.933  0.00  0.00    -0.116 OA
BRANCH  17  20
ATOM     20  O   UNL     1      36.143 -25.905 -13.670  0.00  0.00    -0.301 OA
ATOM     21  H   UNL     1      35.580 -26.693 -13.625  0.00  0.00    +0.222 HD
ENDBRANCH  17  20
ENDBRANCH  16  17
ENDBRANCH  15  16
ENDBRANCH   6  15
ENDBRANCH   4   7
BRANCH   3  22
ATOM     22  C   UNL     1      36.228 -18.671 -23.187  0.00  0.00    +0.075 C 
BRANCH  22  23
ATOM     23  C   UNL     1      35.631 -17.271 -23.123  0.00  0.00    -0.016 C 
ATOM     24  C   UNL     1      35.401 -16.667 -21.887  0.00  0.00    -0.004 C 
ATOM     25  C   UNL     1      35.316 -16.591 -24.300  0.00  0.00    -0.004 C 
ATOM     26  C   UNL     1      34.540 -14.706 -23.004  0.00  0.00    +0.021 C 
ATOM     27  C   UNL     1      34.856 -15.385 -21.827  0.00  0.00    -0.001 C 
ATOM     28  C   UNL     1      34.771 -15.309 -24.240  0.00  0.00    -0.001 C 
BRANCH  26  29
ATOM     29  C   UNL     1      33.959 -13.334 -22.940  0.00  0.00    +0.234 C 
BRANCH  29  30
ATOM     30  O   UNL     1      32.614 -13.412 -22.485  0.00  0.00    -0.455 OA
BRANCH  30  32
ATOM     31  N   UNL     1      31.864 -11.276 -21.977  0.00  0.00    -0.210 NA
ATOM     32  C   UNL     1      32.230 -12.500 -21.536  0.00  0.00    +0.225 C 
ATOM     33  C   UNL     1      32.235 -12.875 -20.203  0.00  0.00    +0.058 C 
ATOM     34  C   UNL     1      31.840 -11.933 -19.260  0.00  0.00    +0.006 C 
ATOM     35  C   UNL     1      31.484 -10.386 -21.032  0.00  0.00    +0.102 C 
ATOM     36  C   UNL     1      31.455 -10.662 -19.674  0.00  0.00    +0.021 C 
ENDBRANCH  30  32
ENDBRANCH  29  30
ENDBRANCH  26  29
ENDBRANCH  22  23
ENDBRANCH   3  22
TORSDOF 11
ENDMDL
MODEL 5
REMARK VINA RESULT:     -11.2      5.608     12.182
REMARK  Name = 44123754
REMARK  11 active torsions:
REMARK  status: ('A' for Active; 'I' for Inactive)
REMARK    1  A    between atoms: C_3  and  C_22
REMARK    2  A    between atoms: C_4  and  C_7
REMARK    3  A    between atoms: N_6  and  C_15
REMARK    4  A    between atoms: C_8  and  N_12
REMARK    5  A    between atoms: C_15  and  O_16
REMARK    6  A    between atoms: O_16  and  P_17
REMARK    7  A    between atoms: P_17  and  O_20
REMARK    8  A    between atoms: C_22  and  C_23
REMARK    9  A    between atoms: C_26  and  C_29
REMARK   10  A    between atoms: C_29  and  O_30
REMARK   11  A    between atoms: O_30  and  C_32
REMARK                            x       y       z     vdW  Elec       q    Type
REMARK                         _______ _______ _______ _____ _____    ______ ____
ROOT
ATOM      1  O   UNL     1      35.224 -18.085 -24.389  0.00  0.00    -0.354 OA
ATOM      2  N   UNL     1      35.834 -19.080 -23.635  0.00  0.00    -0.081 NA
ATOM      3  C   UNL     1      36.195 -18.481 -22.497  0.00  0.00    +0.105 C 
ATOM      4  C   UNL     1      35.236 -16.922 -23.688  0.00  0.00    +0.175 C 
ATOM      5  C   UNL     1      35.842 -17.120 -22.476  0.00  0.00    +0.058 C 
ENDROOT
BRANCH   4   7
ATOM      6  N   UNL     1      33.778 -13.584 -24.323  0.00  0.00    -0.266 N 
ATOM      7  C   UNL     1      34.632 -15.788 -24.348  0.00  0.00    +0.048 C 
ATOM      8  C   UNL     1      34.338 -14.613 -23.671  0.00  0.00    +0.156 C 
ATOM      9  C   UNL     1      34.333 -15.872 -25.704  0.00  0.00    +0.003 C 
ATOM     10  C   UNL     1      33.480 -13.639 -25.628  0.00  0.00    +0.064 C 
ATOM     11  C   UNL     1      33.751 -14.788 -26.355  0.00  0.00    +0.016 C 
BRANCH   8  12
ATOM     12  N   UNL     1      34.626 -14.486 -22.295  0.00  0.00    -0.303 NA
ATOM     13  H   UNL     1      34.689 -13.593 -21.885  0.00  0.00    +0.121 HD
ATOM     14  H   UNL     1      34.763 -15.291 -21.745  0.00  0.00    +0.121 HD
ENDBRANCH   8  12
BRANCH   6  15
ATOM     15  C   UNL     1      33.469 -12.344 -23.607  0.00  0.00    +0.251 C 
BRANCH  15  16
ATOM     16  O   UNL     1      32.273 -12.534 -22.864  0.00  0.00    -0.250 OA
BRANCH  16  17
ATOM     17  P   UNL     1      32.056 -11.705 -21.473  0.00  0.00    +0.504 P 
ATOM     18  O   UNL     1      32.481 -10.265 -21.663  0.00  0.00    -0.225 OA
ATOM     19  O   UNL     1      32.618 -12.526 -20.333  0.00  0.00    -0.116 OA
BRANCH  17  20
ATOM     20  O   UNL     1      30.426 -11.758 -21.381  0.00  0.00    -0.301 OA
ATOM     21  H   UNL     1      30.161 -12.403 -20.706  0.00  0.00    +0.222 HD
ENDBRANCH  17  20
ENDBRANCH  16  17
ENDBRANCH  15  16
ENDBRANCH   6  15
ENDBRANCH   4   7
BRANCH   3  22
ATOM     22  C   UNL     1      36.880 -19.251 -21.447  0.00  0.00    +0.075 C 
BRANCH  22  23
ATOM     23  C   UNL     1      35.990 -20.232 -20.696  0.00  0.00    -0.016 C 
ATOM     24  C   UNL     1      36.553 -21.140 -19.800  0.00  0.00    -0.004 C 
ATOM     25  C   UNL     1      34.610 -20.223 -20.905  0.00  0.00    -0.004 C 
ATOM     26  C   UNL     1      34.359 -22.030 -19.321  0.00  0.00    +0.021 C 
ATOM     27  C   UNL     1      35.738 -22.039 -19.113  0.00  0.00    -0.001 C 
ATOM     28  C   UNL     1      33.795 -21.122 -20.217  0.00  0.00    -0.001 C 
BRANCH  26  29
ATOM     29  C   UNL     1      33.487 -22.989 -18.584  0.00  0.00    +0.234 C 
BRANCH  29  30
ATOM     30  O   UNL     1      32.242 -22.367 -18.290  0.00  0.00    -0.455 OA
BRANCH  30  32
ATOM     31  N   UNL     1      30.280 -22.676 -17.090  0.00  0.00    -0.210 NA
ATOM     32  C   UNL     1      31.631 -22.732 -17.119  0.00  0.00    +0.225 C 
ATOM     33  C   UNL     1      32.414 -23.135 -16.050  0.00  0.00    +0.058 C 
ATOM     34  C   UNL     1      31.770 -23.503 -14.874  0.00  0.00    +0.006 C 
ATOM     35  C   UNL     1      29.689 -23.042 -15.931  0.00  0.00    +0.102 C 
ATOM     36  C   UNL     1      30.381 -23.459 -14.805  0.00  0.00    +0.021 C 
ENDBRANCH  30  32
ENDBRANCH  29  30
ENDBRANCH  26  29
ENDBRANCH  22  23
ENDBRANCH   3  22
TORSDOF 11
ENDMDL
MODEL 6
REMARK VINA RESULT:     -11.1      4.325      6.776
REMARK  Name = 44123754
REMARK  11 active torsions:
REMARK  status: ('A' for Active; 'I' for Inactive)
REMARK    1  A    between atoms: C_3  and  C_22
REMARK    2  A    between atoms: C_4  and  C_7
REMARK    3  A    between atoms: N_6  and  C_15
REMARK    4  A    between atoms: C_8  and  N_12
REMARK    5  A    between atoms: C_15  and  O_16
REMARK    6  A    between atoms: O_16  and  P_17
REMARK    7  A    between atoms: P_17  and  O_20
REMARK    8  A    between atoms: C_22  and  C_23
REMARK    9  A    between atoms: C_26  and  C_29
REMARK   10  A    between atoms: C_29  and  O_30
REMARK   11  A    between atoms: O_30  and  C_32
REMARK                            x       y       z     vdW  Elec       q    Type
REMARK                         _______ _______ _______ _____ _____    ______ ____
ROOT
ATOM      1  O   UNL     1      34.039 -20.749 -20.625  0.00  0.00    -0.354 OA
ATOM      2  N   UNL     1      34.115 -20.013 -21.801  0.00  0.00    -0.081 NA
ATOM      3  C   UNL     1      35.420 -19.807 -21.997  0.00  0.00    +0.105 C 
ATOM      4  C   UNL     1      35.293 -20.963 -20.148  0.00  0.00    +0.175 C 
ATOM      5  C   UNL     1      36.209 -20.383 -20.985  0.00  0.00    +0.058 C 
ENDROOT
BRANCH   4   7
ATOM      6  N   UNL     1      34.420 -23.140 -17.291  0.00  0.00    -0.266 N 
ATOM      7  C   UNL     1      35.375 -21.720 -18.921  0.00  0.00    +0.048 C 
ATOM      8  C   UNL     1      34.300 -22.451 -18.434  0.00  0.00    +0.156 C 
ATOM      9  C   UNL     1      36.565 -21.720 -18.201  0.00  0.00    +0.003 C 
ATOM     10  C   UNL     1      35.554 -23.157 -16.579  0.00  0.00    +0.064 C 
ATOM     11  C   UNL     1      36.661 -22.444 -17.017  0.00  0.00    +0.016 C 
BRANCH   8  12
ATOM     12  N   UNL     1      33.074 -22.477 -19.134  0.00  0.00    -0.303 NA
ATOM     13  H   UNL     1      32.873 -23.222 -19.747  0.00  0.00    +0.121 HD
ATOM     14  H   UNL     1      32.421 -21.752 -19.009  0.00  0.00    +0.121 HD
ENDBRANCH   8  12
BRANCH   6  15
ATOM     15  C   UNL     1      33.285 -23.911 -16.779  0.00  0.00    +0.251 C 
BRANCH  15  16
ATOM     16  O   UNL     1      32.450 -23.044 -16.024  0.00  0.00    -0.250 OA
BRANCH  16  17
ATOM     17  P   UNL     1      30.838 -23.310 -15.996  0.00  0.00    +0.504 P 
ATOM     18  O   UNL     1      30.215 -22.557 -14.840  0.00  0.00    -0.225 OA
ATOM     19  O   UNL     1      30.594 -24.794 -16.165  0.00  0.00    -0.116 OA
BRANCH  17  20
ATOM     20  O   UNL     1      30.419 -22.565 -17.388  0.00  0.00    -0.301 OA
ATOM     21  H   UNL     1      30.584 -21.612 -17.307  0.00  0.00    +0.222 HD
ENDBRANCH  17  20
ENDBRANCH  16  17
ENDBRANCH  15  16
ENDBRANCH   6  15
ENDBRANCH   4   7
BRANCH   3  22
ATOM     22  C   UNL     1      35.876 -19.047 -23.172  0.00  0.00    +0.075 C 
BRANCH  22  23
ATOM     23  C   UNL     1      35.464 -17.580 -23.178  0.00  0.00    -0.016 C 
ATOM     24  C   UNL     1      35.385 -16.874 -21.978  0.00  0.00    -0.004 C 
ATOM     25  C   UNL     1      35.167 -16.944 -24.383  0.00  0.00    -0.004 C 
ATOM     26  C   UNL     1      34.711 -14.895 -23.188  0.00  0.00    +0.021 C 
ATOM     27  C   UNL     1      35.008 -15.531 -21.983  0.00  0.00    -0.001 C 
ATOM     28  C   UNL     1      34.790 -15.601 -24.388  0.00  0.00    -0.001 C 
BRANCH  26  29
ATOM     29  C   UNL     1      34.310 -13.458 -23.193  0.00  0.00    +0.234 C 
BRANCH  29  30
ATOM     30  O   UNL     1      32.900 -13.361 -23.037  0.00  0.00    -0.455 OA
BRANCH  30  32
ATOM     31  N   UNL     1      32.062 -11.329 -22.291  0.00  0.00    -0.210 NA
ATOM     32  C   UNL     1      32.446 -12.592 -21.997  0.00  0.00    +0.225 C 
ATOM     33  C   UNL     1      32.403 -13.140 -20.725  0.00  0.00    +0.058 C 
ATOM     34  C   UNL     1      31.937 -12.341 -19.687  0.00  0.00    +0.006 C 
ATOM     35  C   UNL     1      31.614 -10.582 -21.256  0.00  0.00    +0.102 C 
ATOM     36  C   UNL     1      31.533 -11.036 -19.950  0.00  0.00    +0.021 C 
ENDBRANCH  30  32
ENDBRANCH  29  30
ENDBRANCH  26  29
ENDBRANCH  22  23
ENDBRANCH   3  22
TORSDOF 11
ENDMDL
MODEL 7
REMARK VINA RESULT:     -11.1      5.864     12.770
REMARK  Name = 44123754
REMARK  11 active torsions:
REMARK  status: ('A' for Active; 'I' for Inactive)
REMARK    1  A    between atoms: C_3  and  C_22
REMARK    2  A    between atoms: C_4  and  C_7
REMARK    3  A    between atoms: N_6  and  C_15
REMARK    4  A    between atoms: C_8  and  N_12
REMARK    5  A    between atoms: C_15  and  O_16
REMARK    6  A    between atoms: O_16  and  P_17
REMARK    7  A    between atoms: P_17  and  O_20
REMARK    8  A    between atoms: C_22  and  C_23
REMARK    9  A    between atoms: C_26  and  C_29
REMARK   10  A    between atoms: C_29  and  O_30
REMARK   11  A    between atoms: O_30  and  C_32
REMARK                            x       y       z     vdW  Elec       q    Type
REMARK                         _______ _______ _______ _____ _____    ______ ____
ROOT
ATOM      1  O   UNL     1      34.586 -16.007 -23.570  0.00  0.00    -0.354 OA
ATOM      2  N   UNL     1      35.343 -17.172 -23.606  0.00  0.00    -0.081 NA
ATOM      3  C   UNL     1      35.734 -17.370 -22.344  0.00  0.00    +0.105 C 
ATOM      4  C   UNL     1      34.544 -15.539 -22.296  0.00  0.00    +0.175 C 
ATOM      5  C   UNL     1      35.259 -16.371 -21.476  0.00  0.00    +0.058 C 
ENDROOT
BRANCH   4   7
ATOM      6  N   UNL     1      33.150 -12.148 -22.764  0.00  0.00    -0.266 N 
ATOM      7  C   UNL     1      33.788 -14.324 -22.101  0.00  0.00    +0.048 C 
ATOM      8  C   UNL     1      33.870 -13.257 -22.983  0.00  0.00    +0.156 C 
ATOM      9  C   UNL     1      32.950 -14.217 -20.995  0.00  0.00    +0.003 C 
ATOM     10  C   UNL     1      32.336 -12.018 -21.708  0.00  0.00    +0.064 C 
ATOM     11  C   UNL     1      32.214 -13.053 -20.793  0.00  0.00    +0.016 C 
BRANCH   8  12
ATOM     12  N   UNL     1      34.708 -13.325 -24.117  0.00  0.00    -0.303 NA
ATOM     13  H   UNL     1      35.135 -12.508 -24.464  0.00  0.00    +0.121 HD
ATOM     14  H   UNL     1      34.865 -14.190 -24.561  0.00  0.00    +0.121 HD
ENDBRANCH   8  12
BRANCH   6  15
ATOM     15  C   UNL     1      33.237 -11.022 -23.697  0.00  0.00    +0.251 C 
BRANCH  15  16
ATOM     16  O   UNL     1      32.452  -9.951 -23.190  0.00  0.00    -0.250 OA
BRANCH  16  17
ATOM     17  P   UNL     1      33.067  -8.437 -23.197  0.00  0.00    +0.504 P 
ATOM     18  O   UNL     1      32.090  -7.490 -23.860  0.00  0.00    -0.225 OA
ATOM     19  O   UNL     1      34.505  -8.505 -23.664  0.00  0.00    -0.116 OA
BRANCH  17  20
ATOM     20  O   UNL     1      33.069  -8.141 -21.590  0.00  0.00    -0.301 OA
ATOM     21  H   UNL     1      33.108  -8.981 -21.107  0.00  0.00    +0.222 HD
ENDBRANCH  17  20
ENDBRANCH  16  17
ENDBRANCH  15  16
ENDBRANCH   6  15
ENDBRANCH   4   7
BRANCH   3  22
ATOM     22  C   UNL     1      36.568 -18.535 -22.007  0.00  0.00    +0.075 C 
BRANCH  22  23
ATOM     23  C   UNL     1      35.848 -19.624 -21.222  0.00  0.00    -0.016 C 
ATOM     24  C   UNL     1      34.463 -19.753 -21.318  0.00  0.00    -0.004 C 
ATOM     25  C   UNL     1      36.575 -20.493 -20.407  0.00  0.00    -0.004 C 
ATOM     26  C   UNL     1      34.530 -21.619 -19.785  0.00  0.00    +0.021 C 
ATOM     27  C   UNL     1      33.804 -20.750 -20.600  0.00  0.00    -0.001 C 
ATOM     28  C   UNL     1      35.916 -21.490 -19.689  0.00  0.00    -0.001 C 
BRANCH  26  29
ATOM     29  C   UNL     1      33.826 -22.687 -19.019  0.00  0.00    +0.234 C 
BRANCH  29  30
ATOM     30  O   UNL     1      32.531 -22.227 -18.649  0.00  0.00    -0.455 OA
BRANCH  30  32
ATOM     31  N   UNL     1      30.691 -22.624 -17.292  0.00  0.00    -0.210 NA
ATOM     32  C   UNL     1      32.032 -22.682 -17.457  0.00  0.00    +0.225 C 
ATOM     33  C   UNL     1      32.911 -23.171 -16.504  0.00  0.00    +0.058 C 
ATOM     34  C   UNL     1      32.379 -23.629 -15.303  0.00  0.00    +0.006 C 
ATOM     35  C   UNL     1      30.211 -23.079 -16.113  0.00  0.00    +0.102 C 
ATOM     36  C   UNL     1      31.004 -23.586 -15.096  0.00  0.00    +0.021 C 
ENDBRANCH  30  32
ENDBRANCH  29  30
ENDBRANCH  26  29
ENDBRANCH  22  23
ENDBRANCH   3  22
TORSDOF 11
ENDMDL
MODEL 8
REMARK VINA RESULT:     -11.0      5.936     13.060
REMARK  Name = 44123754
REMARK  11 active torsions:
REMARK  status: ('A' for Active; 'I' for Inactive)
REMARK    1  A    between atoms: C_3  and  C_22
REMARK    2  A    between atoms: C_4  and  C_7
REMARK    3  A    between atoms: N_6  and  C_15
REMARK    4  A    between atoms: C_8  and  N_12
REMARK    5  A    between atoms: C_15  and  O_16
REMARK    6  A    between atoms: O_16  and  P_17
REMARK    7  A    between atoms: P_17  and  O_20
REMARK    8  A    between atoms: C_22  and  C_23
REMARK    9  A    between atoms: C_26  and  C_29
REMARK   10  A    between atoms: C_29  and  O_30
REMARK   11  A    between atoms: O_30  and  C_32
REMARK                            x       y       z     vdW  Elec       q    Type
REMARK                         _______ _______ _______ _____ _____    ______ ____
ROOT
ATOM      1  O   UNL     1      33.529 -14.600 -24.587  0.00  0.00    -0.354 OA
ATOM      2  N   UNL     1      34.211 -15.680 -25.136  0.00  0.00    -0.081 NA
ATOM      3  C   UNL     1      34.952 -16.166 -24.137  0.00  0.00    +0.105 C 
ATOM      4  C   UNL     1      33.876 -14.469 -23.281  0.00  0.00    +0.175 C 
ATOM      5  C   UNL     1      34.780 -15.441 -22.944  0.00  0.00    +0.058 C 
ENDROOT
BRANCH   4   7
ATOM      6  N   UNL     1      32.628 -11.108 -22.380  0.00  0.00    -0.266 N 
ATOM      7  C   UNL     1      33.242 -13.382 -22.572  0.00  0.00    +0.048 C 
ATOM      8  C   UNL     1      33.229 -12.087 -23.071  0.00  0.00    +0.156 C 
ATOM      9  C   UNL     1      32.625 -13.636 -21.351  0.00  0.00    +0.003 C 
ATOM     10  C   UNL     1      32.027 -11.325 -21.203  0.00  0.00    +0.064 C 
ATOM     11  C   UNL     1      32.010 -12.599 -20.656  0.00  0.00    +0.016 C 
BRANCH   8  12
ATOM     12  N   UNL     1      33.843 -11.787 -24.306  0.00  0.00    -0.303 NA
ATOM     13  H   UNL     1      34.737 -12.145 -24.511  0.00  0.00    +0.121 HD
ATOM     14  H   UNL     1      33.378 -11.219 -24.961  0.00  0.00    +0.121 HD
ENDBRANCH   8  12
BRANCH   6  15
ATOM     15  C   UNL     1      32.614  -9.741 -22.908  0.00  0.00    +0.251 C 
BRANCH  15  16
ATOM     16  O   UNL     1      32.074  -8.877 -21.918  0.00  0.00    -0.250 OA
BRANCH  16  17
ATOM     17  P   UNL     1      32.889  -7.521 -21.510  0.00  0.00    +0.504 P 
ATOM     18  O   UNL     1      31.916  -6.379 -21.311  0.00  0.00    -0.225 OA
ATOM     19  O   UNL     1      34.068  -7.370 -22.447  0.00  0.00    -0.116 OA
BRANCH  17  20
ATOM     20  O   UNL     1      33.459  -7.980 -20.049  0.00  0.00    -0.301 OA
ATOM     21  H   UNL     1      34.168  -8.630 -20.168  0.00  0.00    +0.222 HD
ENDBRANCH  17  20
ENDBRANCH  16  17
ENDBRANCH  15  16
ENDBRANCH   6  15
ENDBRANCH   4   7
BRANCH   3  22
ATOM     22  C   UNL     1      35.818 -17.334 -24.365  0.00  0.00    +0.075 C 
BRANCH  22  23
ATOM     23  C   UNL     1      35.920 -18.288 -23.181  0.00  0.00    -0.016 C 
ATOM     24  C   UNL     1      37.081 -18.319 -22.409  0.00  0.00    -0.004 C 
ATOM     25  C   UNL     1      34.853 -19.130 -22.870  0.00  0.00    -0.004 C 
ATOM     26  C   UNL     1      36.108 -20.034 -21.014  0.00  0.00    +0.021 C 
ATOM     27  C   UNL     1      37.176 -19.192 -21.326  0.00  0.00    -0.001 C 
ATOM     28  C   UNL     1      34.947 -20.003 -21.786  0.00  0.00    -0.001 C 
BRANCH  26  29
ATOM     29  C   UNL     1      36.208 -20.966 -19.854  0.00  0.00    +0.234 C 
BRANCH  29  30
ATOM     30  O   UNL     1      35.149 -21.914 -19.917  0.00  0.00    -0.455 OA
BRANCH  30  32
ATOM     31  N   UNL     1      35.605 -22.609 -17.751  0.00  0.00    -0.210 NA
ATOM     32  C   UNL     1      34.689 -22.405 -18.723  0.00  0.00    +0.225 C 
ATOM     33  C   UNL     1      33.334 -22.658 -18.579  0.00  0.00    +0.058 C 
ATOM     34  C   UNL     1      32.892 -23.154 -17.358  0.00  0.00    +0.006 C 
ATOM     35  C   UNL     1      35.138 -23.092 -16.577  0.00  0.00    +0.102 C 
ATOM     36  C   UNL     1      33.804 -23.377 -16.332  0.00  0.00    +0.021 C 
ENDBRANCH  30  32
ENDBRANCH  29  30
ENDBRANCH  26  29
ENDBRANCH  22  23
ENDBRANCH   3  22
TORSDOF 11
ENDMDL
MODEL 9
REMARK VINA RESULT:     -11.0      5.167     12.643
REMARK  Name = 44123754
REMARK  11 active torsions:
REMARK  status: ('A' for Active; 'I' for Inactive)
REMARK    1  A    between atoms: C_3  and  C_22
REMARK    2  A    between atoms: C_4  and  C_7
REMARK    3  A    between atoms: N_6  and  C_15
REMARK    4  A    between atoms: C_8  and  N_12
REMARK    5  A    between atoms: C_15  and  O_16
REMARK    6  A    between atoms: O_16  and  P_17
REMARK    7  A    between atoms: P_17  and  O_20
REMARK    8  A    between atoms: C_22  and  C_23
REMARK    9  A    between atoms: C_26  and  C_29
REMARK   10  A    between atoms: C_29  and  O_30
REMARK   11  A    between atoms: O_30  and  C_32
REMARK                            x       y       z     vdW  Elec       q    Type
REMARK                         _______ _______ _______ _____ _____    ______ ____
ROOT
ATOM      1  O   UNL     1      34.757 -14.920 -21.878  0.00  0.00    -0.354 OA
ATOM      2  N   UNL     1      35.264 -16.214 -21.863  0.00  0.00    -0.081 NA
ATOM      3  C   UNL     1      35.300 -16.587 -23.145  0.00  0.00    +0.105 C 
ATOM      4  C   UNL     1      34.503 -14.553 -23.161  0.00  0.00    +0.175 C 
ATOM      5  C   UNL     1      34.832 -15.579 -24.007  0.00  0.00    +0.058 C 
ENDROOT
BRANCH   4   7
ATOM      6  N   UNL     1      32.386 -11.541 -22.839  0.00  0.00    -0.266 N 
ATOM      7  C   UNL     1      33.968 -13.223 -23.337  0.00  0.00    +0.048 C 
ATOM      8  C   UNL     1      32.848 -12.784 -22.646  0.00  0.00    +0.156 C 
ATOM      9  C   UNL     1      34.591 -12.353 -24.226  0.00  0.00    +0.003 C 
ATOM     10  C   UNL     1      32.966 -10.683 -23.688  0.00  0.00    +0.064 C 
ATOM     11  C   UNL     1      34.088 -11.068 -24.407  0.00  0.00    +0.016 C 
BRANCH   8  12
ATOM     12  N   UNL     1      32.186 -13.635 -21.735  0.00  0.00    -0.303 NA
ATOM     13  H   UNL     1      32.627 -13.893 -20.892  0.00  0.00    +0.121 HD
ATOM     14  H   UNL     1      31.285 -13.971 -21.942  0.00  0.00    +0.121 HD
ENDBRANCH   8  12
BRANCH   6  15
ATOM     15  C   UNL     1      31.204 -11.077 -22.108  0.00  0.00    +0.251 C 
BRANCH  15  16
ATOM     16  O   UNL     1      31.566  -9.944 -21.331  0.00  0.00    -0.250 OA
BRANCH  16  17
ATOM     17  P   UNL     1      31.795 -10.119 -19.722  0.00  0.00    +0.504 P 
ATOM     18  O   UNL     1      32.050  -8.767 -19.092  0.00  0.00    -0.225 OA
ATOM     19  O   UNL     1      32.759 -11.264 -19.497  0.00  0.00    -0.116 OA
BRANCH  17  20
ATOM     20  O   UNL     1      30.302 -10.620 -19.291  0.00  0.00    -0.301 OA
ATOM     21  H   UNL     1      29.788  -9.864 -18.966  0.00  0.00    +0.222 HD
ENDBRANCH  17  20
ENDBRANCH  16  17
ENDBRANCH  15  16
ENDBRANCH   6  15
ENDBRANCH   4   7
BRANCH   3  22
ATOM     22  C   UNL     1      35.793 -17.925 -23.508  0.00  0.00    +0.075 C 
BRANCH  22  23
ATOM     23  C   UNL     1      35.919 -18.893 -22.338  0.00  0.00    -0.016 C 
ATOM     24  C   UNL     1      37.121 -18.986 -21.637  0.00  0.00    -0.004 C 
ATOM     25  C   UNL     1      34.832 -19.685 -21.967  0.00  0.00    -0.004 C 
ATOM     26  C   UNL     1      36.150 -20.664 -20.195  0.00  0.00    +0.021 C 
ATOM     27  C   UNL     1      37.237 -19.872 -20.566  0.00  0.00    -0.001 C 
ATOM     28  C   UNL     1      34.948 -20.571 -20.896  0.00  0.00    -0.001 C 
BRANCH  26  29
ATOM     29  C   UNL     1      36.273 -21.609 -19.048  0.00  0.00    +0.234 C 
BRANCH  29  30
ATOM     30  O   UNL     1      35.306 -22.643 -19.182  0.00  0.00    -0.455 OA
BRANCH  30  32
ATOM     31  N   UNL     1      35.116 -23.249 -16.950  0.00  0.00    -0.210 NA
ATOM     32  C   UNL     1      34.503 -22.881 -18.097  0.00  0.00    +0.225 C 
ATOM     33  C   UNL     1      33.132 -22.731 -18.231  0.00  0.00    +0.058 C 
ATOM     34  C   UNL     1      32.339 -22.977 -17.115  0.00  0.00    +0.006 C 
ATOM     35  C   UNL     1      34.313 -23.478 -15.887  0.00  0.00    +0.102 C 
ATOM     36  C   UNL     1      32.933 -23.357 -15.917  0.00  0.00    +0.021 C 
ENDBRANCH  30  32
ENDBRANCH  29  30
ENDBRANCH  26  29
ENDBRANCH  22  23
ENDBRANCH   3  22
TORSDOF 11
ENDMDL
