MODEL 1
REMARK VINA RESULT:     -12.0      0.000      0.000
REMARK  Name = 71226662
REMARK  4 active torsions:
REMARK  status: ('A' for Active; 'I' for Inactive)
REMARK    1  A    between atoms: C_5  and  C_15
REMARK    2  A    between atoms: C_7  and  C_23
REMARK    3  A    between atoms: C_19  and  C_20
REMARK    4  A    between atoms: C_28  and  C_31
REMARK                            x       y       z     vdW  Elec       q    Type
REMARK                         _______ _______ _______ _____ _____    ______ ____
ROOT
ATOM      1  N   UNL     1      33.119 -24.366 -14.964  0.00  0.00    -0.251 N 
ATOM      2  N   UNL     1      35.066 -23.804 -15.869  0.00  0.00    -0.392 NA
ATOM      3  N   UNL     1      30.480 -23.872 -15.662  0.00  0.00    -0.231 NA
ATOM      4  N   UNL     1      31.064 -22.652 -17.546  0.00  0.00    -0.344 N 
ATOM      5  C   UNL     1      34.481 -24.443 -14.877  0.00  0.00    +0.182 C 
ATOM      6  C   UNL     1      32.819 -23.631 -16.085  0.00  0.00    +0.185 C 
ATOM      7  C   UNL     1      34.038 -23.294 -16.627  0.00  0.00    +0.136 C 
ATOM      8  C   UNL     1      32.105 -24.865 -14.173  0.00  0.00    +0.089 C 
ATOM      9  C   UNL     1      31.429 -23.380 -16.436  0.00  0.00    +0.128 C 
ATOM     10  C   UNL     1      30.840 -24.606 -14.544  0.00  0.00    +0.116 C 
ATOM     11  H   UNL     1      30.110 -22.507 -17.747  0.00  0.00    +0.143 HD
ATOM     12  H   UNL     1      31.754 -22.277 -18.139  0.00  0.00    +0.143 HD
ENDROOT
BRANCH   5  15
ATOM     13  O   UNL     1      36.613 -26.800 -15.697  0.00  0.00    -0.260 OA
ATOM     14  N   UNL     1      36.641 -25.290 -13.935  0.00  0.00    -0.263 N 
ATOM     15  C   UNL     1      35.189 -25.184 -13.758  0.00  0.00    +0.143 C 
ATOM     16  C   UNL     1      35.036 -24.483 -12.402  0.00  0.00    +0.030 C 
ATOM     17  C   UNL     1      36.298 -23.633 -12.285  0.00  0.00    +0.024 C 
ATOM     18  C   UNL     1      37.362 -24.501 -12.939  0.00  0.00    +0.095 C 
ATOM     19  C   UNL     1      37.224 -26.140 -14.863  0.00  0.00    +0.293 C 
BRANCH  19  20
ATOM     20  C   UNL     1      38.665 -26.254 -14.842  0.00  0.00    -0.007 C 
ATOM     21  C   UNL     1      39.862 -26.347 -14.824  0.00  0.00    -0.081 C 
ATOM     22  C   UNL     1      41.319 -26.462 -14.801  0.00  0.00    +0.090 C 
ENDBRANCH  19  20
ENDBRANCH   5  15
BRANCH   7  23
ATOM     23  C   UNL     1      34.267 -22.525 -17.811  0.00  0.00    +0.028 C 
ATOM     24  C   UNL     1      33.191 -22.130 -18.607  0.00  0.00    +0.002 C 
ATOM     25  C   UNL     1      35.568 -22.171 -18.171  0.00  0.00    +0.002 C 
ATOM     26  C   UNL     1      33.416 -21.381 -19.762  0.00  0.00    +0.005 C 
ATOM     27  C   UNL     1      35.792 -21.422 -19.326  0.00  0.00    +0.005 C 
ATOM     28  C   UNL     1      34.717 -21.027 -20.122  0.00  0.00    +0.054 C 
BRANCH  28  31
ATOM     29  O   UNL     1      35.187 -20.836 -22.392  0.00  0.00    -0.270 OA
ATOM     30  N   UNL     1      34.911 -18.853 -21.168  0.00  0.00    -0.266 N 
ATOM     31  C   UNL     1      34.951 -20.245 -21.325  0.00  0.00    +0.251 C 
ATOM     32  H   UNL     1      34.710 -18.530 -20.260  0.00  0.00    +0.157 HD
ATOM     33  N   UNL     1      35.034 -16.554 -21.768  0.00  0.00    -0.229 NA
ATOM     34  C   UNL     1      35.122 -17.849 -22.146  0.00  0.00    +0.134 C 
ATOM     35  C   UNL     1      35.407 -18.264 -23.437  0.00  0.00    +0.034 C 
ATOM     36  C   UNL     1      35.617 -17.286 -24.403  0.00  0.00    +0.004 C 
ATOM     37  C   UNL     1      35.243 -15.632 -22.734  0.00  0.00    +0.100 C 
ATOM     38  C   UNL     1      35.535 -15.942 -24.053  0.00  0.00    +0.021 C 
ENDBRANCH  28  31
ENDBRANCH   7  23
TORSDOF 4
ENDMDL
MODEL 2
REMARK VINA RESULT:     -10.2      1.646      2.944
REMARK  Name = 71226662
REMARK  4 active torsions:
REMARK  status: ('A' for Active; 'I' for Inactive)
REMARK    1  A    between atoms: C_5  and  C_15
REMARK    2  A    between atoms: C_7  and  C_23
REMARK    3  A    between atoms: C_19  and  C_20
REMARK    4  A    between atoms: C_28  and  C_31
REMARK                            x       y       z     vdW  Elec       q    Type
REMARK                         _______ _______ _______ _____ _____    ______ ____
ROOT
ATOM      1  N   UNL     1      35.340 -23.799 -15.954  0.00  0.00    -0.251 N 
ATOM      2  N   UNL     1      36.977 -22.847 -17.111  0.00  0.00    -0.392 NA
ATOM      3  N   UNL     1      32.581 -23.850 -16.244  0.00  0.00    -0.231 NA
ATOM      4  N   UNL     1      32.620 -22.527 -18.148  0.00  0.00    -0.344 N 
ATOM      5  C   UNL     1      36.687 -23.597 -16.068  0.00  0.00    +0.182 C 
ATOM      6  C   UNL     1      34.735 -23.135 -16.993  0.00  0.00    +0.185 C 
ATOM      7  C   UNL     1      35.766 -22.554 -17.693  0.00  0.00    +0.136 C 
ATOM      8  C   UNL     1      34.577 -24.499 -15.043  0.00  0.00    +0.089 C 
ATOM      9  C   UNL     1      33.286 -23.171 -17.130  0.00  0.00    +0.128 C 
ATOM     10  C   UNL     1      33.244 -24.501 -15.217  0.00  0.00    +0.116 C 
ATOM     11  H   UNL     1      31.638 -22.578 -18.203  0.00  0.00    +0.143 HD
ATOM     12  H   UNL     1      33.125 -22.015 -18.821  0.00  0.00    +0.143 HD
ENDROOT
BRANCH   5  15
ATOM     13  O   UNL     1      36.740 -22.403 -13.011  0.00  0.00    -0.260 OA
ATOM     14  N   UNL     1      37.113 -24.555 -13.794  0.00  0.00    -0.263 N 
ATOM     15  C   UNL     1      37.688 -24.184 -15.091  0.00  0.00    +0.143 C 
ATOM     16  C   UNL     1      38.311 -25.490 -15.602  0.00  0.00    +0.030 C 
ATOM     17  C   UNL     1      37.449 -26.577 -14.969  0.00  0.00    +0.024 C 
ATOM     18  C   UNL     1      37.115 -26.003 -13.601  0.00  0.00    +0.095 C 
ATOM     19  C   UNL     1      36.739 -23.617 -12.842  0.00  0.00    +0.293 C 
BRANCH  19  20
ATOM     20  C   UNL     1      36.316 -24.117 -11.553  0.00  0.00    -0.007 C 
ATOM     21  C   UNL     1      35.964 -24.532 -10.483  0.00  0.00    -0.081 C 
ATOM     22  C   UNL     1      35.535 -25.037  -9.180  0.00  0.00    +0.090 C 
ENDBRANCH  19  20
ENDBRANCH   5  15
BRANCH   7  23
ATOM     23  C   UNL     1      35.657 -21.748 -18.870  0.00  0.00    +0.028 C 
ATOM     24  C   UNL     1      34.433 -21.641 -19.533  0.00  0.00    +0.002 C 
ATOM     25  C   UNL     1      36.775 -21.069 -19.356  0.00  0.00    +0.002 C 
ATOM     26  C   UNL     1      34.329 -20.856 -20.681  0.00  0.00    +0.005 C 
ATOM     27  C   UNL     1      36.670 -20.284 -20.504  0.00  0.00    +0.005 C 
ATOM     28  C   UNL     1      35.447 -20.177 -21.167  0.00  0.00    +0.054 C 
BRANCH  28  31
ATOM     29  O   UNL     1      35.354 -19.909 -23.475  0.00  0.00    -0.270 OA
ATOM     30  N   UNL     1      35.240 -17.975 -22.151  0.00  0.00    -0.266 N 
ATOM     31  C   UNL     1      35.337 -19.357 -22.363  0.00  0.00    +0.251 C 
ATOM     32  H   UNL     1      35.238 -17.685 -21.210  0.00  0.00    +0.157 HD
ATOM     33  N   UNL     1      35.062 -15.662 -22.681  0.00  0.00    -0.229 NA
ATOM     34  C   UNL     1      35.146 -16.941 -23.114  0.00  0.00    +0.134 C 
ATOM     35  C   UNL     1      35.146 -17.308 -24.450  0.00  0.00    +0.034 C 
ATOM     36  C   UNL     1      35.056 -16.300 -25.403  0.00  0.00    +0.004 C 
ATOM     37  C   UNL     1      34.974 -14.709 -23.635  0.00  0.00    +0.100 C 
ATOM     38  C   UNL     1      34.967 -14.972 -24.996  0.00  0.00    +0.021 C 
ENDBRANCH  28  31
ENDBRANCH   7  23
TORSDOF 4
ENDMDL
