MODEL 1
REMARK VINA RESULT:     -12.6      0.000      0.000
REMARK  Name = 16750097
REMARK  3 active torsions:
REMARK  status: ('A' for Active; 'I' for Inactive)
REMARK    1  A    between atoms: N_3  and  C_10
REMARK    2  A    between atoms: N_3  and  C_23
REMARK    3  A    between atoms: C_23  and  C_24
REMARK                            x       y       z     vdW  Elec       q    Type
REMARK                         _______ _______ _______ _____ _____    ______ ____
ROOT
ATOM      1  O   UNL     1      33.820 -15.601 -26.980  0.00  0.00    -0.209 OA
ATOM      2  N   UNL     1      35.352 -19.087 -23.359  0.00  0.00    -0.305 N 
ATOM      3  N   UNL     1      35.741 -17.976 -21.475  0.00  0.00    -0.305 N 
ATOM      4  N   UNL     1      34.536 -13.650 -23.557  0.00  0.00    -0.275 N 
ATOM      5  N   UNL     1      33.872 -13.615 -25.842  0.00  0.00    -0.302 NA
ATOM      6  N   UNL     1      33.973 -11.662 -24.552  0.00  0.00    -0.320 N 
ATOM      7  C   UNL     1      35.086 -17.773 -23.648  0.00  0.00    +0.061 C 
ATOM      8  C   UNL     1      35.335 -17.100 -22.456  0.00  0.00    +0.061 C 
ATOM      9  C   UNL     1      35.740 -19.157 -22.050  0.00  0.00    +0.208 C 
ATOM     10  C   UNL     1      34.729 -15.035 -23.559  0.00  0.00    +0.064 C 
ATOM     11  C   UNL     1      34.486 -15.749 -24.742  0.00  0.00    +0.110 C 
ATOM     12  C   UNL     1      34.660 -17.139 -24.817  0.00  0.00    +0.030 C 
ATOM     13  C   UNL     1      35.156 -15.707 -22.402  0.00  0.00    +0.031 C 
ATOM     14  C   UNL     1      34.035 -14.985 -25.941  0.00  0.00    +0.208 C 
ATOM     15  C   UNL     1      34.117 -13.018 -24.705  0.00  0.00    +0.248 C 
ATOM     16  H   UNL     1      35.278 -19.845 -23.983  0.00  0.00    +0.150 HD
ATOM     17  H   UNL     1      35.980 -17.763 -20.544  0.00  0.00    +0.150 HD
ATOM     18  H   UNL     1      34.699 -13.130 -22.738  0.00  0.00    +0.156 HD
ATOM     19  H   UNL     1      34.165 -11.242 -23.683  0.00  0.00    +0.146 HD
ATOM     20  H   UNL     1      33.678 -11.110 -25.312  0.00  0.00    +0.146 HD
ENDROOT
BRANCH   9  21
ATOM     21  N   UNL     1      36.057 -20.367 -21.540  0.00  0.00    -0.263 NA
ATOM     22  H   UNL     1      35.899 -21.158 -22.104  0.00  0.00    +0.127 HD
BRANCH  21  23
ATOM     23  C   UNL     1      36.616 -20.582 -20.217  0.00  0.00    +0.098 C 
BRANCH  23  24
ATOM     24  C   UNL     1      35.695 -21.431 -19.387  0.00  0.00    -0.006 C 
ATOM     25  C   UNL     1      36.095 -21.986 -18.161  0.00  0.00    -0.003 C 
ATOM     26  C   UNL     1      35.180 -22.777 -17.426  0.00  0.00    -0.000 C 
ATOM     27  C   UNL     1      34.409 -21.654 -19.882  0.00  0.00    -0.003 C 
ATOM     28  C   UNL     1      37.385 -21.773 -17.647  0.00  0.00    -0.000 C 
ATOM     29  C   UNL     1      33.891 -22.991 -17.941  0.00  0.00    -0.000 C 
ATOM     30  C   UNL     1      33.509 -22.432 -19.161  0.00  0.00    -0.000 C 
ATOM     31  C   UNL     1      35.581 -23.332 -16.200  0.00  0.00    -0.000 C 
ATOM     32  C   UNL     1      37.767 -22.332 -16.427  0.00  0.00    -0.000 C 
ATOM     33  C   UNL     1      36.866 -23.110 -15.705  0.00  0.00    -0.000 C 
ENDBRANCH  23  24
ENDBRANCH  21  23
ENDBRANCH   9  21
TORSDOF 3
ENDMDL
MODEL 2
REMARK VINA RESULT:     -12.4      0.748      1.985
REMARK  Name = 16750097
REMARK  3 active torsions:
REMARK  status: ('A' for Active; 'I' for Inactive)
REMARK    1  A    between atoms: N_3  and  C_10
REMARK    2  A    between atoms: N_3  and  C_23
REMARK    3  A    between atoms: C_23  and  C_24
REMARK                            x       y       z     vdW  Elec       q    Type
REMARK                         _______ _______ _______ _____ _____    ______ ____
ROOT
ATOM      1  O   UNL     1      33.983 -16.007 -26.763  0.00  0.00    -0.209 OA
ATOM      2  N   UNL     1      35.547 -19.273 -22.956  0.00  0.00    -0.305 N 
ATOM      3  N   UNL     1      35.889 -18.060 -21.126  0.00  0.00    -0.305 N 
ATOM      4  N   UNL     1      34.616 -13.872 -23.435  0.00  0.00    -0.275 N 
ATOM      5  N   UNL     1      33.979 -13.966 -25.726  0.00  0.00    -0.302 NA
ATOM      6  N   UNL     1      34.021 -11.949 -24.534  0.00  0.00    -0.320 N 
ATOM      7  C   UNL     1      35.256 -17.981 -23.313  0.00  0.00    +0.061 C 
ATOM      8  C   UNL     1      35.476 -17.244 -22.153  0.00  0.00    +0.061 C 
ATOM      9  C   UNL     1      35.921 -19.269 -21.641  0.00  0.00    +0.208 C 
ATOM     10  C   UNL     1      34.839 -15.250 -23.365  0.00  0.00    +0.064 C 
ATOM     11  C   UNL     1      34.626 -16.028 -24.514  0.00  0.00    +0.110 C 
ATOM     12  C   UNL     1      34.830 -17.416 -24.516  0.00  0.00    +0.030 C 
ATOM     13  C   UNL     1      35.266 -15.855 -22.171  0.00  0.00    +0.031 C 
ATOM     14  C   UNL     1      34.172 -15.335 -25.754  0.00  0.00    +0.208 C 
ATOM     15  C   UNL     1      34.196 -13.307 -24.617  0.00  0.00    +0.248 C 
ATOM     16  H   UNL     1      35.497 -20.062 -23.542  0.00  0.00    +0.150 HD
ATOM     17  H   UNL     1      36.113 -17.796 -20.204  0.00  0.00    +0.150 HD
ATOM     18  H   UNL     1      34.758 -13.308 -22.641  0.00  0.00    +0.156 HD
ATOM     19  H   UNL     1      34.194 -11.482 -23.685  0.00  0.00    +0.146 HD
ATOM     20  H   UNL     1      33.723 -11.442 -25.324  0.00  0.00    +0.146 HD
ENDROOT
BRANCH   9  21
ATOM     21  N   UNL     1      36.259 -20.444 -21.068  0.00  0.00    -0.263 NA
ATOM     22  H   UNL     1      37.214 -20.680 -21.033  0.00  0.00    +0.127 HD
BRANCH  21  23
ATOM     23  C   UNL     1      35.310 -21.385 -20.497  0.00  0.00    +0.098 C 
BRANCH  23  24
ATOM     24  C   UNL     1      35.723 -21.771 -19.104  0.00  0.00    -0.006 C 
ATOM     25  C   UNL     1      34.821 -22.339 -18.191  0.00  0.00    -0.003 C 
ATOM     26  C   UNL     1      35.273 -22.681 -16.893  0.00  0.00    -0.000 C 
ATOM     27  C   UNL     1      37.052 -21.542 -18.743  0.00  0.00    -0.003 C 
ATOM     28  C   UNL     1      33.481 -22.576 -18.535  0.00  0.00    -0.000 C 
ATOM     29  C   UNL     1      36.613 -22.443 -16.548  0.00  0.00    -0.000 C 
ATOM     30  C   UNL     1      37.496 -21.877 -17.469  0.00  0.00    -0.000 C 
ATOM     31  C   UNL     1      34.371 -23.249 -15.980  0.00  0.00    -0.000 C 
ATOM     32  C   UNL     1      32.598 -23.142 -17.614  0.00  0.00    -0.000 C 
ATOM     33  C   UNL     1      33.043 -23.478 -16.339  0.00  0.00    -0.000 C 
ENDBRANCH  23  24
ENDBRANCH  21  23
ENDBRANCH   9  21
TORSDOF 3
ENDMDL
MODEL 3
REMARK VINA RESULT:     -12.3      3.378      9.093
REMARK  Name = 16750097
REMARK  3 active torsions:
REMARK  status: ('A' for Active; 'I' for Inactive)
REMARK    1  A    between atoms: N_3  and  C_10
REMARK    2  A    between atoms: N_3  and  C_23
REMARK    3  A    between atoms: C_23  and  C_24
REMARK                            x       y       z     vdW  Elec       q    Type
REMARK                         _______ _______ _______ _____ _____    ______ ____
ROOT
ATOM      1  O   UNL     1      36.539 -22.838 -17.235  0.00  0.00    -0.209 OA
ATOM      2  N   UNL     1      36.220 -19.872 -21.560  0.00  0.00    -0.305 N 
ATOM      3  N   UNL     1      34.080 -19.764 -22.148  0.00  0.00    -0.305 N 
ATOM      4  N   UNL     1      32.697 -22.609 -18.342  0.00  0.00    -0.275 N 
ATOM      5  N   UNL     1      34.359 -23.419 -16.843  0.00  0.00    -0.302 NA
ATOM      6  N   UNL     1      32.089 -23.931 -16.569  0.00  0.00    -0.320 N 
ATOM      7  C   UNL     1      35.545 -20.617 -20.627  0.00  0.00    +0.061 C 
ATOM      8  C   UNL     1      34.212 -20.534 -21.015  0.00  0.00    +0.061 C 
ATOM      9  C   UNL     1      35.302 -19.384 -22.448  0.00  0.00    +0.208 C 
ATOM     10  C   UNL     1      33.632 -21.930 -19.128  0.00  0.00    +0.064 C 
ATOM     11  C   UNL     1      34.987 -21.990 -18.767  0.00  0.00    +0.110 C 
ATOM     12  C   UNL     1      35.980 -21.334 -19.510  0.00  0.00    +0.030 C 
ATOM     13  C   UNL     1      33.233 -21.198 -20.258  0.00  0.00    +0.031 C 
ATOM     14  C   UNL     1      35.356 -22.781 -17.558  0.00  0.00    +0.208 C 
ATOM     15  C   UNL     1      33.117 -23.318 -17.240  0.00  0.00    +0.248 C 
ATOM     16  H   UNL     1      37.191 -19.716 -21.588  0.00  0.00    +0.150 HD
ATOM     17  H   UNL     1      33.250 -19.546 -22.630  0.00  0.00    +0.150 HD
ATOM     18  H   UNL     1      31.741 -22.580 -18.575  0.00  0.00    +0.156 HD
ATOM     19  H   UNL     1      31.164 -23.836 -16.892  0.00  0.00    +0.146 HD
ATOM     20  H   UNL     1      32.277 -24.466 -15.764  0.00  0.00    +0.146 HD
ENDROOT
BRANCH   9  21
ATOM     21  N   UNL     1      35.741 -18.614 -23.467  0.00  0.00    -0.263 NA
ATOM     22  H   UNL     1      35.728 -19.000 -24.372  0.00  0.00    +0.127 HD
BRANCH  21  23
ATOM     23  C   UNL     1      36.232 -17.255 -23.320  0.00  0.00    +0.098 C 
BRANCH  23  24
ATOM     24  C   UNL     1      35.276 -16.278 -23.946  0.00  0.00    -0.006 C 
ATOM     25  C   UNL     1      34.613 -15.297 -23.192  0.00  0.00    -0.003 C 
ATOM     26  C   UNL     1      33.724 -14.407 -23.841  0.00  0.00    -0.000 C 
ATOM     27  C   UNL     1      35.066 -16.381 -25.322  0.00  0.00    -0.003 C 
ATOM     28  C   UNL     1      34.811 -15.180 -21.806  0.00  0.00    -0.000 C 
ATOM     29  C   UNL     1      33.525 -14.525 -25.227  0.00  0.00    -0.000 C 
ATOM     30  C   UNL     1      34.193 -15.506 -25.961  0.00  0.00    -0.000 C 
ATOM     31  C   UNL     1      33.061 -13.426 -23.087  0.00  0.00    -0.000 C 
ATOM     32  C   UNL     1      34.143 -14.199 -21.072  0.00  0.00    -0.000 C 
ATOM     33  C   UNL     1      33.270 -13.323 -21.712  0.00  0.00    -0.000 C 
ENDBRANCH  23  24
ENDBRANCH  21  23
ENDBRANCH   9  21
TORSDOF 3
ENDMDL
MODEL 4
REMARK VINA RESULT:     -12.2      3.370      9.238
REMARK  Name = 16750097
REMARK  3 active torsions:
REMARK  status: ('A' for Active; 'I' for Inactive)
REMARK    1  A    between atoms: N_3  and  C_10
REMARK    2  A    between atoms: N_3  and  C_23
REMARK    3  A    between atoms: C_23  and  C_24
REMARK                            x       y       z     vdW  Elec       q    Type
REMARK                         _______ _______ _______ _____ _____    ______ ____
ROOT
ATOM      1  O   UNL     1      32.997 -23.640 -17.478  0.00  0.00    -0.209 OA
ATOM      2  N   UNL     1      34.308 -20.391 -21.394  0.00  0.00    -0.305 N 
ATOM      3  N   UNL     1      36.439 -19.826 -21.117  0.00  0.00    -0.305 N 
ATOM      4  N   UNL     1      36.835 -22.588 -17.029  0.00  0.00    -0.275 N 
ATOM      5  N   UNL     1      34.935 -23.804 -16.270  0.00  0.00    -0.302 NA
ATOM      6  N   UNL     1      36.984 -23.876 -15.137  0.00  0.00    -0.320 N 
ATOM      7  C   UNL     1      34.717 -21.048 -20.262  0.00  0.00    +0.061 C 
ATOM      8  C   UNL     1      36.050 -20.680 -20.111  0.00  0.00    +0.061 C 
ATOM      9  C   UNL     1      35.371 -19.674 -21.868  0.00  0.00    +0.208 C 
ATOM     10  C   UNL     1      36.147 -22.056 -18.124  0.00  0.00    +0.064 C 
ATOM     11  C   UNL     1      34.801 -22.405 -18.311  0.00  0.00    +0.110 C 
ATOM     12  C   UNL     1      34.050 -21.908 -19.387  0.00  0.00    +0.030 C 
ATOM     13  C   UNL     1      36.785 -21.188 -19.026  0.00  0.00    +0.031 C 
ATOM     14  C   UNL     1      34.174 -23.329 -17.323  0.00  0.00    +0.208 C 
ATOM     15  C   UNL     1      36.185 -23.435 -16.162  0.00  0.00    +0.248 C 
ATOM     16  H   UNL     1      33.410 -20.427 -21.794  0.00  0.00    +0.150 HD
ATOM     17  H   UNL     1      37.325 -19.417 -21.246  0.00  0.00    +0.150 HD
ATOM     18  H   UNL     1      37.779 -22.357 -16.879  0.00  0.00    +0.156 HD
ATOM     19  H   UNL     1      37.922 -23.580 -15.083  0.00  0.00    +0.146 HD
ATOM     20  H   UNL     1      36.620 -24.487 -14.457  0.00  0.00    +0.146 HD
ENDROOT
BRANCH   9  21
ATOM     21  N   UNL     1      35.200 -18.938 -22.988  0.00  0.00    -0.263 NA
ATOM     22  H   UNL     1      34.439 -19.162 -23.571  0.00  0.00    +0.127 HD
BRANCH  21  23
ATOM     23  C   UNL     1      36.059 -17.839 -23.391  0.00  0.00    +0.098 C 
BRANCH  23  24
ATOM     24  C   UNL     1      35.241 -16.703 -23.939  0.00  0.00    -0.006 C 
ATOM     25  C   UNL     1      34.744 -15.679 -23.118  0.00  0.00    -0.003 C 
ATOM     26  C   UNL     1      33.980 -14.637 -23.695  0.00  0.00    -0.000 C 
ATOM     27  C   UNL     1      34.988 -16.701 -25.311  0.00  0.00    -0.003 C 
ATOM     28  C   UNL     1      34.989 -15.665 -21.735  0.00  0.00    -0.000 C 
ATOM     29  C   UNL     1      33.735 -14.651 -25.078  0.00  0.00    -0.000 C 
ATOM     30  C   UNL     1      34.237 -15.677 -25.880  0.00  0.00    -0.000 C 
ATOM     31  C   UNL     1      33.483 -13.613 -22.874  0.00  0.00    -0.000 C 
ATOM     32  C   UNL     1      34.486 -14.639 -20.933  0.00  0.00    -0.000 C 
ATOM     33  C   UNL     1      33.736 -13.615 -21.502  0.00  0.00    -0.000 C 
ENDBRANCH  23  24
ENDBRANCH  21  23
ENDBRANCH   9  21
TORSDOF 3
ENDMDL
MODEL 5
REMARK VINA RESULT:     -12.0      3.197      9.544
REMARK  Name = 16750097
REMARK  3 active torsions:
REMARK  status: ('A' for Active; 'I' for Inactive)
REMARK    1  A    between atoms: N_3  and  C_10
REMARK    2  A    between atoms: N_3  and  C_23
REMARK    3  A    between atoms: C_23  and  C_24
REMARK                            x       y       z     vdW  Elec       q    Type
REMARK                         _______ _______ _______ _____ _____    ______ ____
ROOT
ATOM      1  O   UNL     1      36.913 -22.437 -17.640  0.00  0.00    -0.209 OA
ATOM      2  N   UNL     1      36.418 -19.412 -21.907  0.00  0.00    -0.305 N 
ATOM      3  N   UNL     1      34.276 -19.420 -22.495  0.00  0.00    -0.305 N 
ATOM      4  N   UNL     1      33.065 -22.417 -18.747  0.00  0.00    -0.275 N 
ATOM      5  N   UNL     1      34.772 -23.156 -17.263  0.00  0.00    -0.302 NA
ATOM      6  N   UNL     1      32.537 -23.808 -17.001  0.00  0.00    -0.320 N 
ATOM      7  C   UNL     1      35.789 -20.214 -20.989  0.00  0.00    +0.061 C 
ATOM      8  C   UNL     1      34.453 -20.203 -21.377  0.00  0.00    +0.061 C 
ATOM      9  C   UNL     1      35.472 -18.962 -22.786  0.00  0.00    +0.208 C 
ATOM     10  C   UNL     1      33.958 -21.668 -19.518  0.00  0.00    +0.064 C 
ATOM     11  C   UNL     1      35.314 -21.654 -19.157  0.00  0.00    +0.110 C 
ATOM     12  C   UNL     1      36.266 -20.925 -19.886  0.00  0.00    +0.030 C 
ATOM     13  C   UNL     1      33.516 -20.940 -20.635  0.00  0.00    +0.031 C 
ATOM     14  C   UNL     1      35.730 -22.445 -17.964  0.00  0.00    +0.208 C 
ATOM     15  C   UNL     1      33.526 -23.121 -17.659  0.00  0.00    +0.248 C 
ATOM     16  H   UNL     1      37.378 -19.197 -21.930  0.00  0.00    +0.150 HD
ATOM     17  H   UNL     1      33.434 -19.243 -22.974  0.00  0.00    +0.150 HD
ATOM     18  H   UNL     1      32.109 -22.441 -18.982  0.00  0.00    +0.156 HD
ATOM     19  H   UNL     1      31.608 -23.762 -17.324  0.00  0.00    +0.146 HD
ATOM     20  H   UNL     1      32.756 -24.347 -16.207  0.00  0.00    +0.146 HD
ENDROOT
BRANCH   9  21
ATOM     21  N   UNL     1      35.865 -18.147 -23.789  0.00  0.00    -0.263 NA
ATOM     22  H   UNL     1      36.832 -18.052 -23.950  0.00  0.00    +0.127 HD
BRANCH  21  23
ATOM     23  C   UNL     1      34.961 -17.401 -24.647  0.00  0.00    +0.098 C 
BRANCH  23  24
ATOM     24  C   UNL     1      34.795 -15.995 -24.142  0.00  0.00    -0.006 C 
ATOM     25  C   UNL     1      34.375 -14.949 -24.978  0.00  0.00    -0.003 C 
ATOM     26  C   UNL     1      34.239 -13.645 -24.442  0.00  0.00    -0.000 C 
ATOM     27  C   UNL     1      35.077 -15.760 -22.796  0.00  0.00    -0.003 C 
ATOM     28  C   UNL     1      34.088 -15.166 -26.336  0.00  0.00    -0.000 C 
ATOM     29  C   UNL     1      34.527 -13.428 -23.085  0.00  0.00    -0.000 C 
ATOM     30  C   UNL     1      34.943 -14.480 -22.268  0.00  0.00    -0.000 C 
ATOM     31  C   UNL     1      33.819 -12.599 -25.278  0.00  0.00    -0.000 C 
ATOM     32  C   UNL     1      33.672 -14.113 -27.153  0.00  0.00    -0.000 C 
ATOM     33  C   UNL     1      33.537 -12.833 -26.624  0.00  0.00    -0.000 C 
ENDBRANCH  23  24
ENDBRANCH  21  23
ENDBRANCH   9  21
TORSDOF 3
ENDMDL
MODEL 6
REMARK VINA RESULT:     -12.0      1.180      1.879
REMARK  Name = 16750097
REMARK  3 active torsions:
REMARK  status: ('A' for Active; 'I' for Inactive)
REMARK    1  A    between atoms: N_3  and  C_10
REMARK    2  A    between atoms: N_3  and  C_23
REMARK    3  A    between atoms: C_23  and  C_24
REMARK                            x       y       z     vdW  Elec       q    Type
REMARK                         _______ _______ _______ _____ _____    ______ ____
ROOT
ATOM      1  O   UNL     1      34.161 -12.968 -23.028  0.00  0.00    -0.209 OA
ATOM      2  N   UNL     1      35.812 -17.574 -21.114  0.00  0.00    -0.305 N 
ATOM      3  N   UNL     1      35.849 -19.028 -22.793  0.00  0.00    -0.305 N 
ATOM      4  N   UNL     1      34.248 -15.631 -26.017  0.00  0.00    -0.275 N 
ATOM      5  N   UNL     1      33.814 -13.423 -25.245  0.00  0.00    -0.302 NA
ATOM      6  N   UNL     1      33.504 -14.034 -27.485  0.00  0.00    -0.320 N 
ATOM      7  C   UNL     1      35.389 -16.874 -22.214  0.00  0.00    +0.061 C 
ATOM      8  C   UNL     1      35.422 -17.803 -23.250  0.00  0.00    +0.061 C 
ATOM      9  C   UNL     1      36.074 -18.856 -21.510  0.00  0.00    +0.208 C 
ATOM     10  C   UNL     1      34.637 -16.076 -24.750  0.00  0.00    +0.064 C 
ATOM     11  C   UNL     1      34.618 -15.168 -23.681  0.00  0.00    +0.110 C 
ATOM     12  C   UNL     1      34.994 -15.545 -22.383  0.00  0.00    +0.030 C 
ATOM     13  C   UNL     1      35.041 -17.405 -24.542  0.00  0.00    +0.031 C 
ATOM     14  C   UNL     1      34.180 -13.769 -23.957  0.00  0.00    +0.208 C 
ATOM     15  C   UNL     1      33.857 -14.324 -26.191  0.00  0.00    +0.248 C 
ATOM     16  H   UNL     1      35.909 -17.219 -20.201  0.00  0.00    +0.150 HD
ATOM     17  H   UNL     1      35.962 -19.855 -23.316  0.00  0.00    +0.150 HD
ATOM     18  H   UNL     1      34.254 -16.251 -26.782  0.00  0.00    +0.156 HD
ATOM     19  H   UNL     1      33.547 -14.735 -28.176  0.00  0.00    +0.146 HD
ATOM     20  H   UNL     1      33.207 -13.126 -27.723  0.00  0.00    +0.146 HD
ENDROOT
BRANCH   9  21
ATOM     21  N   UNL     1      36.508 -19.738 -20.583  0.00  0.00    -0.263 NA
ATOM     22  H   UNL     1      36.918 -19.377 -19.764  0.00  0.00    +0.127 HD
BRANCH  21  23
ATOM     23  C   UNL     1      36.410 -21.181 -20.710  0.00  0.00    +0.098 C 
BRANCH  23  24
ATOM     24  C   UNL     1      35.499 -21.743 -19.653  0.00  0.00    -0.006 C 
ATOM     25  C   UNL     1      35.965 -22.083 -18.373  0.00  0.00    -0.003 C 
ATOM     26  C   UNL     1      35.057 -22.608 -17.423  0.00  0.00    -0.000 C 
ATOM     27  C   UNL     1      34.157 -21.918 -19.992  0.00  0.00    -0.003 C 
ATOM     28  C   UNL     1      37.313 -21.914 -18.015  0.00  0.00    -0.000 C 
ATOM     29  C   UNL     1      33.710 -22.778 -17.781  0.00  0.00    -0.000 C 
ATOM     30  C   UNL     1      33.264 -22.433 -19.058  0.00  0.00    -0.000 C 
ATOM     31  C   UNL     1      35.523 -22.948 -16.143  0.00  0.00    -0.000 C 
ATOM     32  C   UNL     1      37.758 -22.259 -16.738  0.00  0.00    -0.000 C 
ATOM     33  C   UNL     1      36.865 -22.774 -15.804  0.00  0.00    -0.000 C 
ENDBRANCH  23  24
ENDBRANCH  21  23
ENDBRANCH   9  21
TORSDOF 3
ENDMDL
MODEL 7
REMARK VINA RESULT:     -12.0      3.381      9.494
REMARK  Name = 16750097
REMARK  3 active torsions:
REMARK  status: ('A' for Active; 'I' for Inactive)
REMARK    1  A    between atoms: N_3  and  C_10
REMARK    2  A    between atoms: N_3  and  C_23
REMARK    3  A    between atoms: C_23  and  C_24
REMARK                            x       y       z     vdW  Elec       q    Type
REMARK                         _______ _______ _______ _____ _____    ______ ____
ROOT
ATOM      1  O   UNL     1      33.205 -23.670 -17.282  0.00  0.00    -0.209 OA
ATOM      2  N   UNL     1      34.230 -20.527 -21.366  0.00  0.00    -0.305 N 
ATOM      3  N   UNL     1      36.353 -19.891 -21.211  0.00  0.00    -0.305 N 
ATOM      4  N   UNL     1      37.025 -22.491 -17.054  0.00  0.00    -0.275 N 
ATOM      5  N   UNL     1      35.202 -23.734 -16.163  0.00  0.00    -0.302 NA
ATOM      6  N   UNL     1      37.303 -23.705 -15.128  0.00  0.00    -0.320 N 
ATOM      7  C   UNL     1      34.711 -21.131 -20.233  0.00  0.00    +0.061 C 
ATOM      8  C   UNL     1      36.038 -20.719 -20.159  0.00  0.00    +0.061 C 
ATOM      9  C   UNL     1      35.247 -19.797 -21.915  0.00  0.00    +0.208 C 
ATOM     10  C   UNL     1      36.271 -22.019 -18.132  0.00  0.00    +0.064 C 
ATOM     11  C   UNL     1      34.929 -22.413 -18.242  0.00  0.00    +0.110 C 
ATOM     12  C   UNL     1      34.113 -21.978 -19.297  0.00  0.00    +0.030 C 
ATOM     13  C   UNL     1      36.839 -21.166 -19.094  0.00  0.00    +0.031 C 
ATOM     14  C   UNL     1      34.377 -23.319 -17.194  0.00  0.00    +0.208 C 
ATOM     15  C   UNL     1      36.443 -23.325 -16.128  0.00  0.00    +0.248 C 
ATOM     16  H   UNL     1      33.315 -20.604 -21.721  0.00  0.00    +0.150 HD
ATOM     17  H   UNL     1      37.219 -19.461 -21.397  0.00  0.00    +0.150 HD
ATOM     18  H   UNL     1      37.969 -22.228 -16.958  0.00  0.00    +0.156 HD
ATOM     19  H   UNL     1      38.233 -23.380 -15.129  0.00  0.00    +0.146 HD
ATOM     20  H   UNL     1      36.991 -24.302 -14.411  0.00  0.00    +0.146 HD
ENDROOT
BRANCH   9  21
ATOM     21  N   UNL     1      35.001 -19.107 -23.050  0.00  0.00    -0.263 NA
ATOM     22  H   UNL     1      34.205 -19.357 -23.575  0.00  0.00    +0.127 HD
BRANCH  21  23
ATOM     23  C   UNL     1      35.827 -18.023 -23.550  0.00  0.00    +0.098 C 
BRANCH  23  24
ATOM     24  C   UNL     1      35.263 -16.694 -23.131  0.00  0.00    -0.006 C 
ATOM     25  C   UNL     1      34.687 -15.805 -24.052  0.00  0.00    -0.003 C 
ATOM     26  C   UNL     1      34.174 -14.567 -23.593  0.00  0.00    -0.000 C 
ATOM     27  C   UNL     1      35.332 -16.368 -21.776  0.00  0.00    -0.003 C 
ATOM     28  C   UNL     1      34.610 -16.115 -25.420  0.00  0.00    -0.000 C 
ATOM     29  C   UNL     1      34.253 -14.257 -22.226  0.00  0.00    -0.000 C 
ATOM     30  C   UNL     1      34.828 -15.153 -21.324  0.00  0.00    -0.000 C 
ATOM     31  C   UNL     1      33.599 -13.678 -24.515  0.00  0.00    -0.000 C 
ATOM     32  C   UNL     1      34.035 -15.219 -26.322  0.00  0.00    -0.000 C 
ATOM     33  C   UNL     1      33.530 -14.003 -25.870  0.00  0.00    -0.000 C 
ENDBRANCH  23  24
ENDBRANCH  21  23
ENDBRANCH   9  21
TORSDOF 3
ENDMDL
MODEL 8
REMARK VINA RESULT:     -11.5      4.547      9.875
REMARK  Name = 16750097
REMARK  3 active torsions:
REMARK  status: ('A' for Active; 'I' for Inactive)
REMARK    1  A    between atoms: N_3  and  C_10
REMARK    2  A    between atoms: N_3  and  C_23
REMARK    3  A    between atoms: C_23  and  C_24
REMARK                            x       y       z     vdW  Elec       q    Type
REMARK                         _______ _______ _______ _____ _____    ______ ____
ROOT
ATOM      1  O   UNL     1      35.728 -17.515 -21.317  0.00  0.00    -0.209 OA
ATOM      2  N   UNL     1      34.642 -12.749 -23.245  0.00  0.00    -0.305 N 
ATOM      3  N   UNL     1      34.025 -13.003 -25.364  0.00  0.00    -0.305 N 
ATOM      4  N   UNL     1      34.609 -17.913 -25.142  0.00  0.00    -0.275 N 
ATOM      5  N   UNL     1      35.333 -18.897 -23.100  0.00  0.00    -0.302 NA
ATOM      6  N   UNL     1      34.891 -20.185 -25.006  0.00  0.00    -0.320 N 
ATOM      7  C   UNL     1      34.710 -14.097 -23.487  0.00  0.00    +0.061 C 
ATOM      8  C   UNL     1      34.320 -14.230 -24.816  0.00  0.00    +0.061 C 
ATOM      9  C   UNL     1      34.228 -12.138 -24.395  0.00  0.00    +0.208 C 
ATOM     10  C   UNL     1      34.634 -16.620 -24.612  0.00  0.00    +0.064 C 
ATOM     11  C   UNL     1      35.021 -16.445 -23.274  0.00  0.00    +0.110 C 
ATOM     12  C   UNL     1      35.070 -15.177 -22.677  0.00  0.00    +0.030 C 
ATOM     13  C   UNL     1      34.278 -15.510 -25.395  0.00  0.00    +0.031 C 
ATOM     14  C   UNL     1      35.389 -17.658 -22.488  0.00  0.00    +0.208 C 
ATOM     15  C   UNL     1      34.962 -18.982 -24.350  0.00  0.00    +0.248 C 
ATOM     16  H   UNL     1      34.852 -12.301 -22.395  0.00  0.00    +0.150 HD
ATOM     17  H   UNL     1      33.726 -12.814 -26.283  0.00  0.00    +0.150 HD
ATOM     18  H   UNL     1      34.340 -18.059 -26.077  0.00  0.00    +0.156 HD
ATOM     19  H   UNL     1      34.608 -20.216 -25.949  0.00  0.00    +0.146 HD
ATOM     20  H   UNL     1      35.123 -21.017 -24.534  0.00  0.00    +0.146 HD
ENDROOT
BRANCH   9  21
ATOM     21  N   UNL     1      34.089 -10.795 -24.393  0.00  0.00    -0.263 NA
ATOM     22  H   UNL     1      34.897 -10.250 -24.531  0.00  0.00    +0.127 HD
BRANCH  21  23
ATOM     23  C   UNL     1      32.829 -10.098 -24.204  0.00  0.00    +0.098 C 
BRANCH  23  24
ATOM     24  C   UNL     1      32.835  -9.340 -22.905  0.00  0.00    -0.006 C 
ATOM     25  C   UNL     1      32.240  -9.852 -21.742  0.00  0.00    -0.003 C 
ATOM     26  C   UNL     1      32.280  -9.088 -20.550  0.00  0.00    -0.000 C 
ATOM     27  C   UNL     1      33.461  -8.093 -22.895  0.00  0.00    -0.003 C 
ATOM     28  C   UNL     1      31.605 -11.104 -21.733  0.00  0.00    -0.000 C 
ATOM     29  C   UNL     1      32.914  -7.835 -20.559  0.00  0.00    -0.000 C 
ATOM     30  C   UNL     1      33.501  -7.342 -21.725  0.00  0.00    -0.000 C 
ATOM     31  C   UNL     1      31.684  -9.600 -19.386  0.00  0.00    -0.000 C 
ATOM     32  C   UNL     1      31.017 -11.597 -20.567  0.00  0.00    -0.000 C 
ATOM     33  C   UNL     1      31.058 -10.846 -19.395  0.00  0.00    -0.000 C 
ENDBRANCH  23  24
ENDBRANCH  21  23
ENDBRANCH   9  21
TORSDOF 3
ENDMDL
MODEL 9
REMARK VINA RESULT:     -11.5      3.801      9.752
REMARK  Name = 16750097
REMARK  3 active torsions:
REMARK  status: ('A' for Active; 'I' for Inactive)
REMARK    1  A    between atoms: N_3  and  C_10
REMARK    2  A    between atoms: N_3  and  C_23
REMARK    3  A    between atoms: C_23  and  C_24
REMARK                            x       y       z     vdW  Elec       q    Type
REMARK                         _______ _______ _______ _____ _____    ______ ____
ROOT
ATOM      1  O   UNL     1      37.777 -22.917 -15.910  0.00  0.00    -0.209 OA
ATOM      2  N   UNL     1      36.144 -20.463 -20.259  0.00  0.00    -0.305 N 
ATOM      3  N   UNL     1      34.015 -21.009 -20.583  0.00  0.00    -0.305 N 
ATOM      4  N   UNL     1      33.938 -23.866 -16.542  0.00  0.00    -0.275 N 
ATOM      5  N   UNL     1      35.916 -24.067 -15.234  0.00  0.00    -0.302 NA
ATOM      6  N   UNL     1      33.937 -25.184 -14.665  0.00  0.00    -0.320 N 
ATOM      7  C   UNL     1      35.821 -21.305 -19.226  0.00  0.00    +0.061 C 
ATOM      8  C   UNL     1      34.487 -21.631 -19.450  0.00  0.00    +0.061 C 
ATOM      9  C   UNL     1      35.034 -20.317 -21.043  0.00  0.00    +0.208 C 
ATOM     10  C   UNL     1      34.546 -23.004 -17.460  0.00  0.00    +0.064 C 
ATOM     11  C   UNL     1      35.890 -22.651 -17.267  0.00  0.00    +0.110 C 
ATOM     12  C   UNL     1      36.563 -21.791 -18.148  0.00  0.00    +0.030 C 
ATOM     13  C   UNL     1      33.831 -22.494 -18.556  0.00  0.00    +0.031 C 
ATOM     14  C   UNL     1      36.602 -23.221 -16.087  0.00  0.00    +0.208 C 
ATOM     15  C   UNL     1      34.663 -24.350 -15.477  0.00  0.00    +0.248 C 
ATOM     16  H   UNL     1      37.019 -20.040 -20.411  0.00  0.00    +0.150 HD
ATOM     17  H   UNL     1      33.110 -21.069 -20.966  0.00  0.00    +0.150 HD
ATOM     18  H   UNL     1      32.996 -24.127 -16.658  0.00  0.00    +0.156 HD
ATOM     19  H   UNL     1      32.995 -25.378 -14.875  0.00  0.00    +0.146 HD
ATOM     20  H   UNL     1      34.358 -25.588 -13.872  0.00  0.00    +0.146 HD
ENDROOT
BRANCH   9  21
ATOM     21  N   UNL     1      35.118 -19.525 -22.133  0.00  0.00    -0.263 NA
ATOM     22  H   UNL     1      34.450 -19.653 -22.846  0.00  0.00    +0.127 HD
BRANCH  21  23
ATOM     23  C   UNL     1      36.124 -18.495 -22.327  0.00  0.00    +0.098 C 
BRANCH  23  24
ATOM     24  C   UNL     1      35.485 -17.134 -22.363  0.00  0.00    -0.006 C 
ATOM     25  C   UNL     1      35.044 -16.550 -23.561  0.00  0.00    -0.003 C 
ATOM     26  C   UNL     1      34.451 -15.265 -23.528  0.00  0.00    -0.000 C 
ATOM     27  C   UNL     1      35.345 -16.461 -21.149  0.00  0.00    -0.003 C 
ATOM     28  C   UNL     1      35.178 -17.213 -24.792  0.00  0.00    -0.000 C 
ATOM     29  C   UNL     1      34.318 -14.602 -22.297  0.00  0.00    -0.000 C 
ATOM     30  C   UNL     1      34.762 -15.198 -21.115  0.00  0.00    -0.000 C 
ATOM     31  C   UNL     1      34.010 -14.681 -24.726  0.00  0.00    -0.000 C 
ATOM     32  C   UNL     1      34.734 -16.617 -25.973  0.00  0.00    -0.000 C 
ATOM     33  C   UNL     1      34.150 -15.353 -25.940  0.00  0.00    -0.000 C 
ENDBRANCH  23  24
ENDBRANCH  21  23
ENDBRANCH   9  21
TORSDOF 3
ENDMDL
