MODEL 1
REMARK VINA RESULT:     -11.7      0.000      0.000
REMARK  Name = 135565042
REMARK  5 active torsions:
REMARK  status: ('A' for Active; 'I' for Inactive)
REMARK    1  A    between atoms: C_3  and  O_21
REMARK    2  A    between atoms: C_6  and  C_7
REMARK    3  A    between atoms: C_8  and  O_19
REMARK    4  A    between atoms: C_10  and  C_15
REMARK    5  A    between atoms: O_21  and  C_27
REMARK                            x       y       z     vdW  Elec       q    Type
REMARK                         _______ _______ _______ _____ _____    ______ ____
ROOT
ATOM      1  N   UNL     1      35.434 -23.126 -17.099  0.00  0.00    -0.110 NA
ATOM      2  N   UNL     1      35.490 -22.342 -18.209  0.00  0.00    -0.145 NA
ATOM      3  C   UNL     1      34.236 -23.579 -16.672  0.00  0.00    +0.244 C 
ATOM      4  C   UNL     1      33.051 -23.284 -17.314  0.00  0.00    +0.061 C 
ATOM      5  C   UNL     1      33.107 -22.487 -18.445  0.00  0.00    +0.026 C 
ATOM      6  C   UNL     1      34.345 -22.037 -18.857  0.00  0.00    +0.106 C 
ENDROOT
BRANCH   6   7
ATOM      7  C   UNL     1      34.497 -21.205 -20.025  0.00  0.00    +0.053 C 
ATOM      8  C   UNL     1      35.762 -20.900 -20.527  0.00  0.00    +0.135 C 
ATOM      9  C   UNL     1      33.357 -20.703 -20.653  0.00  0.00    +0.005 C 
ATOM     10  C   UNL     1      34.749 -19.591 -22.286  0.00  0.00    +0.006 C 
ATOM     11  C   UNL     1      35.888 -20.094 -21.658  0.00  0.00    +0.037 C 
ATOM     12  C   UNL     1      33.483 -19.896 -21.784  0.00  0.00    +0.000 C 
BRANCH  10  15
ATOM     13  N   UNL     1      35.433 -17.096 -24.750  0.00  0.00    -0.235 N 
ATOM     14  N   UNL     1      34.749 -17.914 -25.568  0.00  0.00    -0.180 NA
ATOM     15  C   UNL     1      34.878 -18.762 -23.451  0.00  0.00    +0.037 C 
ATOM     16  C   UNL     1      35.539 -17.558 -23.472  0.00  0.00    +0.081 C 
ATOM     17  C   UNL     1      34.412 -18.930 -24.769  0.00  0.00    +0.119 C 
ATOM     18  H   UNL     1      35.822 -16.241 -25.047  0.00  0.00    +0.174 HD
ENDBRANCH  10  15
BRANCH   8  19
ATOM     19  O   UNL     1      36.893 -21.378 -19.932  0.00  0.00    -0.505 OA
ATOM     20  H   UNL     1      37.687 -20.883 -19.971  0.00  0.00    +0.292 HD
ENDBRANCH   8  19
ENDBRANCH   6   7
BRANCH   3  21
ATOM     21  O   UNL     1      34.225 -24.365 -15.552  0.00  0.00    -0.463 OA
BRANCH  21  27
ATOM     22  N   UNL     1      37.172 -25.635 -12.803  0.00  0.00    +0.389 N 
ATOM     23  C   UNL     1      37.473 -25.782 -14.234  0.00  0.00    -0.042 C 
ATOM     24  C   UNL     1      36.273 -24.557 -12.368  0.00  0.00    -0.042 C 
ATOM     25  C   UNL     1      36.218 -25.618 -15.113  0.00  0.00    +0.024 C 
ATOM     26  C   UNL     1      35.043 -24.416 -13.285  0.00  0.00    +0.024 C 
ATOM     27  C   UNL     1      35.412 -24.374 -14.764  0.00  0.00    +0.164 C 
ATOM     28  C   UNL     1      37.011 -23.213 -12.226  0.00  0.00    -0.021 C 
ATOM     29  C   UNL     1      38.000 -27.222 -14.406  0.00  0.00    -0.021 C 
ATOM     30  C   UNL     1      38.595 -24.830 -14.689  0.00  0.00    -0.021 C 
ATOM     31  C   UNL     1      35.786 -24.960 -10.961  0.00  0.00    -0.021 C 
ATOM     32  H   UNL     1      38.062 -25.493 -12.324  0.00  0.00    -0.084 HD
ATOM     33  H   UNL     1      36.659 -26.486 -12.574  0.00  0.00    -0.084 HD
ENDBRANCH  21  27
ENDBRANCH   3  21
TORSDOF 5
ENDMDL
MODEL 2
REMARK VINA RESULT:     -11.0      1.887      2.863
REMARK  Name = 135565042
REMARK  5 active torsions:
REMARK  status: ('A' for Active; 'I' for Inactive)
REMARK    1  A    between atoms: C_3  and  O_21
REMARK    2  A    between atoms: C_6  and  C_7
REMARK    3  A    between atoms: C_8  and  O_19
REMARK    4  A    between atoms: C_10  and  C_15
REMARK    5  A    between atoms: O_21  and  C_27
REMARK                            x       y       z     vdW  Elec       q    Type
REMARK                         _______ _______ _______ _____ _____    ______ ____
ROOT
ATOM      1  N   UNL     1      37.915 -20.761 -17.568  0.00  0.00    -0.110 NA
ATOM      2  N   UNL     1      37.500 -20.152 -18.710  0.00  0.00    -0.145 NA
ATOM      3  C   UNL     1      37.323 -21.912 -17.183  0.00  0.00    +0.244 C 
ATOM      4  C   UNL     1      36.305 -22.507 -17.900  0.00  0.00    +0.061 C 
ATOM      5  C   UNL     1      35.882 -21.887 -19.063  0.00  0.00    +0.026 C 
ATOM      6  C   UNL     1      36.505 -20.712 -19.431  0.00  0.00    +0.106 C 
ENDROOT
BRANCH   6   7
ATOM      7  C   UNL     1      36.132 -20.000 -20.628  0.00  0.00    +0.053 C 
ATOM      8  C   UNL     1      36.936 -18.981 -21.136  0.00  0.00    +0.135 C 
ATOM      9  C   UNL     1      34.947 -20.343 -21.279  0.00  0.00    +0.005 C 
ATOM     10  C   UNL     1      35.373 -18.647 -22.946  0.00  0.00    +0.006 C 
ATOM     11  C   UNL     1      36.558 -18.305 -22.295  0.00  0.00    +0.037 C 
ATOM     12  C   UNL     1      34.567 -19.667 -22.438  0.00  0.00    +0.000 C 
BRANCH  10  15
ATOM     13  N   UNL     1      34.765 -16.373 -25.635  0.00  0.00    -0.235 N 
ATOM     14  N   UNL     1      34.082 -17.402 -26.167  0.00  0.00    -0.180 NA
ATOM     15  C   UNL     1      34.983 -17.952 -24.141  0.00  0.00    +0.037 C 
ATOM     16  C   UNL     1      35.323 -16.652 -24.422  0.00  0.00    +0.081 C 
ATOM     17  C   UNL     1      34.219 -18.363 -25.250  0.00  0.00    +0.119 C 
ATOM     18  H   UNL     1      34.853 -15.500 -26.080  0.00  0.00    +0.174 HD
ENDBRANCH  10  15
BRANCH   8  19
ATOM     19  O   UNL     1      38.100 -18.625 -20.519  0.00  0.00    -0.505 OA
ATOM     20  H   UNL     1      38.923 -18.855 -20.904  0.00  0.00    +0.292 HD
ENDBRANCH   8  19
ENDBRANCH   6   7
BRANCH   3  21
ATOM     21  O   UNL     1      37.771 -22.494 -16.028  0.00  0.00    -0.463 OA
BRANCH  21  27
ATOM     22  N   UNL     1      36.444 -25.594 -13.482  0.00  0.00    +0.389 N 
ATOM     23  C   UNL     1      35.595 -24.400 -13.594  0.00  0.00    -0.042 C 
ATOM     24  C   UNL     1      37.289 -25.980 -14.621  0.00  0.00    -0.042 C 
ATOM     25  C   UNL     1      36.331 -23.220 -14.256  0.00  0.00    +0.024 C 
ATOM     26  C   UNL     1      37.992 -24.769 -15.264  0.00  0.00    +0.024 C 
ATOM     27  C   UNL     1      37.036 -23.616 -15.549  0.00  0.00    +0.164 C 
ATOM     28  C   UNL     1      36.506 -26.786 -15.673  0.00  0.00    -0.021 C 
ATOM     29  C   UNL     1      35.242 -23.999 -12.147  0.00  0.00    -0.021 C 
ATOM     30  C   UNL     1      34.269 -24.700 -14.318  0.00  0.00    -0.021 C 
ATOM     31  C   UNL     1      38.370 -26.916 -14.041  0.00  0.00    -0.021 C 
ATOM     32  H   UNL     1      35.826 -26.382 -13.289  0.00  0.00    -0.084 HD
ATOM     33  H   UNL     1      37.114 -25.347 -12.754  0.00  0.00    -0.084 HD
ENDBRANCH  21  27
ENDBRANCH   3  21
TORSDOF 5
ENDMDL
MODEL 3
REMARK VINA RESULT:     -10.7      1.349      2.621
REMARK  Name = 135565042
REMARK  5 active torsions:
REMARK  status: ('A' for Active; 'I' for Inactive)
REMARK    1  A    between atoms: C_3  and  O_21
REMARK    2  A    between atoms: C_6  and  C_7
REMARK    3  A    between atoms: C_8  and  O_19
REMARK    4  A    between atoms: C_10  and  C_15
REMARK    5  A    between atoms: O_21  and  C_27
REMARK                            x       y       z     vdW  Elec       q    Type
REMARK                         _______ _______ _______ _____ _____    ______ ____
ROOT
ATOM      1  N   UNL     1      34.057 -24.181 -17.386  0.00  0.00    -0.110 NA
ATOM      2  N   UNL     1      34.156 -23.321 -18.435  0.00  0.00    -0.145 NA
ATOM      3  C   UNL     1      34.851 -24.000 -16.309  0.00  0.00    +0.244 C 
ATOM      4  C   UNL     1      35.769 -22.973 -16.218  0.00  0.00    +0.061 C 
ATOM      5  C   UNL     1      35.870 -22.097 -17.286  0.00  0.00    +0.026 C 
ATOM      6  C   UNL     1      35.046 -22.308 -18.373  0.00  0.00    +0.106 C 
ENDROOT
BRANCH   6   7
ATOM      7  C   UNL     1      35.081 -21.444 -19.527  0.00  0.00    +0.053 C 
ATOM      8  C   UNL     1      33.905 -20.941 -20.081  0.00  0.00    +0.135 C 
ATOM      9  C   UNL     1      36.314 -21.112 -20.089  0.00  0.00    +0.005 C 
ATOM     10  C   UNL     1      35.192 -19.775 -21.760  0.00  0.00    +0.006 C 
ATOM     11  C   UNL     1      33.959 -20.107 -21.197  0.00  0.00    +0.037 C 
ATOM     12  C   UNL     1      36.370 -20.278 -21.205  0.00  0.00    +0.000 C 
BRANCH  10  15
ATOM     13  N   UNL     1      35.753 -17.232 -24.206  0.00  0.00    -0.235 N 
ATOM     14  N   UNL     1      34.963 -17.996 -24.980  0.00  0.00    -0.180 NA
ATOM     15  C   UNL     1      35.250 -18.915 -22.908  0.00  0.00    +0.037 C 
ATOM     16  C   UNL     1      35.956 -17.738 -22.956  0.00  0.00    +0.081 C 
ATOM     17  C   UNL     1      34.659 -19.023 -24.182  0.00  0.00    +0.119 C 
ATOM     18  H   UNL     1      36.150 -16.384 -24.514  0.00  0.00    +0.174 HD
ENDBRANCH  10  15
BRANCH   8  19
ATOM     19  O   UNL     1      32.686 -21.249 -19.552  0.00  0.00    -0.505 OA
ATOM     20  H   UNL     1      32.605 -21.960 -18.946  0.00  0.00    +0.292 HD
ENDBRANCH   8  19
ENDBRANCH   6   7
BRANCH   3  21
ATOM     21  O   UNL     1      34.719 -24.887 -15.275  0.00  0.00    -0.463 OA
BRANCH  21  27
ATOM     22  N   UNL     1      38.486 -24.348 -13.439  0.00  0.00    +0.389 N 
ATOM     23  C   UNL     1      37.295 -24.227 -12.588  0.00  0.00    -0.042 C 
ATOM     24  C   UNL     1      38.437 -25.223 -14.619  0.00  0.00    -0.042 C 
ATOM     25  C   UNL     1      36.000 -24.096 -13.412  0.00  0.00    +0.024 C 
ATOM     26  C   UNL     1      37.119 -25.074 -15.402  0.00  0.00    +0.024 C 
ATOM     27  C   UNL     1      35.889 -25.152 -14.505  0.00  0.00    +0.164 C 
ATOM     28  C   UNL     1      38.699 -26.696 -14.254  0.00  0.00    -0.021 C 
ATOM     29  C   UNL     1      37.488 -22.927 -11.779  0.00  0.00    -0.021 C 
ATOM     30  C   UNL     1      37.191 -25.381 -11.573  0.00  0.00    -0.021 C 
ATOM     31  C   UNL     1      39.597 -24.766 -15.528  0.00  0.00    -0.021 C 
ATOM     32  H   UNL     1      39.244 -24.688 -12.847  0.00  0.00    -0.084 HD
ATOM     33  H   UNL     1      38.598 -23.414 -13.834  0.00  0.00    -0.084 HD
ENDBRANCH  21  27
ENDBRANCH   3  21
TORSDOF 5
ENDMDL
MODEL 4
REMARK VINA RESULT:      -9.8      1.967      2.547
REMARK  Name = 135565042
REMARK  5 active torsions:
REMARK  status: ('A' for Active; 'I' for Inactive)
REMARK    1  A    between atoms: C_3  and  O_21
REMARK    2  A    between atoms: C_6  and  C_7
REMARK    3  A    between atoms: C_8  and  O_19
REMARK    4  A    between atoms: C_10  and  C_15
REMARK    5  A    between atoms: O_21  and  C_27
REMARK                            x       y       z     vdW  Elec       q    Type
REMARK                         _______ _______ _______ _____ _____    ______ ____
ROOT
ATOM      1  N   UNL     1      38.037 -20.656 -17.220  0.00  0.00    -0.110 NA
ATOM      2  N   UNL     1      37.584 -20.122 -18.386  0.00  0.00    -0.145 NA
ATOM      3  C   UNL     1      37.570 -21.860 -16.823  0.00  0.00    +0.244 C 
ATOM      4  C   UNL     1      36.647 -22.583 -17.549  0.00  0.00    +0.061 C 
ATOM      5  C   UNL     1      36.186 -22.039 -18.736  0.00  0.00    +0.026 C 
ATOM      6  C   UNL     1      36.679 -20.808 -19.117  0.00  0.00    +0.106 C 
ENDROOT
BRANCH   6   7
ATOM      7  C   UNL     1      36.257 -20.169 -20.338  0.00  0.00    +0.053 C 
ATOM      8  C   UNL     1      37.016 -19.149 -20.912  0.00  0.00    +0.135 C 
ATOM      9  C   UNL     1      35.072 -20.582 -20.946  0.00  0.00    +0.005 C 
ATOM     10  C   UNL     1      35.406 -18.957 -22.702  0.00  0.00    +0.006 C 
ATOM     11  C   UNL     1      36.592 -18.544 -22.094  0.00  0.00    +0.037 C 
ATOM     12  C   UNL     1      34.646 -19.977 -22.128  0.00  0.00    +0.000 C 
BRANCH  10  15
ATOM     13  N   UNL     1      34.667 -16.839 -25.484  0.00  0.00    -0.235 N 
ATOM     14  N   UNL     1      34.008 -17.914 -25.950  0.00  0.00    -0.180 NA
ATOM     15  C   UNL     1      34.969 -18.334 -23.920  0.00  0.00    +0.037 C 
ATOM     16  C   UNL     1      35.260 -17.039 -24.272  0.00  0.00    +0.081 C 
ATOM     17  C   UNL     1      34.196 -18.824 -24.990  0.00  0.00    +0.119 C 
ATOM     18  H   UNL     1      34.718 -15.986 -25.974  0.00  0.00    +0.174 HD
ENDBRANCH  10  15
BRANCH   8  19
ATOM     19  O   UNL     1      38.180 -18.726 -20.339  0.00  0.00    -0.505 OA
ATOM     20  H   UNL     1      38.210 -18.544 -19.420  0.00  0.00    +0.292 HD
ENDBRANCH   8  19
ENDBRANCH   6   7
BRANCH   3  21
ATOM     21  O   UNL     1      38.052 -22.362 -15.644  0.00  0.00    -0.463 OA
BRANCH  21  27
ATOM     22  N   UNL     1      35.304 -25.508 -15.015  0.00  0.00    +0.389 N 
ATOM     23  C   UNL     1      36.732 -25.817 -14.864  0.00  0.00    -0.042 C 
ATOM     24  C   UNL     1      34.833 -24.145 -14.735  0.00  0.00    -0.042 C 
ATOM     25  C   UNL     1      37.633 -24.712 -15.447  0.00  0.00    +0.024 C 
ATOM     26  C   UNL     1      35.772 -23.072 -15.320  0.00  0.00    +0.024 C 
ATOM     27  C   UNL     1      37.236 -23.319 -14.974  0.00  0.00    +0.164 C 
ATOM     28  C   UNL     1      34.599 -23.913 -13.232  0.00  0.00    -0.021 C 
ATOM     29  C   UNL     1      36.969 -27.111 -15.671  0.00  0.00    -0.021 C 
ATOM     30  C   UNL     1      37.106 -26.121 -13.401  0.00  0.00    -0.021 C 
ATOM     31  C   UNL     1      33.463 -24.023 -15.434  0.00  0.00    -0.021 C 
ATOM     32  H   UNL     1      34.796 -26.133 -14.388  0.00  0.00    -0.084 HD
ATOM     33  H   UNL     1      35.135 -25.624 -16.014  0.00  0.00    -0.084 HD
ENDBRANCH  21  27
ENDBRANCH   3  21
TORSDOF 5
ENDMDL
MODEL 5
REMARK VINA RESULT:      -9.5      8.322     14.721
REMARK  Name = 135565042
REMARK  5 active torsions:
REMARK  status: ('A' for Active; 'I' for Inactive)
REMARK    1  A    between atoms: C_3  and  O_21
REMARK    2  A    between atoms: C_6  and  C_7
REMARK    3  A    between atoms: C_8  and  O_19
REMARK    4  A    between atoms: C_10  and  C_15
REMARK    5  A    between atoms: O_21  and  C_27
REMARK                            x       y       z     vdW  Elec       q    Type
REMARK                         _______ _______ _______ _____ _____    ______ ____
ROOT
ATOM      1  N   UNL     1      33.050 -10.864 -23.692  0.00  0.00    -0.110 NA
ATOM      2  N   UNL     1      33.674 -12.053 -23.480  0.00  0.00    -0.145 NA
ATOM      3  C   UNL     1      31.941 -10.567 -22.981  0.00  0.00    +0.244 C 
ATOM      4  C   UNL     1      31.404 -11.421 -22.039  0.00  0.00    +0.061 C 
ATOM      5  C   UNL     1      32.039 -12.631 -21.823  0.00  0.00    +0.026 C 
ATOM      6  C   UNL     1      33.170 -12.908 -22.565  0.00  0.00    +0.106 C 
ENDROOT
BRANCH   6   7
ATOM      7  C   UNL     1      33.897 -14.142 -22.404  0.00  0.00    +0.053 C 
ATOM      8  C   UNL     1      34.313 -14.879 -23.512  0.00  0.00    +0.135 C 
ATOM      9  C   UNL     1      34.183 -14.598 -21.116  0.00  0.00    +0.005 C 
ATOM     10  C   UNL     1      35.301 -16.526 -22.048  0.00  0.00    +0.006 C 
ATOM     11  C   UNL     1      35.015 -16.070 -23.335  0.00  0.00    +0.037 C 
ATOM     12  C   UNL     1      34.885 -15.790 -20.938  0.00  0.00    +0.000 C 
BRANCH  10  15
ATOM     13  N   UNL     1      36.473 -19.837 -21.386  0.00  0.00    -0.235 N 
ATOM     14  N   UNL     1      37.661 -19.345 -21.779  0.00  0.00    -0.180 NA
ATOM     15  C   UNL     1      36.025 -17.753 -21.866  0.00  0.00    +0.037 C 
ATOM     16  C   UNL     1      35.461 -18.923 -21.420  0.00  0.00    +0.081 C 
ATOM     17  C   UNL     1      37.381 -18.072 -22.071  0.00  0.00    +0.119 C 
ATOM     18  H   UNL     1      36.346 -20.770 -21.100  0.00  0.00    +0.174 HD
ENDBRANCH  10  15
BRANCH   8  19
ATOM     19  O   UNL     1      34.047 -14.456 -24.782  0.00  0.00    -0.505 OA
ATOM     20  H   UNL     1      33.309 -14.801 -25.245  0.00  0.00    +0.292 HD
ENDBRANCH   8  19
ENDBRANCH   6   7
BRANCH   3  21
ATOM     21  O   UNL     1      31.343  -9.360 -23.224  0.00  0.00    -0.463 OA
BRANCH  21  27
ATOM     22  N   UNL     1      32.626  -5.336 -23.316  0.00  0.00    +0.389 N 
ATOM     23  C   UNL     1      32.013  -5.822 -22.073  0.00  0.00    -0.042 C 
ATOM     24  C   UNL     1      33.342  -6.285 -24.180  0.00  0.00    -0.042 C 
ATOM     25  C   UNL     1      31.283  -7.164 -22.269  0.00  0.00    +0.024 C 
ATOM     26  C   UNL     1      32.587  -7.619 -24.334  0.00  0.00    +0.024 C 
ATOM     27  C   UNL     1      32.134  -8.197 -22.997  0.00  0.00    +0.164 C 
ATOM     28  C   UNL     1      34.787  -6.520 -23.703  0.00  0.00    -0.021 C 
ATOM     29  C   UNL     1      30.969  -4.757 -21.676  0.00  0.00    -0.021 C 
ATOM     30  C   UNL     1      33.032  -5.910 -20.922  0.00  0.00    -0.021 C 
ATOM     31  C   UNL     1      33.424  -5.611 -25.565  0.00  0.00    -0.021 C 
ATOM     32  H   UNL     1      33.292  -4.608 -23.055  0.00  0.00    -0.084 HD
ATOM     33  H   UNL     1      31.829  -5.045 -23.882  0.00  0.00    -0.084 HD
ENDBRANCH  21  27
ENDBRANCH   3  21
TORSDOF 5
ENDMDL
MODEL 6
REMARK VINA RESULT:      -9.4      8.309     14.830
REMARK  Name = 135565042
REMARK  5 active torsions:
REMARK  status: ('A' for Active; 'I' for Inactive)
REMARK    1  A    between atoms: C_3  and  O_21
REMARK    2  A    between atoms: C_6  and  C_7
REMARK    3  A    between atoms: C_8  and  O_19
REMARK    4  A    between atoms: C_10  and  C_15
REMARK    5  A    between atoms: O_21  and  C_27
REMARK                            x       y       z     vdW  Elec       q    Type
REMARK                         _______ _______ _______ _____ _____    ______ ____
ROOT
ATOM      1  N   UNL     1      31.682 -11.462 -22.499  0.00  0.00    -0.110 NA
ATOM      2  N   UNL     1      32.341 -12.633 -22.289  0.00  0.00    -0.145 NA
ATOM      3  C   UNL     1      32.209 -10.553 -23.348  0.00  0.00    +0.244 C 
ATOM      4  C   UNL     1      33.397 -10.756 -24.020  0.00  0.00    +0.061 C 
ATOM      5  C   UNL     1      34.068 -11.948 -23.807  0.00  0.00    +0.026 C 
ATOM      6  C   UNL     1      33.506 -12.857 -22.934  0.00  0.00    +0.106 C 
ENDROOT
BRANCH   6   7
ATOM      7  C   UNL     1      34.134 -14.125 -22.654  0.00  0.00    +0.053 C 
ATOM      8  C   UNL     1      34.205 -14.617 -21.351  0.00  0.00    +0.135 C 
ATOM      9  C   UNL     1      34.677 -14.861 -23.708  0.00  0.00    +0.005 C 
ATOM     10  C   UNL     1      35.359 -16.581 -22.155  0.00  0.00    +0.006 C 
ATOM     11  C   UNL     1      34.816 -15.845 -21.101  0.00  0.00    +0.037 C 
ATOM     12  C   UNL     1      35.289 -16.089 -23.459  0.00  0.00    +0.000 C 
BRANCH  10  15
ATOM     13  N   UNL     1      36.264 -19.945 -21.356  0.00  0.00    -0.235 N 
ATOM     14  N   UNL     1      37.507 -19.535 -21.661  0.00  0.00    -0.180 NA
ATOM     15  C   UNL     1      35.987 -17.847 -21.899  0.00  0.00    +0.037 C 
ATOM     16  C   UNL     1      35.317 -18.971 -21.483  0.00  0.00    +0.081 C 
ATOM     17  C   UNL     1      37.332 -18.253 -21.991  0.00  0.00    +0.119 C 
ATOM     18  H   UNL     1      36.056 -20.863 -21.068  0.00  0.00    +0.174 HD
ENDBRANCH  10  15
BRANCH   8  19
ATOM     19  O   UNL     1      33.683 -13.919 -20.302  0.00  0.00    -0.505 OA
ATOM     20  H   UNL     1      34.190 -13.249 -19.887  0.00  0.00    +0.292 HD
ENDBRANCH   8  19
ENDBRANCH   6   7
BRANCH   3  21
ATOM     21  O   UNL     1      31.514  -9.389 -23.532  0.00  0.00    -0.463 OA
BRANCH  21  27
ATOM     22  N   UNL     1      32.455  -5.271 -23.440  0.00  0.00    +0.389 N 
ATOM     23  C   UNL     1      31.928  -5.872 -22.207  0.00  0.00    -0.042 C 
ATOM     24  C   UNL     1      33.217  -6.109 -24.376  0.00  0.00    -0.042 C 
ATOM     25  C   UNL     1      31.305  -7.259 -22.455  0.00  0.00    +0.024 C 
ATOM     26  C   UNL     1      32.569  -7.492 -24.580  0.00  0.00    +0.024 C 
ATOM     27  C   UNL     1      32.213  -8.176 -23.265  0.00  0.00    +0.164 C 
ATOM     28  C   UNL     1      34.691  -6.246 -23.958  0.00  0.00    -0.021 C 
ATOM     29  C   UNL     1      30.814  -4.922 -21.720  0.00  0.00    -0.021 C 
ATOM     30  C   UNL     1      32.991  -5.934 -21.094  0.00  0.00    -0.021 C 
ATOM     31  C   UNL     1      33.193  -5.359 -25.724  0.00  0.00    -0.021 C 
ATOM     32  H   UNL     1      33.067  -4.504 -23.160  0.00  0.00    -0.084 HD
ATOM     33  H   UNL     1      31.617  -5.019 -23.964  0.00  0.00    -0.084 HD
ENDBRANCH  21  27
ENDBRANCH   3  21
TORSDOF 5
ENDMDL
MODEL 7
REMARK VINA RESULT:      -9.3      3.363     11.500
REMARK  Name = 135565042
REMARK  5 active torsions:
REMARK  status: ('A' for Active; 'I' for Inactive)
REMARK    1  A    between atoms: C_3  and  O_21
REMARK    2  A    between atoms: C_6  and  C_7
REMARK    3  A    between atoms: C_8  and  O_19
REMARK    4  A    between atoms: C_10  and  C_15
REMARK    5  A    between atoms: O_21  and  C_27
REMARK                            x       y       z     vdW  Elec       q    Type
REMARK                         _______ _______ _______ _____ _____    ______ ____
ROOT
ATOM      1  N   UNL     1      34.412 -18.981 -24.488  0.00  0.00    -0.110 NA
ATOM      2  N   UNL     1      34.466 -19.738 -23.359  0.00  0.00    -0.145 NA
ATOM      3  C   UNL     1      35.038 -17.785 -24.508  0.00  0.00    +0.244 C 
ATOM      4  C   UNL     1      35.737 -17.286 -23.428  0.00  0.00    +0.061 C 
ATOM      5  C   UNL     1      35.792 -18.056 -22.279  0.00  0.00    +0.026 C 
ATOM      6  C   UNL     1      35.143 -19.274 -22.287  0.00  0.00    +0.106 C 
ENDROOT
BRANCH   6   7
ATOM      7  C   UNL     1      35.150 -20.143 -21.136  0.00  0.00    +0.053 C 
ATOM      8  C   UNL     1      33.964 -20.682 -20.639  0.00  0.00    +0.135 C 
ATOM      9  C   UNL     1      36.365 -20.441 -20.519  0.00  0.00    +0.005 C 
ATOM     10  C   UNL     1      35.207 -21.818 -18.907  0.00  0.00    +0.006 C 
ATOM     11  C   UNL     1      33.992 -21.520 -19.524  0.00  0.00    +0.037 C 
ATOM     12  C   UNL     1      36.394 -21.278 -19.404  0.00  0.00    +0.000 C 
BRANCH  10  15
ATOM     13  N   UNL     1      35.912 -23.662 -15.928  0.00  0.00    -0.235 N 
ATOM     14  N   UNL     1      34.720 -24.236 -16.167  0.00  0.00    -0.180 NA
ATOM     15  C   UNL     1      35.236 -22.682 -17.760  0.00  0.00    +0.037 C 
ATOM     16  C   UNL     1      36.267 -22.725 -16.853  0.00  0.00    +0.081 C 
ATOM     17  C   UNL     1      34.312 -23.633 -17.287  0.00  0.00    +0.119 C 
ATOM     18  H   UNL     1      36.476 -23.898 -15.156  0.00  0.00    +0.174 HD
ENDBRANCH  10  15
BRANCH   8  19
ATOM     19  O   UNL     1      32.762 -20.407 -21.223  0.00  0.00    -0.505 OA
ATOM     20  H   UNL     1      32.657 -20.512 -22.148  0.00  0.00    +0.292 HD
ENDBRANCH   8  19
ENDBRANCH   6   7
BRANCH   3  21
ATOM     21  O   UNL     1      34.960 -17.055 -25.664  0.00  0.00    -0.463 OA
BRANCH  21  27
ATOM     22  N   UNL     1      32.946 -13.372 -25.186  0.00  0.00    +0.389 N 
ATOM     23  C   UNL     1      33.623 -13.931 -24.008  0.00  0.00    -0.042 C 
ATOM     24  C   UNL     1      33.470 -13.678 -26.524  0.00  0.00    -0.042 C 
ATOM     25  C   UNL     1      34.013 -15.408 -24.205  0.00  0.00    +0.024 C 
ATOM     26  C   UNL     1      33.864 -15.160 -26.672  0.00  0.00    +0.024 C 
ATOM     27  C   UNL     1      34.736 -15.655 -25.523  0.00  0.00    +0.164 C 
ATOM     28  C   UNL     1      34.640 -12.754 -26.910  0.00  0.00    -0.021 C 
ATOM     29  C   UNL     1      32.597 -13.851 -22.858  0.00  0.00    -0.021 C 
ATOM     30  C   UNL     1      34.841 -13.089 -23.588  0.00  0.00    -0.021 C 
ATOM     31  C   UNL     1      32.315 -13.383 -27.504  0.00  0.00    -0.021 C 
ATOM     32  H   UNL     1      32.961 -12.357 -25.085  0.00  0.00    -0.084 HD
ATOM     33  H   UNL     1      32.030 -13.820 -25.175  0.00  0.00    -0.084 HD
ENDBRANCH  21  27
ENDBRANCH   3  21
TORSDOF 5
ENDMDL
MODEL 8
REMARK VINA RESULT:      -9.3      8.194     14.441
REMARK  Name = 135565042
REMARK  5 active torsions:
REMARK  status: ('A' for Active; 'I' for Inactive)
REMARK    1  A    between atoms: C_3  and  O_21
REMARK    2  A    between atoms: C_6  and  C_7
REMARK    3  A    between atoms: C_8  and  O_19
REMARK    4  A    between atoms: C_10  and  C_15
REMARK    5  A    between atoms: O_21  and  C_27
REMARK                            x       y       z     vdW  Elec       q    Type
REMARK                         _______ _______ _______ _____ _____    ______ ____
ROOT
ATOM      1  N   UNL     1      32.907 -11.004 -23.630  0.00  0.00    -0.110 NA
ATOM      2  N   UNL     1      33.561 -12.180 -23.430  0.00  0.00    -0.145 NA
ATOM      3  C   UNL     1      31.814 -10.724 -22.888  0.00  0.00    +0.244 C 
ATOM      4  C   UNL     1      31.322 -11.582 -21.926  0.00  0.00    +0.061 C 
ATOM      5  C   UNL     1      31.987 -12.778 -21.721  0.00  0.00    +0.026 C 
ATOM      6  C   UNL     1      33.101 -13.038 -22.495  0.00  0.00    +0.106 C 
ENDROOT
BRANCH   6   7
ATOM      7  C   UNL     1      33.856 -14.257 -22.347  0.00  0.00    +0.053 C 
ATOM      8  C   UNL     1      34.281 -14.975 -23.465  0.00  0.00    +0.135 C 
ATOM      9  C   UNL     1      34.161 -14.716 -21.066  0.00  0.00    +0.005 C 
ATOM     10  C   UNL     1      35.316 -16.612 -22.020  0.00  0.00    +0.006 C 
ATOM     11  C   UNL     1      35.011 -16.152 -23.302  0.00  0.00    +0.037 C 
ATOM     12  C   UNL     1      34.890 -15.893 -20.902  0.00  0.00    +0.000 C 
BRANCH  10  15
ATOM     13  N   UNL     1      36.565 -19.900 -21.392  0.00  0.00    -0.235 N 
ATOM     14  N   UNL     1      37.740 -19.379 -21.787  0.00  0.00    -0.180 NA
ATOM     15  C   UNL     1      36.068 -17.823 -21.851  0.00  0.00    +0.037 C 
ATOM     16  C   UNL     1      35.533 -19.009 -21.413  0.00  0.00    +0.081 C 
ATOM     17  C   UNL     1      37.430 -18.110 -22.066  0.00  0.00    +0.119 C 
ATOM     18  H   UNL     1      36.461 -20.839 -21.113  0.00  0.00    +0.174 HD
ENDBRANCH  10  15
BRANCH   8  19
ATOM     19  O   UNL     1      33.997 -14.549 -24.729  0.00  0.00    -0.505 OA
ATOM     20  H   UNL     1      34.444 -14.927 -25.461  0.00  0.00    +0.292 HD
ENDBRANCH   8  19
ENDBRANCH   6   7
BRANCH   3  21
ATOM     21  O   UNL     1      31.186  -9.531 -23.120  0.00  0.00    -0.463 OA
BRANCH  21  27
ATOM     22  N   UNL     1      32.690  -5.652 -22.381  0.00  0.00    +0.389 N 
ATOM     23  C   UNL     1      33.392  -6.781 -21.755  0.00  0.00    -0.042 C 
ATOM     24  C   UNL     1      31.986  -5.864 -23.653  0.00  0.00    -0.042 C 
ATOM     25  C   UNL     1      32.568  -8.081 -21.806  0.00  0.00    +0.024 C 
ATOM     26  C   UNL     1      31.190  -7.183 -23.667  0.00  0.00    +0.024 C 
ATOM     27  C   UNL     1      32.016  -8.375 -23.196  0.00  0.00    +0.164 C 
ATOM     28  C   UNL     1      32.938  -5.781 -24.860  0.00  0.00    -0.021 C 
ATOM     29  C   UNL     1      33.584  -6.387 -20.276  0.00  0.00    -0.021 C 
ATOM     30  C   UNL     1      34.795  -6.991 -22.354  0.00  0.00    -0.021 C 
ATOM     31  C   UNL     1      30.988  -4.694 -23.779  0.00  0.00    -0.021 C 
ATOM     32  H   UNL     1      33.383  -4.921 -22.542  0.00  0.00    -0.084 HD
ATOM     33  H   UNL     1      31.942  -5.436 -21.722  0.00  0.00    -0.084 HD
ENDBRANCH  21  27
ENDBRANCH   3  21
TORSDOF 5
ENDMDL
MODEL 9
REMARK VINA RESULT:      -9.0      1.923      2.921
REMARK  Name = 135565042
REMARK  5 active torsions:
REMARK  status: ('A' for Active; 'I' for Inactive)
REMARK    1  A    between atoms: C_3  and  O_21
REMARK    2  A    between atoms: C_6  and  C_7
REMARK    3  A    between atoms: C_8  and  O_19
REMARK    4  A    between atoms: C_10  and  C_15
REMARK    5  A    between atoms: O_21  and  C_27
REMARK                            x       y       z     vdW  Elec       q    Type
REMARK                         _______ _______ _______ _____ _____    ______ ____
ROOT
ATOM      1  N   UNL     1      36.855 -22.747 -18.097  0.00  0.00    -0.110 NA
ATOM      2  N   UNL     1      36.454 -22.047 -19.192  0.00  0.00    -0.145 NA
ATOM      3  C   UNL     1      37.625 -22.136 -17.171  0.00  0.00    +0.244 C 
ATOM      4  C   UNL     1      38.028 -20.821 -17.281  0.00  0.00    +0.061 C 
ATOM      5  C   UNL     1      37.620 -20.108 -18.395  0.00  0.00    +0.026 C 
ATOM      6  C   UNL     1      36.835 -20.759 -19.325  0.00  0.00    +0.106 C 
ENDROOT
BRANCH   6   7
ATOM      7  C   UNL     1      36.362 -20.093 -20.514  0.00  0.00    +0.053 C 
ATOM      8  C   UNL     1      35.040 -20.235 -20.935  0.00  0.00    +0.135 C 
ATOM      9  C   UNL     1      37.246 -19.300 -21.245  0.00  0.00    +0.005 C 
ATOM     10  C   UNL     1      35.485 -18.790 -22.819  0.00  0.00    +0.006 C 
ATOM     11  C   UNL     1      34.601 -19.583 -22.087  0.00  0.00    +0.037 C 
ATOM     12  C   UNL     1      36.808 -18.649 -22.398  0.00  0.00    +0.000 C 
BRANCH  10  15
ATOM     13  N   UNL     1      34.719 -16.560 -25.505  0.00  0.00    -0.235 N 
ATOM     14  N   UNL     1      34.047 -17.612 -26.002  0.00  0.00    -0.180 NA
ATOM     15  C   UNL     1      35.034 -18.117 -24.005  0.00  0.00    +0.037 C 
ATOM     16  C   UNL     1      35.329 -16.811 -24.311  0.00  0.00    +0.081 C 
ATOM     17  C   UNL     1      34.242 -18.560 -25.082  0.00  0.00    +0.119 C 
ATOM     18  H   UNL     1      34.768 -15.689 -25.961  0.00  0.00    +0.174 HD
ENDBRANCH  10  15
BRANCH   8  19
ATOM     19  O   UNL     1      34.154 -21.004 -20.239  0.00  0.00    -0.505 OA
ATOM     20  H   UNL     1      33.975 -21.880 -20.518  0.00  0.00    +0.292 HD
ENDBRANCH   8  19
ENDBRANCH   6   7
BRANCH   3  21
ATOM     21  O   UNL     1      38.006 -22.875 -16.084  0.00  0.00    -0.463 OA
BRANCH  21  27
ATOM     22  N   UNL     1      35.280 -25.059 -13.706  0.00  0.00    +0.389 N 
ATOM     23  C   UNL     1      36.521 -24.601 -13.066  0.00  0.00    -0.042 C 
ATOM     24  C   UNL     1      34.720 -24.281 -14.820  0.00  0.00    -0.042 C 
ATOM     25  C   UNL     1      37.570 -24.134 -14.093  0.00  0.00    +0.024 C 
ATOM     26  C   UNL     1      35.805 -23.819 -15.813  0.00  0.00    +0.024 C 
ATOM     27  C   UNL     1      36.997 -23.166 -15.121  0.00  0.00    +0.164 C 
ATOM     28  C   UNL     1      33.881 -23.089 -14.326  0.00  0.00    -0.021 C 
ATOM     29  C   UNL     1      37.086 -25.829 -12.321  0.00  0.00    -0.021 C 
ATOM     30  C   UNL     1      36.258 -23.512 -12.010  0.00  0.00    -0.021 C 
ATOM     31  C   UNL     1      33.762 -25.238 -15.559  0.00  0.00    -0.021 C 
ATOM     32  H   UNL     1      34.565 -25.096 -12.979  0.00  0.00    -0.084 HD
ATOM     33  H   UNL     1      35.542 -25.946 -14.137  0.00  0.00    -0.084 HD
ENDBRANCH  21  27
ENDBRANCH   3  21
TORSDOF 5
ENDMDL
