MODEL 1
REMARK VINA RESULT:     -13.3      0.000      0.000
REMARK  Name = 10074640
REMARK  6 active torsions:
REMARK  status: ('A' for Active; 'I' for Inactive)
REMARK    1  A    between atoms: N_2  and  C_5
REMARK    2  A    between atoms: C_3  and  C_30
REMARK    3  A    between atoms: C_6  and  N_13
REMARK    4  A    between atoms: C_16  and  C_20
REMARK    5  A    between atoms: C_25  and  C_31
REMARK    6  A    between atoms: C_31  and  N_32
REMARK                            x       y       z     vdW  Elec       q    Type
REMARK                         _______ _______ _______ _____ _____    ______ ____
ROOT
ATOM      1  O   UNL     1      33.834 -23.836 -19.383  0.00  0.00    -0.270 OA
ATOM      2  N   UNL     1      33.565 -22.255 -17.670  0.00  0.00    -0.280 N 
ATOM      3  C   UNL     1      33.961 -22.681 -18.945  0.00  0.00    +0.249 C 
ATOM      4  H   UNL     1      33.732 -21.306 -17.466  0.00  0.00    +0.155 HD
ENDROOT
BRANCH   2   5
ATOM      5  C   UNL     1      32.957 -23.010 -16.638  0.00  0.00    +0.052 C 
ATOM      6  C   UNL     1      33.012 -23.893 -14.410  0.00  0.00    +0.048 C 
ATOM      7  C   UNL     1      33.612 -23.150 -15.427  0.00  0.00    +0.029 C 
ATOM      8  C   UNL     1      31.766 -24.484 -14.620  0.00  0.00    -0.008 C 
ATOM      9  C   UNL     1      31.720 -23.589 -16.863  0.00  0.00    +0.014 C 
ATOM     10  C   UNL     1      31.120 -24.332 -15.848  0.00  0.00    -0.002 C 
ATOM     11  C   UNL     1      31.101 -25.285 -13.549  0.00  0.00    +0.032 C 
BRANCH   6  13
ATOM     12  S   UNL     1      35.465 -24.625 -11.292  0.00  0.00    -0.059 S 
ATOM     13  N   UNL     1      33.679 -24.036 -13.174  0.00  0.00    -0.283 N 
ATOM     14  N   UNL     1      35.912 -24.451 -13.833  0.00  0.00    -0.384 NA
ATOM     15  C   UNL     1      34.985 -24.348 -12.913  0.00  0.00    +0.211 C 
ATOM     16  C   UNL     1      37.107 -24.777 -13.219  0.00  0.00    +0.124 C 
ATOM     17  C   UNL     1      37.062 -24.913 -11.848  0.00  0.00    +0.125 C 
ATOM     18  H   UNL     1      33.119 -23.888 -12.378  0.00  0.00    +0.155 HD
BRANCH  16  20
ATOM     19  N   UNL     1      39.677 -24.332 -15.867  0.00  0.00    -0.242 NA
ATOM     20  C   UNL     1      38.313 -24.959 -13.973  0.00  0.00    +0.046 C 
ATOM     21  C   UNL     1      39.267 -25.892 -13.584  0.00  0.00    +0.005 C 
ATOM     22  C   UNL     1      38.562 -24.210 -15.112  0.00  0.00    +0.101 C 
ATOM     23  C   UNL     1      40.427 -26.046 -14.336  0.00  0.00    +0.021 C 
ATOM     24  C   UNL     1      40.582 -25.248 -15.458  0.00  0.00    +0.099 C 
ENDBRANCH  16  20
ENDBRANCH   6  13
ENDBRANCH   2   5
BRANCH   3  30
ATOM     25  C   UNL     1      35.788 -19.748 -21.386  0.00  0.00    -0.043 C 
ATOM     26  C   UNL     1      36.580 -20.568 -20.594  0.00  0.00    -0.006 C 
ATOM     27  C   UNL     1      34.406 -19.878 -21.391  0.00  0.00    -0.006 C 
ATOM     28  C   UNL     1      35.977 -21.535 -19.789  0.00  0.00    +0.004 C 
ATOM     29  C   UNL     1      33.804 -20.845 -20.587  0.00  0.00    +0.004 C 
ATOM     30  C   UNL     1      34.589 -21.673 -19.786  0.00  0.00    +0.054 C 
BRANCH  25  31
ATOM     31  C   UNL     1      36.439 -18.706 -22.257  0.00  0.00    -0.050 C 
BRANCH  31  32
ATOM     32  N   UNL     1      35.457 -17.979 -23.060  0.00  0.00    +0.387 N 
ATOM     33  N   UNL     1      34.692 -16.233 -25.234  0.00  0.00    +0.383 N 
ATOM     34  C   UNL     1      35.698 -16.533 -22.997  0.00  0.00    -0.100 C 
ATOM     35  C   UNL     1      35.480 -18.441 -24.453  0.00  0.00    -0.100 C 
ATOM     36  C   UNL     1      34.671 -15.771 -23.841  0.00  0.00    -0.101 C 
ATOM     37  C   UNL     1      34.451 -17.680 -25.297  0.00  0.00    -0.101 C 
ATOM     38  C   UNL     1      33.709 -15.509 -26.037  0.00  0.00    -0.101 C 
ATOM     39  H   UNL     1      34.532 -18.168 -22.674  0.00  0.00    -0.079 HD
ATOM     40  H   UNL     1      35.616 -16.043 -25.622  0.00  0.00    -0.080 HD
ENDBRANCH  31  32
ENDBRANCH  25  31
ENDBRANCH   3  30
TORSDOF 6
ENDMDL
MODEL 2
REMARK VINA RESULT:     -10.7      6.555     11.310
REMARK  Name = 10074640
REMARK  6 active torsions:
REMARK  status: ('A' for Active; 'I' for Inactive)
REMARK    1  A    between atoms: N_2  and  C_5
REMARK    2  A    between atoms: C_3  and  C_30
REMARK    3  A    between atoms: C_6  and  N_13
REMARK    4  A    between atoms: C_16  and  C_20
REMARK    5  A    between atoms: C_25  and  C_31
REMARK    6  A    between atoms: C_31  and  N_32
REMARK                            x       y       z     vdW  Elec       q    Type
REMARK                         _______ _______ _______ _____ _____    ______ ____
ROOT
ATOM      1  O   UNL     1      32.275 -13.845 -21.557  0.00  0.00    -0.270 OA
ATOM      2  N   UNL     1      33.557 -13.197 -23.412  0.00  0.00    -0.280 N 
ATOM      3  C   UNL     1      32.782 -12.963 -22.268  0.00  0.00    +0.249 C 
ATOM      4  H   UNL     1      33.892 -12.394 -23.873  0.00  0.00    +0.155 HD
ENDROOT
BRANCH   2   5
ATOM      5  C   UNL     1      33.921 -14.437 -23.991  0.00  0.00    +0.052 C 
ATOM      6  C   UNL     1      35.364 -16.351 -24.053  0.00  0.00    +0.048 C 
ATOM      7  C   UNL     1      35.007 -15.129 -23.482  0.00  0.00    +0.029 C 
ATOM      8  C   UNL     1      34.629 -16.863 -25.122  0.00  0.00    -0.008 C 
ATOM      9  C   UNL     1      33.181 -14.931 -25.052  0.00  0.00    +0.014 C 
ATOM     10  C   UNL     1      33.537 -16.152 -25.623  0.00  0.00    -0.002 C 
ATOM     11  C   UNL     1      34.990 -18.168 -25.752  0.00  0.00    +0.032 C 
BRANCH   6  13
ATOM     12  S   UNL     1      38.034 -18.621 -22.055  0.00  0.00    -0.059 S 
ATOM     13  N   UNL     1      36.471 -17.057 -23.534  0.00  0.00    -0.283 N 
ATOM     14  N   UNL     1      35.451 -18.685 -22.156  0.00  0.00    -0.384 NA
ATOM     15  C   UNL     1      36.513 -18.079 -22.627  0.00  0.00    +0.211 C 
ATOM     16  C   UNL     1      35.860 -19.661 -21.267  0.00  0.00    +0.124 C 
ATOM     17  C   UNL     1      37.222 -19.776 -21.083  0.00  0.00    +0.125 C 
ATOM     18  H   UNL     1      37.347 -16.769 -23.879  0.00  0.00    +0.155 HD
BRANCH  16  20
ATOM     19  N   UNL     1      32.616 -20.978 -20.018  0.00  0.00    -0.242 NA
ATOM     20  C   UNL     1      34.916 -20.498 -20.585  0.00  0.00    +0.046 C 
ATOM     21  C   UNL     1      35.336 -21.600 -19.850  0.00  0.00    +0.005 C 
ATOM     22  C   UNL     1      33.558 -20.231 -20.637  0.00  0.00    +0.101 C 
ATOM     23  C   UNL     1      34.398 -22.393 -19.199  0.00  0.00    +0.021 C 
ATOM     24  C   UNL     1      33.062 -22.042 -19.313  0.00  0.00    +0.099 C 
ENDBRANCH  16  20
ENDBRANCH   6  13
ENDBRANCH   2   5
BRANCH   3  30
ATOM     25  C   UNL     1      32.123  -8.901 -21.286  0.00  0.00    -0.043 C 
ATOM     26  C   UNL     1      32.468  -9.242 -22.587  0.00  0.00    -0.006 C 
ATOM     27  C   UNL     1      31.991  -9.872 -20.303  0.00  0.00    -0.006 C 
ATOM     28  C   UNL     1      32.684 -10.582 -22.910  0.00  0.00    +0.004 C 
ATOM     29  C   UNL     1      32.207 -11.211 -20.626  0.00  0.00    +0.004 C 
ATOM     30  C   UNL     1      32.554 -11.566 -21.930  0.00  0.00    +0.054 C 
BRANCH  25  31
ATOM     31  C   UNL     1      31.887  -7.455 -20.937  0.00  0.00    -0.050 C 
BRANCH  31  32
ATOM     32  N   UNL     1      31.800  -6.615 -22.130  0.00  0.00    +0.387 N 
ATOM     33  N   UNL     1      32.184  -4.139 -23.572  0.00  0.00    +0.383 N 
ATOM     34  C   UNL     1      30.939  -5.451 -21.888  0.00  0.00    -0.100 C 
ATOM     35  C   UNL     1      33.135  -6.184 -22.563  0.00  0.00    -0.100 C 
ATOM     36  C   UNL     1      30.849  -4.569 -23.138  0.00  0.00    -0.101 C 
ATOM     37  C   UNL     1      33.044  -5.303 -23.814  0.00  0.00    -0.101 C 
ATOM     38  C   UNL     1      32.097  -3.301 -24.766  0.00  0.00    -0.101 C 
ATOM     39  H   UNL     1      31.385  -7.173 -22.877  0.00  0.00    -0.079 HD
ATOM     40  H   UNL     1      32.600  -3.580 -22.826  0.00  0.00    -0.080 HD
ENDBRANCH  31  32
ENDBRANCH  25  31
ENDBRANCH   3  30
TORSDOF 6
ENDMDL
