MODEL 1
REMARK VINA RESULT:     -11.9      0.000      0.000
REMARK  Name = 46937091
REMARK  8 active torsions:
REMARK  status: ('A' for Active; 'I' for Inactive)
REMARK    1  A    between atoms: C_1  and  C_4
REMARK    2  A    between atoms: C_1  and  C_18
REMARK    3  A    between atoms: C_10  and  C_12
REMARK    4  A    between atoms: C_18  and  C_19
REMARK    5  A    between atoms: C_19  and  N_20
REMARK    6  A    between atoms: C_19  and  C_30
REMARK    7  A    between atoms: C_24  and  C_27
REMARK    8  A    between atoms: C_30  and  O_32
REMARK                            x       y       z     vdW  Elec       q    Type
REMARK                         _______ _______ _______ _____ _____    ______ ____
ROOT
ATOM      1  C   UNL     1      34.944 -24.805 -14.652  0.00  0.00    +0.031 C 
ENDROOT
BRANCH   1   4
ATOM      2  O   UNL     1      34.021 -23.181 -17.073  0.00  0.00    -0.425 OA
ATOM      3  N   UNL     1      31.895 -22.750 -17.729  0.00  0.00    -0.368 NA
ATOM      4  C   UNL     1      33.521 -24.534 -15.067  0.00  0.00    +0.014 C 
ATOM      5  C   UNL     1      33.177 -23.782 -16.185  0.00  0.00    +0.170 C 
ATOM      6  C   UNL     1      32.448 -25.039 -14.325  0.00  0.00    -0.005 C 
ATOM      7  C   UNL     1      31.877 -23.517 -16.590  0.00  0.00    +0.151 C 
ATOM      8  C   UNL     1      31.121 -24.794 -14.699  0.00  0.00    -0.019 C 
ATOM      9  C   UNL     1      30.813 -24.031 -15.835  0.00  0.00    +0.088 C 
ATOM     10  C   UNL     1      33.179 -22.586 -17.963  0.00  0.00    +0.282 C 
BRANCH  10  12
ATOM     11 CL   UNL     1      35.852 -19.609 -22.363  0.00  0.00    -0.082 Cl
ATOM     12  C   UNL     1      33.824 -21.866 -19.026  0.00  0.00    +0.066 C 
ATOM     13  C   UNL     1      35.203 -21.978 -19.207  0.00  0.00    +0.007 C 
ATOM     14  C   UNL     1      33.073 -21.057 -19.878  0.00  0.00    +0.007 C 
ATOM     15  C   UNL     1      35.830 -21.280 -20.239  0.00  0.00    +0.012 C 
ATOM     16  C   UNL     1      33.700 -20.359 -20.910  0.00  0.00    +0.012 C 
ATOM     17  C   UNL     1      35.078 -20.471 -21.090  0.00  0.00    +0.058 C 
ENDBRANCH  10  12
ENDBRANCH   1   4
BRANCH   1  18
ATOM     18  C   UNL     1      35.262 -24.434 -13.193  0.00  0.00    +0.023 C 
BRANCH  18  19
ATOM     19  C   UNL     1      36.583 -23.644 -12.988  0.00  0.00    +0.087 C 
BRANCH  19  20
ATOM     20  N   UNL     1      37.686 -24.083 -13.942  0.00  0.00    -0.246 NA
ATOM     21  N   UNL     1      38.999 -24.109 -15.733  0.00  0.00    -0.251 NA
ATOM     22  C   UNL     1      38.547 -25.127 -13.760  0.00  0.00    +0.125 C 
ATOM     23  C   UNL     1      37.995 -23.501 -15.140  0.00  0.00    +0.201 C 
ATOM     24  C   UNL     1      39.348 -25.124 -14.877  0.00  0.00    +0.124 C 
BRANCH  24  27
ATOM     25  O   UNL     1      40.880 -26.190 -16.313  0.00  0.00    -0.269 OA
ATOM     26  N   UNL     1      40.967 -26.767 -14.096  0.00  0.00    -0.324 N 
ATOM     27  C   UNL     1      40.413 -26.035 -15.157  0.00  0.00    +0.257 C 
ATOM     28  H   UNL     1      41.701 -27.401 -14.264  0.00  0.00    +0.145 HD
ATOM     29  H   UNL     1      40.620 -26.648 -13.182  0.00  0.00    +0.145 HD
ENDBRANCH  24  27
ENDBRANCH  19  20
BRANCH  19  30
ATOM     30  C   UNL     1      37.018 -23.692 -11.498  0.00  0.00    +0.125 C 
ATOM     31  C   UNL     1      35.958 -24.268 -10.565  0.00  0.00    +0.033 C 
BRANCH  30  32
ATOM     32  O   UNL     1      37.394 -22.395 -11.039  0.00  0.00    -0.383 OA
ATOM     33  H   UNL     1      38.339 -22.255 -11.206  0.00  0.00    +0.210 HD
ENDBRANCH  30  32
ENDBRANCH  19  30
ENDBRANCH  18  19
ENDBRANCH   1  18
TORSDOF 8
ENDMDL
MODEL 2
REMARK VINA RESULT:     -11.3      3.478      7.518
REMARK  Name = 46937091
REMARK  8 active torsions:
REMARK  status: ('A' for Active; 'I' for Inactive)
REMARK    1  A    between atoms: C_1  and  C_4
REMARK    2  A    between atoms: C_1  and  C_18
REMARK    3  A    between atoms: C_10  and  C_12
REMARK    4  A    between atoms: C_18  and  C_19
REMARK    5  A    between atoms: C_19  and  N_20
REMARK    6  A    between atoms: C_19  and  C_30
REMARK    7  A    between atoms: C_24  and  C_27
REMARK    8  A    between atoms: C_30  and  O_32
REMARK                            x       y       z     vdW  Elec       q    Type
REMARK                         _______ _______ _______ _____ _____    ______ ____
ROOT
ATOM      1  C   UNL     1      32.994 -23.707 -17.087  0.00  0.00    +0.031 C 
ENDROOT
BRANCH   1   4
ATOM      2  O   UNL     1      34.892 -21.969 -18.738  0.00  0.00    -0.425 OA
ATOM      3  N   UNL     1      37.084 -21.546 -18.348  0.00  0.00    -0.368 NA
ATOM      4  C   UNL     1      34.451 -23.442 -16.803  0.00  0.00    +0.014 C 
ATOM      5  C   UNL     1      35.254 -22.637 -17.604  0.00  0.00    +0.170 C 
ATOM      6  C   UNL     1      35.081 -24.010 -15.691  0.00  0.00    -0.005 C 
ATOM      7  C   UNL     1      36.595 -22.376 -17.367  0.00  0.00    +0.151 C 
ATOM      8  C   UNL     1      36.433 -23.772 -15.417  0.00  0.00    -0.019 C 
ATOM      9  C   UNL     1      37.212 -22.953 -16.248  0.00  0.00    +0.088 C 
ATOM     10  C   UNL     1      36.040 -21.343 -19.120  0.00  0.00    +0.282 C 
BRANCH  10  12
ATOM     11 CL   UNL     1      35.600 -18.072 -24.067  0.00  0.00    -0.082 Cl
ATOM     12  C   UNL     1      35.934 -20.552 -20.315  0.00  0.00    +0.066 C 
ATOM     13  C   UNL     1      34.741 -20.536 -21.037  0.00  0.00    +0.007 C 
ATOM     14  C   UNL     1      37.024 -19.801 -20.754  0.00  0.00    +0.007 C 
ATOM     15  C   UNL     1      34.638 -19.769 -22.197  0.00  0.00    +0.012 C 
ATOM     16  C   UNL     1      36.921 -19.034 -21.914  0.00  0.00    +0.012 C 
ATOM     17  C   UNL     1      35.727 -19.018 -22.636  0.00  0.00    +0.058 C 
ENDBRANCH  10  12
ENDBRANCH   1   4
BRANCH   1  18
ATOM     18  C   UNL     1      32.023 -23.058 -16.085  0.00  0.00    +0.023 C 
BRANCH  18  19
ATOM     19  C   UNL     1      30.893 -23.988 -15.567  0.00  0.00    +0.087 C 
BRANCH  19  20
ATOM     20  N   UNL     1      29.544 -23.688 -16.209  0.00  0.00    -0.246 NA
ATOM     21  N   UNL     1      27.824 -23.844 -17.605  0.00  0.00    -0.251 NA
ATOM     22  C   UNL     1      28.656 -22.729 -15.815  0.00  0.00    +0.125 C 
ATOM     23  C   UNL     1      29.003 -24.332 -17.287  0.00  0.00    +0.201 C 
ATOM     24  C   UNL     1      27.601 -22.844 -16.691  0.00  0.00    +0.124 C 
BRANCH  24  27
ATOM     25  O   UNL     1      25.576 -22.091 -15.752  0.00  0.00    -0.269 OA
ATOM     26  N   UNL     1      26.182 -21.184 -17.769  0.00  0.00    -0.324 N 
ATOM     27  C   UNL     1      26.412 -22.051 -16.690  0.00  0.00    +0.257 C 
ATOM     28  H   UNL     1      25.369 -20.628 -17.791  0.00  0.00    +0.145 HD
ATOM     29  H   UNL     1      26.833 -21.132 -18.506  0.00  0.00    +0.145 HD
ENDBRANCH  24  27
ENDBRANCH  19  20
BRANCH  19  30
ATOM     30  C   UNL     1      30.842 -23.969 -14.016  0.00  0.00    +0.125 C 
ATOM     31  C   UNL     1      32.133 -23.486 -13.362  0.00  0.00    +0.033 C 
BRANCH  30  32
ATOM     32  O   UNL     1      30.511 -25.259 -13.505  0.00  0.00    -0.383 OA
ATOM     33  H   UNL     1      31.229 -25.879 -13.704  0.00  0.00    +0.210 HD
ENDBRANCH  30  32
ENDBRANCH  19  30
ENDBRANCH  18  19
ENDBRANCH   1  18
TORSDOF 8
ENDMDL
MODEL 3
REMARK VINA RESULT:     -11.1     10.922     14.841
REMARK  Name = 46937091
REMARK  8 active torsions:
REMARK  status: ('A' for Active; 'I' for Inactive)
REMARK    1  A    between atoms: C_1  and  C_4
REMARK    2  A    between atoms: C_1  and  C_18
REMARK    3  A    between atoms: C_10  and  C_12
REMARK    4  A    between atoms: C_18  and  C_19
REMARK    5  A    between atoms: C_19  and  N_20
REMARK    6  A    between atoms: C_19  and  C_30
REMARK    7  A    between atoms: C_24  and  C_27
REMARK    8  A    between atoms: C_30  and  O_32
REMARK                            x       y       z     vdW  Elec       q    Type
REMARK                         _______ _______ _______ _____ _____    ______ ____
ROOT
ATOM      1  C   UNL     1      32.198 -13.004 -22.403  0.00  0.00    +0.031 C 
ENDROOT
BRANCH   1   4
ATOM      2  O   UNL     1      32.502  -9.962 -22.402  0.00  0.00    -0.425 OA
ATOM      3  N   UNL     1      32.367  -8.552 -20.633  0.00  0.00    -0.368 NA
ATOM      4  C   UNL     1      32.102 -12.089 -21.209  0.00  0.00    +0.014 C 
ATOM      5  C   UNL     1      32.253 -10.709 -21.287  0.00  0.00    +0.170 C 
ATOM      6  C   UNL     1      31.852 -12.599 -19.931  0.00  0.00    -0.005 C 
ATOM      7  C   UNL     1      32.170  -9.843 -20.206  0.00  0.00    +0.151 C 
ATOM      8  C   UNL     1      31.761 -11.759 -18.814  0.00  0.00    -0.019 C 
ATOM      9  C   UNL     1      31.918 -10.370 -18.932  0.00  0.00    +0.088 C 
ATOM     10  C   UNL     1      32.556  -8.686 -21.927  0.00  0.00    +0.282 C 
BRANCH  10  12
ATOM     11 CL   UNL     1      33.613  -4.510 -26.028  0.00  0.00    -0.082 Cl
ATOM     12  C   UNL     1      32.812  -7.677 -22.918  0.00  0.00    +0.066 C 
ATOM     13  C   UNL     1      31.748  -7.061 -23.576  0.00  0.00    +0.007 C 
ATOM     14  C   UNL     1      34.124  -7.314 -23.221  0.00  0.00    +0.007 C 
ATOM     15  C   UNL     1      31.996  -6.082 -24.538  0.00  0.00    +0.012 C 
ATOM     16  C   UNL     1      34.372  -6.335 -24.183  0.00  0.00    +0.012 C 
ATOM     17  C   UNL     1      33.307  -5.718 -24.841  0.00  0.00    +0.058 C 
ENDBRANCH  10  12
ENDBRANCH   1   4
BRANCH   1  18
ATOM     18  C   UNL     1      33.605 -13.103 -23.017  0.00  0.00    +0.023 C 
BRANCH  18  19
ATOM     19  C   UNL     1      33.641 -13.480 -24.522  0.00  0.00    +0.087 C 
BRANCH  19  20
ATOM     20  N   UNL     1      34.150 -14.895 -24.763  0.00  0.00    -0.246 NA
ATOM     21  N   UNL     1      34.678 -16.760 -25.847  0.00  0.00    -0.251 NA
ATOM     22  C   UNL     1      34.657 -15.744 -23.821  0.00  0.00    +0.125 C 
ATOM     23  C   UNL     1      34.182 -15.548 -25.963  0.00  0.00    +0.201 C 
ATOM     24  C   UNL     1      34.977 -16.889 -24.513  0.00  0.00    +0.124 C 
BRANCH  24  27
ATOM     25  O   UNL     1      35.016 -19.209 -24.113  0.00  0.00    -0.269 OA
ATOM     26  N   UNL     1      36.744 -17.980 -23.241  0.00  0.00    -0.324 N 
ATOM     27  C   UNL     1      35.545 -18.079 -23.961  0.00  0.00    +0.257 C 
ATOM     28  H   UNL     1      37.154 -18.787 -22.852  0.00  0.00    +0.145 HD
ATOM     29  H   UNL     1      37.177 -17.104 -23.124  0.00  0.00    +0.145 HD
ENDBRANCH  24  27
ENDBRANCH  19  20
BRANCH  19  30
ATOM     30  C   UNL     1      34.423 -12.410 -25.332  0.00  0.00    +0.125 C 
ATOM     31  C   UNL     1      34.507 -11.054 -24.640  0.00  0.00    +0.033 C 
BRANCH  30  32
ATOM     32  O   UNL     1      33.855 -12.241 -26.629  0.00  0.00    -0.383 OA
ATOM     33  H   UNL     1      33.352 -11.412 -26.656  0.00  0.00    +0.210 HD
ENDBRANCH  30  32
ENDBRANCH  19  30
ENDBRANCH  18  19
ENDBRANCH   1  18
TORSDOF 8
ENDMDL
MODEL 4
REMARK VINA RESULT:     -10.5     11.291     15.248
REMARK  Name = 46937091
REMARK  8 active torsions:
REMARK  status: ('A' for Active; 'I' for Inactive)
REMARK    1  A    between atoms: C_1  and  C_4
REMARK    2  A    between atoms: C_1  and  C_18
REMARK    3  A    between atoms: C_10  and  C_12
REMARK    4  A    between atoms: C_18  and  C_19
REMARK    5  A    between atoms: C_19  and  N_20
REMARK    6  A    between atoms: C_19  and  C_30
REMARK    7  A    between atoms: C_24  and  C_27
REMARK    8  A    between atoms: C_30  and  O_32
REMARK                            x       y       z     vdW  Elec       q    Type
REMARK                         _______ _______ _______ _____ _____    ______ ____
ROOT
ATOM      1  C   UNL     1      32.336 -13.011 -21.982  0.00  0.00    +0.031 C 
ENDROOT
BRANCH   1   4
ATOM      2  O   UNL     1      32.521  -9.968 -22.224  0.00  0.00    -0.425 OA
ATOM      3  N   UNL     1      32.221  -8.423 -20.593  0.00  0.00    -0.368 NA
ATOM      4  C   UNL     1      32.131 -12.004 -20.879  0.00  0.00    +0.014 C 
ATOM      5  C   UNL     1      32.232 -10.630 -21.065  0.00  0.00    +0.170 C 
ATOM      6  C   UNL     1      31.821 -12.417 -19.578  0.00  0.00    -0.005 C 
ATOM      7  C   UNL     1      32.049  -9.682 -20.070  0.00  0.00    +0.151 C 
ATOM      8  C   UNL     1      31.629 -11.492 -18.545  0.00  0.00    -0.019 C 
ATOM      9  C   UNL     1      31.739 -10.112 -18.772  0.00  0.00    +0.088 C 
ATOM     10  C   UNL     1      32.495  -8.657 -21.858  0.00  0.00    +0.282 C 
BRANCH  10  12
ATOM     11 CL   UNL     1      33.642  -4.794 -26.232  0.00  0.00    -0.082 Cl
ATOM     12  C   UNL     1      32.773  -7.723 -22.914  0.00  0.00    +0.066 C 
ATOM     13  C   UNL     1      31.744  -7.293 -23.752  0.00  0.00    +0.007 C 
ATOM     14  C   UNL     1      34.070  -7.247 -23.102  0.00  0.00    +0.007 C 
ATOM     15  C   UNL     1      32.013  -6.387 -24.778  0.00  0.00    +0.012 C 
ATOM     16  C   UNL     1      34.339  -6.341 -24.128  0.00  0.00    +0.012 C 
ATOM     17  C   UNL     1      33.310  -5.911 -24.966  0.00  0.00    +0.058 C 
ENDBRANCH  10  12
ENDBRANCH   1   4
BRANCH   1  18
ATOM     18  C   UNL     1      33.314 -14.146 -21.632  0.00  0.00    +0.023 C 
BRANCH  18  19
ATOM     19  C   UNL     1      34.525 -14.291 -22.592  0.00  0.00    +0.087 C 
BRANCH  19  20
ATOM     20  N   UNL     1      34.305 -13.590 -23.927  0.00  0.00    -0.246 NA
ATOM     21  N   UNL     1      34.186 -11.952 -25.422  0.00  0.00    -0.251 NA
ATOM     22  C   UNL     1      33.932 -14.182 -25.100  0.00  0.00    +0.125 C 
ATOM     23  C   UNL     1      34.446 -12.252 -24.169  0.00  0.00    +0.201 C 
ATOM     24  C   UNL     1      33.865 -13.151 -26.009  0.00  0.00    +0.124 C 
BRANCH  24  27
ATOM     25  O   UNL     1      34.317 -13.686 -28.257  0.00  0.00    -0.269 OA
ATOM     26  N   UNL     1      32.214 -12.906 -27.782  0.00  0.00    -0.324 N 
ATOM     27  C   UNL     1      33.512 -13.264 -27.390  0.00  0.00    +0.257 C 
ATOM     28  H   UNL     1      31.948 -12.976 -28.728  0.00  0.00    +0.145 HD
ATOM     29  H   UNL     1      31.568 -12.586 -27.112  0.00  0.00    +0.145 HD
ENDBRANCH  24  27
ENDBRANCH  19  20
BRANCH  19  30
ATOM     30  C   UNL     1      34.917 -15.785 -22.750  0.00  0.00    +0.125 C 
ATOM     31  C   UNL     1      35.224 -16.484 -21.431  0.00  0.00    +0.033 C 
BRANCH  30  32
ATOM     32  O   UNL     1      36.033 -15.925 -23.627  0.00  0.00    -0.383 OA
ATOM     33  H   UNL     1      35.733 -16.285 -24.477  0.00  0.00    +0.210 HD
ENDBRANCH  30  32
ENDBRANCH  19  30
ENDBRANCH  18  19
ENDBRANCH   1  18
TORSDOF 8
ENDMDL
MODEL 5
REMARK VINA RESULT:     -10.0     10.896     15.874
REMARK  Name = 46937091
REMARK  8 active torsions:
REMARK  status: ('A' for Active; 'I' for Inactive)
REMARK    1  A    between atoms: C_1  and  C_4
REMARK    2  A    between atoms: C_1  and  C_18
REMARK    3  A    between atoms: C_10  and  C_12
REMARK    4  A    between atoms: C_18  and  C_19
REMARK    5  A    between atoms: C_19  and  N_20
REMARK    6  A    between atoms: C_19  and  C_30
REMARK    7  A    between atoms: C_24  and  C_27
REMARK    8  A    between atoms: C_30  and  O_32
REMARK                            x       y       z     vdW  Elec       q    Type
REMARK                         _______ _______ _______ _____ _____    ______ ____
ROOT
ATOM      1  C   UNL     1      34.026 -12.008 -23.784  0.00  0.00    +0.031 C 
ENDROOT
BRANCH   1   4
ATOM      2  O   UNL     1      34.556 -15.010 -24.028  0.00  0.00    -0.425 OA
ATOM      3  N   UNL     1      34.458 -16.291 -25.895  0.00  0.00    -0.368 NA
ATOM      4  C   UNL     1      33.952 -12.837 -25.040  0.00  0.00    +0.014 C 
ATOM      5  C   UNL     1      34.209 -14.203 -25.074  0.00  0.00    +0.170 C 
ATOM      6  C   UNL     1      33.615 -12.255 -26.267  0.00  0.00    -0.005 C 
ATOM      7  C   UNL     1      34.149 -14.991 -26.215  0.00  0.00    +0.151 C 
ATOM      8  C   UNL     1      33.543 -13.014 -27.441  0.00  0.00    -0.019 C 
ATOM      9  C   UNL     1      33.808 -14.391 -27.435  0.00  0.00    +0.088 C 
ATOM     10  C   UNL     1      34.686 -16.238 -24.601  0.00  0.00    +0.282 C 
BRANCH  10  12
ATOM     11 CL   UNL     1      36.216 -20.610 -20.871  0.00  0.00    -0.082 Cl
ATOM     12  C   UNL     1      35.056 -17.295 -23.700  0.00  0.00    +0.066 C 
ATOM     13  C   UNL     1      35.608 -16.989 -22.457  0.00  0.00    +0.007 C 
ATOM     14  C   UNL     1      34.861 -18.626 -24.068  0.00  0.00    +0.007 C 
ATOM     15  C   UNL     1      35.967 -18.014 -21.582  0.00  0.00    +0.012 C 
ATOM     16  C   UNL     1      35.220 -19.651 -23.194  0.00  0.00    +0.012 C 
ATOM     17  C   UNL     1      35.773 -19.345 -21.950  0.00  0.00    +0.058 C 
ENDBRANCH  10  12
ENDBRANCH   1   4
BRANCH   1  18
ATOM     18  C   UNL     1      33.824 -10.499 -24.006  0.00  0.00    +0.023 C 
BRANCH  18  19
ATOM     19  C   UNL     1      32.557  -9.900 -23.339  0.00  0.00    +0.087 C 
BRANCH  19  20
ATOM     20  N   UNL     1      32.593  -8.379 -23.266  0.00  0.00    -0.246 NA
ATOM     21  N   UNL     1      33.420  -6.319 -23.190  0.00  0.00    -0.251 NA
ATOM     22  C   UNL     1      31.514  -7.546 -23.192  0.00  0.00    +0.125 C 
ATOM     23  C   UNL     1      33.716  -7.598 -23.262  0.00  0.00    +0.201 C 
ATOM     24  C   UNL     1      32.048  -6.279 -23.146  0.00  0.00    +0.124 C 
BRANCH  24  27
ATOM     25  O   UNL     1      31.170  -4.289 -24.049  0.00  0.00    -0.269 OA
ATOM     26  N   UNL     1      30.721  -4.709 -21.840  0.00  0.00    -0.324 N 
ATOM     27  C   UNL     1      31.314  -5.055 -23.063  0.00  0.00    +0.257 C 
ATOM     28  H   UNL     1      30.211  -3.870 -21.759  0.00  0.00    +0.145 HD
ATOM     29  H   UNL     1      30.815  -5.304 -21.062  0.00  0.00    +0.145 HD
ENDBRANCH  24  27
ENDBRANCH  19  20
BRANCH  19  30
ATOM     30  C   UNL     1      32.302 -10.566 -21.960  0.00  0.00    +0.125 C 
ATOM     31  C   UNL     1      30.939 -11.242 -21.844  0.00  0.00    +0.033 C 
BRANCH  30  32
ATOM     32  O   UNL     1      32.448  -9.618 -20.905  0.00  0.00    -0.383 OA
ATOM     33  H   UNL     1      32.730 -10.075 -20.097  0.00  0.00    +0.210 HD
ENDBRANCH  30  32
ENDBRANCH  19  30
ENDBRANCH  18  19
ENDBRANCH   1  18
TORSDOF 8
ENDMDL
MODEL 6
REMARK VINA RESULT:      -9.8      9.745     14.481
REMARK  Name = 46937091
REMARK  8 active torsions:
REMARK  status: ('A' for Active; 'I' for Inactive)
REMARK    1  A    between atoms: C_1  and  C_4
REMARK    2  A    between atoms: C_1  and  C_18
REMARK    3  A    between atoms: C_10  and  C_12
REMARK    4  A    between atoms: C_18  and  C_19
REMARK    5  A    between atoms: C_19  and  N_20
REMARK    6  A    between atoms: C_19  and  C_30
REMARK    7  A    between atoms: C_24  and  C_27
REMARK    8  A    between atoms: C_30  and  O_32
REMARK                            x       y       z     vdW  Elec       q    Type
REMARK                         _______ _______ _______ _____ _____    ______ ____
ROOT
ATOM      1  C   UNL     1      33.410 -12.262 -23.482  0.00  0.00    +0.031 C 
ENDROOT
BRANCH   1   4
ATOM      2  O   UNL     1      34.357 -15.145 -23.859  0.00  0.00    -0.425 OA
ATOM      3  N   UNL     1      34.723 -16.244 -25.807  0.00  0.00    -0.368 NA
ATOM      4  C   UNL     1      33.644 -12.970 -24.792  0.00  0.00    +0.014 C 
ATOM      5  C   UNL     1      34.078 -14.288 -24.885  0.00  0.00    +0.170 C 
ATOM      6  C   UNL     1      33.432 -12.316 -26.010  0.00  0.00    -0.005 C 
ATOM      7  C   UNL     1      34.302 -14.964 -26.075  0.00  0.00    +0.151 C 
ATOM      8  C   UNL     1      33.647 -12.962 -27.234  0.00  0.00    -0.019 C 
ATOM      9  C   UNL     1      34.084 -14.294 -27.287  0.00  0.00    +0.088 C 
ATOM     10  C   UNL     1      34.735 -16.290 -24.493  0.00  0.00    +0.282 C 
BRANCH  10  12
ATOM     11 CL   UNL     1      36.207 -20.796 -20.902  0.00  0.00    -0.082 Cl
ATOM     12  C   UNL     1      35.091 -17.378 -23.625  0.00  0.00    +0.066 C 
ATOM     13  C   UNL     1      34.868 -18.694 -24.030  0.00  0.00    +0.007 C 
ATOM     14  C   UNL     1      35.660 -17.120 -22.379  0.00  0.00    +0.007 C 
ATOM     15  C   UNL     1      35.213 -19.751 -23.188  0.00  0.00    +0.012 C 
ATOM     16  C   UNL     1      36.005 -18.176 -21.537  0.00  0.00    +0.012 C 
ATOM     17  C   UNL     1      35.782 -19.492 -21.942  0.00  0.00    +0.058 C 
ENDBRANCH  10  12
ENDBRANCH   1   4
BRANCH   1  18
ATOM     18  C   UNL     1      32.096 -12.646 -22.778  0.00  0.00    +0.023 C 
BRANCH  18  19
ATOM     19  C   UNL     1      31.747 -11.795 -21.528  0.00  0.00    +0.087 C 
BRANCH  19  20
ATOM     20  N   UNL     1      32.013 -10.309 -21.733  0.00  0.00    -0.246 NA
ATOM     21  N   UNL     1      32.208  -8.354 -22.768  0.00  0.00    -0.251 NA
ATOM     22  C   UNL     1      32.392  -9.415 -20.773  0.00  0.00    +0.125 C 
ATOM     23  C   UNL     1      31.915  -9.628 -22.914  0.00  0.00    +0.201 C 
ATOM     24  C   UNL     1      32.506  -8.215 -21.435  0.00  0.00    +0.124 C 
BRANCH  24  27
ATOM     25  O   UNL     1      33.548  -6.887 -19.793  0.00  0.00    -0.269 OA
ATOM     26  N   UNL     1      32.509  -5.780 -21.511  0.00  0.00    -0.324 N 
ATOM     27  C   UNL     1      32.882  -6.963 -20.856  0.00  0.00    +0.257 C 
ATOM     28  H   UNL     1      32.757  -4.906 -21.131  0.00  0.00    +0.145 HD
ATOM     29  H   UNL     1      31.998  -5.824 -22.351  0.00  0.00    +0.145 HD
ENDBRANCH  24  27
ENDBRANCH  19  20
BRANCH  19  30
ATOM     30  C   UNL     1      32.450 -12.368 -20.268  0.00  0.00    +0.125 C 
ATOM     31  C   UNL     1      32.680 -13.875 -20.321  0.00  0.00    +0.033 C 
BRANCH  30  32
ATOM     32  O   UNL     1      31.717 -12.046 -19.088  0.00  0.00    -0.383 OA
ATOM     33  H   UNL     1      31.783 -12.779 -18.457  0.00  0.00    +0.210 HD
ENDBRANCH  30  32
ENDBRANCH  19  30
ENDBRANCH  18  19
ENDBRANCH   1  18
TORSDOF 8
ENDMDL
MODEL 7
REMARK VINA RESULT:      -9.7      8.053     13.017
REMARK  Name = 46937091
REMARK  8 active torsions:
REMARK  status: ('A' for Active; 'I' for Inactive)
REMARK    1  A    between atoms: C_1  and  C_4
REMARK    2  A    between atoms: C_1  and  C_18
REMARK    3  A    between atoms: C_10  and  C_12
REMARK    4  A    between atoms: C_18  and  C_19
REMARK    5  A    between atoms: C_19  and  N_20
REMARK    6  A    between atoms: C_19  and  C_30
REMARK    7  A    between atoms: C_24  and  C_27
REMARK    8  A    between atoms: C_30  and  O_32
REMARK                            x       y       z     vdW  Elec       q    Type
REMARK                         _______ _______ _______ _____ _____    ______ ____
ROOT
ATOM      1  C   UNL     1      34.932 -14.962 -22.137  0.00  0.00    +0.031 C 
ENDROOT
BRANCH   1   4
ATOM      2  O   UNL     1      34.960 -18.004 -21.820  0.00  0.00    -0.425 OA
ATOM      3  N   UNL     1      35.026 -19.571 -23.455  0.00  0.00    -0.368 NA
ATOM      4  C   UNL     1      34.974 -15.984 -23.244  0.00  0.00    +0.014 C 
ATOM      5  C   UNL     1      34.986 -17.357 -23.022  0.00  0.00    +0.170 C 
ATOM      6  C   UNL     1      35.007 -15.589 -24.586  0.00  0.00    -0.005 C 
ATOM      7  C   UNL     1      35.025 -18.319 -24.021  0.00  0.00    +0.151 C 
ATOM      8  C   UNL     1      35.047 -16.528 -25.624  0.00  0.00    -0.019 C 
ATOM      9  C   UNL     1      35.057 -17.905 -25.360  0.00  0.00    +0.088 C 
ATOM     10  C   UNL     1      34.987 -19.321 -22.165  0.00  0.00    +0.282 C 
BRANCH  10  12
ATOM     11 CL   UNL     1      34.912 -23.129 -17.598  0.00  0.00    -0.082 Cl
ATOM     12  C   UNL     1      34.968 -20.241 -21.062  0.00  0.00    +0.066 C 
ATOM     13  C   UNL     1      36.166 -20.658 -20.482  0.00  0.00    +0.007 C 
ATOM     14  C   UNL     1      33.753 -20.717 -20.570  0.00  0.00    +0.007 C 
ATOM     15  C   UNL     1      36.148 -21.551 -19.411  0.00  0.00    +0.012 C 
ATOM     16  C   UNL     1      33.735 -21.610 -19.499  0.00  0.00    +0.012 C 
ATOM     17  C   UNL     1      34.934 -22.027 -18.919  0.00  0.00    +0.058 C 
ENDBRANCH  10  12
ENDBRANCH   1   4
BRANCH   1  18
ATOM     18  C   UNL     1      34.346 -13.601 -22.551  0.00  0.00    +0.023 C 
BRANCH  18  19
ATOM     19  C   UNL     1      32.967 -13.260 -21.926  0.00  0.00    +0.087 C 
BRANCH  19  20
ATOM     20  N   UNL     1      32.485 -11.861 -22.289  0.00  0.00    -0.246 NA
ATOM     21  N   UNL     1      31.140 -10.103 -22.457  0.00  0.00    -0.251 NA
ATOM     22  C   UNL     1      33.203 -10.904 -22.946  0.00  0.00    +0.125 C 
ATOM     23  C   UNL     1      31.253 -11.336 -22.016  0.00  0.00    +0.201 C 
ATOM     24  C   UNL     1      32.353  -9.827 -23.038  0.00  0.00    +0.124 C 
BRANCH  24  27
ATOM     25  O   UNL     1      31.747  -7.802 -24.079  0.00  0.00    -0.269 OA
ATOM     26  N   UNL     1      33.987  -8.168 -23.754  0.00  0.00    -0.324 N 
ATOM     27  C   UNL     1      32.646  -8.567 -23.649  0.00  0.00    +0.257 C 
ATOM     28  H   UNL     1      34.213  -7.305 -24.171  0.00  0.00    +0.145 HD
ATOM     29  H   UNL     1      34.702  -8.751 -23.411  0.00  0.00    +0.145 HD
ENDBRANCH  24  27
ENDBRANCH  19  20
BRANCH  19  30
ATOM     30  C   UNL     1      32.986 -13.516 -20.395  0.00  0.00    +0.125 C 
ATOM     31  C   UNL     1      32.249 -14.782 -19.972  0.00  0.00    +0.033 C 
BRANCH  30  32
ATOM     32  O   UNL     1      32.447 -12.400 -19.689  0.00  0.00    -0.383 OA
ATOM     33  H   UNL     1      32.805 -12.385 -18.788  0.00  0.00    +0.210 HD
ENDBRANCH  30  32
ENDBRANCH  19  30
ENDBRANCH  18  19
ENDBRANCH   1  18
TORSDOF 8
ENDMDL
MODEL 8
REMARK VINA RESULT:      -9.6     12.708     16.489
REMARK  Name = 46937091
REMARK  8 active torsions:
REMARK  status: ('A' for Active; 'I' for Inactive)
REMARK    1  A    between atoms: C_1  and  C_4
REMARK    2  A    between atoms: C_1  and  C_18
REMARK    3  A    between atoms: C_10  and  C_12
REMARK    4  A    between atoms: C_18  and  C_19
REMARK    5  A    between atoms: C_19  and  N_20
REMARK    6  A    between atoms: C_19  and  C_30
REMARK    7  A    between atoms: C_24  and  C_27
REMARK    8  A    between atoms: C_30  and  O_32
REMARK                            x       y       z     vdW  Elec       q    Type
REMARK                         _______ _______ _______ _____ _____    ______ ____
ROOT
ATOM      1  C   UNL     1      33.074 -10.377 -23.313  0.00  0.00    +0.031 C 
ENDROOT
BRANCH   1   4
ATOM      2  O   UNL     1      33.529  -7.480 -24.180  0.00  0.00    -0.425 OA
ATOM      3  N   UNL     1      33.190  -5.596 -22.967  0.00  0.00    -0.368 NA
ATOM      4  C   UNL     1      32.838  -9.139 -22.484  0.00  0.00    +0.014 C 
ATOM      5  C   UNL     1      33.070  -7.850 -22.949  0.00  0.00    +0.170 C 
ATOM      6  C   UNL     1      32.364  -9.233 -21.172  0.00  0.00    -0.005 C 
ATOM      7  C   UNL     1      32.863  -6.694 -22.209  0.00  0.00    +0.151 C 
ATOM      8  C   UNL     1      32.142  -8.092 -20.391  0.00  0.00    -0.019 C 
ATOM      9  C   UNL     1      32.387  -6.806 -20.896  0.00  0.00    +0.088 C 
ATOM     10  C   UNL     1      33.573  -6.121 -24.110  0.00  0.00    +0.282 C 
BRANCH  10  12
ATOM     11 CL   UNL     1      35.475  -3.400 -29.045  0.00  0.00    -0.082 Cl
ATOM     12  C   UNL     1      34.033  -5.463 -25.303  0.00  0.00    +0.066 C 
ATOM     13  C   UNL     1      33.181  -4.607 -26.000  0.00  0.00    +0.007 C 
ATOM     14  C   UNL     1      35.331  -5.681 -25.763  0.00  0.00    +0.007 C 
ATOM     15  C   UNL     1      33.627  -3.969 -27.157  0.00  0.00    +0.012 C 
ATOM     16  C   UNL     1      35.777  -5.043 -26.920  0.00  0.00    +0.012 C 
ATOM     17  C   UNL     1      34.925  -4.187 -27.617  0.00  0.00    +0.058 C 
ENDBRANCH  10  12
ENDBRANCH   1   4
BRANCH   1  18
ATOM     18  C   UNL     1      32.293 -11.615 -22.840  0.00  0.00    +0.023 C 
BRANCH  18  19
ATOM     19  C   UNL     1      33.131 -12.666 -22.064  0.00  0.00    +0.087 C 
BRANCH  19  20
ATOM     20  N   UNL     1      33.781 -13.695 -22.981  0.00  0.00    -0.246 NA
ATOM     21  N   UNL     1      35.256 -15.175 -23.731  0.00  0.00    -0.251 NA
ATOM     22  C   UNL     1      33.293 -14.134 -24.178  0.00  0.00    +0.125 C 
ATOM     23  C   UNL     1      34.960 -14.347 -22.753  0.00  0.00    +0.201 C 
ATOM     24  C   UNL     1      34.220 -15.048 -24.623  0.00  0.00    +0.124 C 
BRANCH  24  27
ATOM     25  O   UNL     1      33.772 -15.276 -26.924  0.00  0.00    -0.269 OA
ATOM     26  N   UNL     1      34.561 -17.133 -25.834  0.00  0.00    -0.324 N 
ATOM     27  C   UNL     1      34.158 -15.790 -25.843  0.00  0.00    +0.257 C 
ATOM     28  H   UNL     1      34.527 -17.664 -26.663  0.00  0.00    +0.145 HD
ATOM     29  H   UNL     1      34.878 -17.546 -24.999  0.00  0.00    +0.145 HD
ENDBRANCH  24  27
ENDBRANCH  19  20
BRANCH  19  30
ATOM     30  C   UNL     1      32.283 -13.311 -20.935  0.00  0.00    +0.125 C 
ATOM     31  C   UNL     1      31.957 -12.360 -19.789  0.00  0.00    +0.033 C 
BRANCH  30  32
ATOM     32  O   UNL     1      32.930 -14.470 -20.415  0.00  0.00    -0.383 OA
ATOM     33  H   UNL     1      33.673 -14.200 -19.852  0.00  0.00    +0.210 HD
ENDBRANCH  30  32
ENDBRANCH  19  30
ENDBRANCH  18  19
ENDBRANCH   1  18
TORSDOF 8
ENDMDL
MODEL 9
REMARK VINA RESULT:      -9.5     10.103     13.969
REMARK  Name = 46937091
REMARK  8 active torsions:
REMARK  status: ('A' for Active; 'I' for Inactive)
REMARK    1  A    between atoms: C_1  and  C_4
REMARK    2  A    between atoms: C_1  and  C_18
REMARK    3  A    between atoms: C_10  and  C_12
REMARK    4  A    between atoms: C_18  and  C_19
REMARK    5  A    between atoms: C_19  and  N_20
REMARK    6  A    between atoms: C_19  and  C_30
REMARK    7  A    between atoms: C_24  and  C_27
REMARK    8  A    between atoms: C_30  and  O_32
REMARK                            x       y       z     vdW  Elec       q    Type
REMARK                         _______ _______ _______ _____ _____    ______ ____
ROOT
ATOM      1  C   UNL     1      32.904 -13.313 -23.546  0.00  0.00    +0.031 C 
ENDROOT
BRANCH   1   4
ATOM      2  O   UNL     1      32.628 -10.340 -22.889  0.00  0.00    -0.425 OA
ATOM      3  N   UNL     1      32.171  -9.397 -20.880  0.00  0.00    -0.368 NA
ATOM      4  C   UNL     1      32.598 -12.712 -22.198  0.00  0.00    +0.014 C 
ATOM      5  C   UNL     1      32.488 -11.344 -21.976  0.00  0.00    +0.170 C 
ATOM      6  C   UNL     1      32.405 -13.525 -21.076  0.00  0.00    -0.005 C 
ATOM      7  C   UNL     1      32.207 -10.764 -20.747  0.00  0.00    +0.151 C 
ATOM      8  C   UNL     1      32.121 -12.979 -19.818  0.00  0.00    -0.019 C 
ATOM      9  C   UNL     1      32.017 -11.593 -19.633  0.00  0.00    +0.088 C 
ATOM     10  C   UNL     1      32.424  -9.210 -22.156  0.00  0.00    +0.282 C 
BRANCH  10  12
ATOM     11 CL   UNL     1      32.810  -4.120 -25.208  0.00  0.00    -0.082 Cl
ATOM     12  C   UNL     1      32.518  -7.980 -22.894  0.00  0.00    +0.066 C 
ATOM     13  C   UNL     1      31.366  -7.388 -23.412  0.00  0.00    +0.007 C 
ATOM     14  C   UNL     1      33.760  -7.377 -23.091  0.00  0.00    +0.007 C 
ATOM     15  C   UNL     1      31.457  -6.195 -24.127  0.00  0.00    +0.012 C 
ATOM     16  C   UNL     1      33.851  -6.184 -23.807  0.00  0.00    +0.012 C 
ATOM     17  C   UNL     1      32.698  -5.592 -24.324  0.00  0.00    +0.058 C 
ENDBRANCH  10  12
ENDBRANCH   1   4
BRANCH   1  18
ATOM     18  C   UNL     1      34.155 -14.209 -23.573  0.00  0.00    +0.023 C 
BRANCH  18  19
ATOM     19  C   UNL     1      34.013 -15.514 -24.402  0.00  0.00    +0.087 C 
BRANCH  19  20
ATOM     20  N   UNL     1      34.840 -16.662 -23.839  0.00  0.00    -0.246 NA
ATOM     21  N   UNL     1      36.197 -18.419 -23.790  0.00  0.00    -0.251 NA
ATOM     22  C   UNL     1      34.959 -17.005 -22.523  0.00  0.00    +0.125 C 
ATOM     23  C   UNL     1      35.601 -17.538 -24.562  0.00  0.00    +0.201 C 
ATOM     24  C   UNL     1      35.802 -18.092 -22.517  0.00  0.00    +0.124 C 
BRANCH  24  27
ATOM     25  O   UNL     1      35.484 -19.620 -20.752  0.00  0.00    -0.269 OA
ATOM     26  N   UNL     1      37.552 -18.642 -20.914  0.00  0.00    -0.324 N 
ATOM     27  C   UNL     1      36.235 -18.819 -21.364  0.00  0.00    +0.257 C 
ATOM     28  H   UNL     1      37.873 -19.132 -20.123  0.00  0.00    +0.145 HD
ATOM     29  H   UNL     1      38.156 -18.028 -21.390  0.00  0.00    +0.145 HD
ENDBRANCH  24  27
ENDBRANCH  19  20
BRANCH  19  30
ATOM     30  C   UNL     1      34.302 -15.238 -25.902  0.00  0.00    +0.125 C 
ATOM     31  C   UNL     1      33.724 -13.920 -26.409  0.00  0.00    +0.033 C 
BRANCH  30  32
ATOM     32  O   UNL     1      33.821 -16.306 -26.715  0.00  0.00    -0.383 OA
ATOM     33  H   UNL     1      32.893 -16.142 -26.948  0.00  0.00    +0.210 HD
ENDBRANCH  30  32
ENDBRANCH  19  30
ENDBRANCH  18  19
ENDBRANCH   1  18
TORSDOF 8
ENDMDL
