MODEL 1
REMARK VINA RESULT:     -11.6      0.000      0.000
REMARK  Name = 57336276
REMARK  5 active torsions:
REMARK  status: ('A' for Active; 'I' for Inactive)
REMARK    1  A    between atoms: C_2  and  C_16
REMARK    2  A    between atoms: C_6  and  O_17
REMARK    3  A    between atoms: O_17  and  C_18
REMARK    4  A    between atoms: C_18  and  C_21
REMARK    5  A    between atoms: C_22  and  C_26
REMARK                            x       y       z     vdW  Elec       q    Type
REMARK                         _______ _______ _______ _____ _____    ______ ____
ROOT
ATOM      1  N   UNL     1      33.079 -12.692 -23.127  0.00  0.00    -0.210 NA
ATOM      2  C   UNL     1      33.754 -14.145 -24.938  0.00  0.00    +0.073 C 
ATOM      3  C   UNL     1      34.179 -13.043 -25.672  0.00  0.00    +0.011 C 
ATOM      4  C   UNL     1      33.215 -13.918 -23.681  0.00  0.00    +0.107 C 
ATOM      5  C   UNL     1      34.056 -11.766 -25.135  0.00  0.00    +0.058 C 
ATOM      6  C   UNL     1      33.504 -11.646 -23.870  0.00  0.00    +0.225 C 
ENDROOT
BRANCH   2  16
ATOM      7  S   UNL     1      35.575 -18.485 -22.858  0.00  0.00    -0.007 S 
ATOM      8  O   UNL     1      34.905 -19.120 -21.740  0.00  0.00    -0.173 OA
ATOM      9  O   UNL     1      36.934 -18.848 -23.212  0.00  0.00    -0.173 OA
ATOM     10  O   UNL     1      33.070 -15.808 -26.360  0.00  0.00    -0.270 OA
ATOM     11  N   UNL     1      34.859 -16.338 -24.949  0.00  0.00    -0.272 N 
ATOM     12  C   UNL     1      34.548 -18.692 -24.303  0.00  0.00    +0.172 C 
ATOM     13  C   UNL     1      35.516 -16.719 -22.603  0.00  0.00    +0.172 C 
ATOM     14  C   UNL     1      34.948 -17.727 -25.409  0.00  0.00    +0.119 C 
ATOM     15  C   UNL     1      35.812 -15.966 -23.892  0.00  0.00    +0.119 C 
ATOM     16  C   UNL     1      33.870 -15.505 -25.477  0.00  0.00    +0.251 C 
ENDBRANCH   2  16
BRANCH   6  17
ATOM     17  O   UNL     1      33.372 -10.398 -23.319  0.00  0.00    -0.455 OA
BRANCH  17  18
ATOM     18  C   UNL     1      32.094 -10.063 -22.792  0.00  0.00    +0.238 C 
BRANCH  18  21
ATOM     19  O   UNL     1      32.362  -8.509 -19.458  0.00  0.00    -0.358 OA
ATOM     20  N   UNL     1      32.721  -7.417 -20.239  0.00  0.00    -0.078 NA
ATOM     21  C   UNL     1      32.275  -9.207 -21.573  0.00  0.00    +0.075 A 
ATOM     22  C   UNL     1      32.662  -7.858 -21.498  0.00  0.00    +0.122 A 
ATOM     23  C   UNL     1      32.098  -9.568 -20.264  0.00  0.00    +0.154 A 
ATOM     24  C   UNL     1      31.699 -10.815 -19.595  0.00  0.00    +0.075 C 
BRANCH  22  26
ATOM     25  F   UNL     1      33.886  -4.449 -25.727  0.00  0.00    -0.204 F 
ATOM     26  C   UNL     1      32.978  -6.977 -22.591  0.00  0.00    +0.021 C 
ATOM     27  C   UNL     1      34.221  -7.063 -23.219  0.00  0.00    +0.004 C 
ATOM     28  C   UNL     1      32.043  -6.036 -23.023  0.00  0.00    +0.004 C 
ATOM     29  C   UNL     1      34.527  -6.209 -24.279  0.00  0.00    +0.030 C 
ATOM     30  C   UNL     1      32.350  -5.182 -24.082  0.00  0.00    +0.030 C 
ATOM     31  C   UNL     1      33.592  -5.269 -24.710  0.00  0.00    +0.140 C 
ENDBRANCH  22  26
ENDBRANCH  18  21
ENDBRANCH  17  18
ENDBRANCH   6  17
TORSDOF 5
ENDMDL
MODEL 2
REMARK VINA RESULT:     -10.4      4.307     10.114
REMARK  Name = 57336276
REMARK  5 active torsions:
REMARK  status: ('A' for Active; 'I' for Inactive)
REMARK    1  A    between atoms: C_2  and  C_16
REMARK    2  A    between atoms: C_6  and  O_17
REMARK    3  A    between atoms: O_17  and  C_18
REMARK    4  A    between atoms: C_18  and  C_21
REMARK    5  A    between atoms: C_22  and  C_26
REMARK                            x       y       z     vdW  Elec       q    Type
REMARK                         _______ _______ _______ _____ _____    ______ ____
ROOT
ATOM      1  N   UNL     1      33.017 -12.060 -23.129  0.00  0.00    -0.210 NA
ATOM      2  C   UNL     1      32.375 -10.756 -21.197  0.00  0.00    +0.073 C 
ATOM      3  C   UNL     1      32.404 -11.899 -20.407  0.00  0.00    +0.011 C 
ATOM      4  C   UNL     1      32.687 -10.888 -22.541  0.00  0.00    +0.107 C 
ATOM      5  C   UNL     1      32.740 -13.123 -20.976  0.00  0.00    +0.058 C 
ATOM      6  C   UNL     1      33.035 -13.149 -22.329  0.00  0.00    +0.225 C 
ENDROOT
BRANCH   2  16
ATOM      7  S   UNL     1      32.099  -6.077 -23.323  0.00  0.00    -0.007 S 
ATOM      8  O   UNL     1      31.099  -5.767 -24.326  0.00  0.00    -0.173 OA
ATOM      9  O   UNL     1      33.245  -5.211 -23.123  0.00  0.00    -0.173 OA
ATOM     10  O   UNL     1      31.287  -9.469 -19.642  0.00  0.00    -0.270 OA
ATOM     11  N   UNL     1      32.538  -8.305 -21.240  0.00  0.00    -0.272 N 
ATOM     12  C   UNL     1      31.263  -6.265 -21.756  0.00  0.00    +0.172 C 
ATOM     13  C   UNL     1      32.694  -7.731 -23.633  0.00  0.00    +0.172 C 
ATOM     14  C   UNL     1      32.142  -6.984 -20.744  0.00  0.00    +0.119 C 
ATOM     15  C   UNL     1      33.419  -8.292 -22.418  0.00  0.00    +0.119 C 
ATOM     16  C   UNL     1      32.024  -9.450 -20.627  0.00  0.00    +0.251 C 
ENDBRANCH   2  16
BRANCH   6  17
ATOM     17  O   UNL     1      33.370 -14.343 -22.913  0.00  0.00    -0.455 OA
BRANCH  17  18
ATOM     18  C   UNL     1      34.543 -14.356 -23.717  0.00  0.00    +0.238 C 
BRANCH  18  21
ATOM     19  O   UNL     1      33.782 -15.958 -26.952  0.00  0.00    -0.358 OA
ATOM     20  N   UNL     1      34.192 -17.080 -26.242  0.00  0.00    -0.078 NA
ATOM     21  C   UNL     1      34.310 -15.238 -24.909  0.00  0.00    +0.075 A 
ATOM     22  C   UNL     1      34.502 -16.625 -25.025  0.00  0.00    +0.122 A 
ATOM     23  C   UNL     1      33.856 -14.867 -26.147  0.00  0.00    +0.154 A 
ATOM     24  C   UNL     1      33.455 -13.586 -26.745  0.00  0.00    +0.075 C 
BRANCH  22  26
ATOM     25  F   UNL     1      36.328 -20.127 -21.099  0.00  0.00    -0.204 F 
ATOM     26  C   UNL     1      34.974 -17.530 -24.010  0.00  0.00    +0.021 C 
ATOM     27  C   UNL     1      35.663 -17.038 -22.902  0.00  0.00    +0.004 C 
ATOM     28  C   UNL     1      34.742 -18.900 -24.135  0.00  0.00    +0.004 C 
ATOM     29  C   UNL     1      36.120 -17.915 -21.919  0.00  0.00    +0.030 C 
ATOM     30  C   UNL     1      35.200 -19.778 -23.151  0.00  0.00    +0.030 C 
ATOM     31  C   UNL     1      35.889 -19.285 -22.044  0.00  0.00    +0.140 C 
ENDBRANCH  22  26
ENDBRANCH  18  21
ENDBRANCH  17  18
ENDBRANCH   6  17
TORSDOF 5
ENDMDL
MODEL 3
REMARK VINA RESULT:     -10.4      4.561     10.372
REMARK  Name = 57336276
REMARK  5 active torsions:
REMARK  status: ('A' for Active; 'I' for Inactive)
REMARK    1  A    between atoms: C_2  and  C_16
REMARK    2  A    between atoms: C_6  and  O_17
REMARK    3  A    between atoms: O_17  and  C_18
REMARK    4  A    between atoms: C_18  and  C_21
REMARK    5  A    between atoms: C_22  and  C_26
REMARK                            x       y       z     vdW  Elec       q    Type
REMARK                         _______ _______ _______ _____ _____    ______ ____
ROOT
ATOM      1  N   UNL     1      33.734 -13.522 -22.394  0.00  0.00    -0.210 NA
ATOM      2  C   UNL     1      32.757 -11.376 -22.929  0.00  0.00    +0.073 C 
ATOM      3  C   UNL     1      33.522 -11.309 -24.088  0.00  0.00    +0.011 C 
ATOM      4  C   UNL     1      32.899 -12.495 -22.122  0.00  0.00    +0.107 C 
ATOM      5  C   UNL     1      34.393 -12.348 -24.401  0.00  0.00    +0.058 C 
ATOM      6  C   UNL     1      34.461 -13.422 -23.529  0.00  0.00    +0.225 C 
ENDROOT
BRANCH   2  16
ATOM      7  S   UNL     1      32.806  -6.345 -24.013  0.00  0.00    -0.007 S 
ATOM      8  O   UNL     1      32.637  -5.869 -25.373  0.00  0.00    -0.173 OA
ATOM      9  O   UNL     1      33.318  -5.469 -22.978  0.00  0.00    -0.173 OA
ATOM     10  O   UNL     1      30.667 -10.633 -22.354  0.00  0.00    -0.270 OA
ATOM     11  N   UNL     1      32.328  -8.993 -22.512  0.00  0.00    -0.272 N 
ATOM     12  C   UNL     1      31.240  -7.003 -23.464  0.00  0.00    +0.172 C 
ATOM     13  C   UNL     1      33.830  -7.806 -24.066  0.00  0.00    +0.172 C 
ATOM     14  C   UNL     1      31.411  -7.885 -22.236  0.00  0.00    +0.119 C 
ATOM     15  C   UNL     1      33.722  -8.602 -22.773  0.00  0.00    +0.119 C 
ATOM     16  C   UNL     1      31.830 -10.297 -22.570  0.00  0.00    +0.251 C 
ENDBRANCH   2  16
BRANCH   6  17
ATOM     17  O   UNL     1      35.311 -14.457 -23.816  0.00  0.00    -0.455 OA
BRANCH  17  18
ATOM     18  C   UNL     1      35.093 -15.677 -23.118  0.00  0.00    +0.238 C 
BRANCH  18  21
ATOM     19  O   UNL     1      34.345 -17.890 -25.972  0.00  0.00    -0.358 OA
ATOM     20  N   UNL     1      34.758 -18.848 -25.054  0.00  0.00    -0.078 NA
ATOM     21  C   UNL     1      34.867 -16.778 -24.112  0.00  0.00    +0.075 A 
ATOM     22  C   UNL     1      35.064 -18.160 -23.951  0.00  0.00    +0.122 A 
ATOM     23  C   UNL     1      34.414 -16.662 -25.400  0.00  0.00    +0.154 A 
ATOM     24  C   UNL     1      34.009 -15.526 -26.240  0.00  0.00    +0.075 C 
BRANCH  22  26
ATOM     25  F   UNL     1      36.892 -20.807 -19.406  0.00  0.00    -0.204 F 
ATOM     26  C   UNL     1      35.536 -18.844 -22.777  0.00  0.00    +0.021 C 
ATOM     27  C   UNL     1      34.692 -19.717 -22.090  0.00  0.00    +0.004 C 
ATOM     28  C   UNL     1      36.839 -18.635 -22.323  0.00  0.00    +0.004 C 
ATOM     29  C   UNL     1      35.150 -20.380 -20.952  0.00  0.00    +0.030 C 
ATOM     30  C   UNL     1      37.297 -19.298 -21.184  0.00  0.00    +0.030 C 
ATOM     31  C   UNL     1      36.452 -20.170 -20.499  0.00  0.00    +0.140 C 
ENDBRANCH  22  26
ENDBRANCH  18  21
ENDBRANCH  17  18
ENDBRANCH   6  17
TORSDOF 5
ENDMDL
MODEL 4
REMARK VINA RESULT:     -10.4      2.318      3.899
REMARK  Name = 57336276
REMARK  5 active torsions:
REMARK  status: ('A' for Active; 'I' for Inactive)
REMARK    1  A    between atoms: C_2  and  C_16
REMARK    2  A    between atoms: C_6  and  O_17
REMARK    3  A    between atoms: O_17  and  C_18
REMARK    4  A    between atoms: C_18  and  C_21
REMARK    5  A    between atoms: C_22  and  C_26
REMARK                            x       y       z     vdW  Elec       q    Type
REMARK                         _______ _______ _______ _____ _____    ______ ____
ROOT
ATOM      1  N   UNL     1      34.145 -11.681 -25.350  0.00  0.00    -0.210 NA
ATOM      2  C   UNL     1      33.824 -14.053 -25.008  0.00  0.00    +0.073 C 
ATOM      3  C   UNL     1      33.400 -13.814 -23.706  0.00  0.00    +0.011 C 
ATOM      4  C   UNL     1      34.182 -12.961 -25.784  0.00  0.00    +0.107 C 
ATOM      5  C   UNL     1      33.349 -12.511 -23.224  0.00  0.00    +0.058 C 
ATOM      6  C   UNL     1      33.729 -11.489 -24.079  0.00  0.00    +0.225 C 
ENDROOT
BRANCH   2  16
ATOM      7  S   UNL     1      35.526 -18.448 -22.942  0.00  0.00    -0.007 S 
ATOM      8  O   UNL     1      34.848 -19.059 -21.815  0.00  0.00    -0.173 OA
ATOM      9  O   UNL     1      36.868 -18.856 -23.311  0.00  0.00    -0.173 OA
ATOM     10  O   UNL     1      33.068 -15.694 -26.419  0.00  0.00    -0.270 OA
ATOM     11  N   UNL     1      34.856 -16.282 -25.029  0.00  0.00    -0.272 N 
ATOM     12  C   UNL     1      34.475 -18.623 -24.374  0.00  0.00    +0.172 C 
ATOM     13  C   UNL     1      35.527 -16.681 -22.690  0.00  0.00    +0.172 C 
ATOM     14  C   UNL     1      34.894 -17.674 -25.487  0.00  0.00    +0.119 C 
ATOM     15  C   UNL     1      35.833 -15.940 -23.984  0.00  0.00    +0.119 C 
ATOM     16  C   UNL     1      33.889 -15.417 -25.546  0.00  0.00    +0.251 C 
ENDBRANCH   2  16
BRANCH   6  17
ATOM     17  O   UNL     1      33.686 -10.196 -23.628  0.00  0.00    -0.455 OA
BRANCH  17  18
ATOM     18  C   UNL     1      32.619  -9.386 -24.104  0.00  0.00    +0.238 C 
BRANCH  18  21
ATOM     19  O   UNL     1      32.253  -6.158 -22.357  0.00  0.00    -0.358 OA
ATOM     20  N   UNL     1      32.056  -7.014 -21.281  0.00  0.00    -0.078 NA
ATOM     21  C   UNL     1      32.429  -8.225 -23.172  0.00  0.00    +0.075 A 
ATOM     22  C   UNL     1      32.167  -8.243 -21.791  0.00  0.00    +0.122 A 
ATOM     23  C   UNL     1      32.474  -6.891 -23.478  0.00  0.00    +0.154 A 
ATOM     24  C   UNL     1      32.703  -6.136 -24.718  0.00  0.00    +0.075 C 
BRANCH  22  26
ATOM     25  F   UNL     1      31.587 -12.709 -18.516  0.00  0.00    -0.204 F 
ATOM     26  C   UNL     1      32.017  -9.397 -20.945  0.00  0.00    +0.021 C 
ATOM     27  C   UNL     1      32.672  -9.450 -19.715  0.00  0.00    +0.004 C 
ATOM     28  C   UNL     1      31.216 -10.464 -21.355  0.00  0.00    +0.004 C 
ATOM     29  C   UNL     1      32.526 -10.568 -18.894  0.00  0.00    +0.030 C 
ATOM     30  C   UNL     1      31.072 -11.583 -20.534  0.00  0.00    +0.030 C 
ATOM     31  C   UNL     1      31.727 -11.635 -19.304  0.00  0.00    +0.140 C 
ENDBRANCH  22  26
ENDBRANCH  18  21
ENDBRANCH  17  18
ENDBRANCH   6  17
TORSDOF 5
ENDMDL
MODEL 5
REMARK VINA RESULT:     -10.2      4.522     10.246
REMARK  Name = 57336276
REMARK  5 active torsions:
REMARK  status: ('A' for Active; 'I' for Inactive)
REMARK    1  A    between atoms: C_2  and  C_16
REMARK    2  A    between atoms: C_6  and  O_17
REMARK    3  A    between atoms: O_17  and  C_18
REMARK    4  A    between atoms: C_18  and  C_21
REMARK    5  A    between atoms: C_22  and  C_26
REMARK                            x       y       z     vdW  Elec       q    Type
REMARK                         _______ _______ _______ _____ _____    ______ ____
ROOT
ATOM      1  N   UNL     1      32.762 -11.191 -22.958  0.00  0.00    -0.210 NA
ATOM      2  C   UNL     1      34.067  -9.281 -23.662  0.00  0.00    +0.073 C 
ATOM      3  C   UNL     1      34.820 -10.096 -24.499  0.00  0.00    +0.011 C 
ATOM      4  C   UNL     1      33.057  -9.872 -22.918  0.00  0.00    +0.107 C 
ATOM      5  C   UNL     1      34.545 -11.458 -24.567  0.00  0.00    +0.058 C 
ATOM      6  C   UNL     1      33.515 -11.951 -23.783  0.00  0.00    +0.225 C 
ENDROOT
BRANCH   2  16
ATOM      7  S   UNL     1      30.926  -5.289 -22.833  0.00  0.00    -0.007 S 
ATOM      8  O   UNL     1      30.247  -5.120 -21.564  0.00  0.00    -0.173 OA
ATOM      9  O   UNL     1      30.502  -4.549 -24.007  0.00  0.00    -0.173 OA
ATOM     10  O   UNL     1      35.464  -7.521 -23.208  0.00  0.00    -0.270 OA
ATOM     11  N   UNL     1      33.294  -6.959 -23.880  0.00  0.00    -0.272 N 
ATOM     12  C   UNL     1      32.663  -4.973 -22.572  0.00  0.00    +0.172 C 
ATOM     13  C   UNL     1      30.915  -7.028 -23.235  0.00  0.00    +0.172 C 
ATOM     14  C   UNL     1      33.503  -5.518 -23.718  0.00  0.00    +0.119 C 
ATOM     15  C   UNL     1      31.943  -7.352 -24.310  0.00  0.00    +0.119 C 
ATOM     16  C   UNL     1      34.332  -7.841 -23.568  0.00  0.00    +0.251 C 
ENDBRANCH   2  16
BRANCH   6  17
ATOM     17  O   UNL     1      33.224 -13.289 -23.833  0.00  0.00    -0.455 OA
BRANCH  17  18
ATOM     18  C   UNL     1      34.330 -14.184 -23.860  0.00  0.00    +0.238 C 
BRANCH  18  21
ATOM     19  O   UNL     1      33.765 -15.914 -27.068  0.00  0.00    -0.358 OA
ATOM     20  N   UNL     1      34.198 -16.994 -26.309  0.00  0.00    -0.078 NA
ATOM     21  C   UNL     1      34.182 -15.110 -25.031  0.00  0.00    +0.075 A 
ATOM     22  C   UNL     1      34.441 -16.490 -25.096  0.00  0.00    +0.122 A 
ATOM     23  C   UNL     1      33.759 -14.798 -26.297  0.00  0.00    +0.154 A 
ATOM     24  C   UNL     1      33.324 -13.555 -26.949  0.00  0.00    +0.075 C 
BRANCH  22  26
ATOM     25  F   UNL     1      36.271 -19.785 -20.998  0.00  0.00    -0.204 F 
ATOM     26  C   UNL     1      34.913 -17.341 -24.038  0.00  0.00    +0.021 C 
ATOM     27  C   UNL     1      35.449 -16.781 -22.878  0.00  0.00    +0.004 C 
ATOM     28  C   UNL     1      34.837 -18.728 -24.170  0.00  0.00    +0.004 C 
ATOM     29  C   UNL     1      35.906 -17.606 -21.851  0.00  0.00    +0.030 C 
ATOM     30  C   UNL     1      35.296 -19.554 -23.143  0.00  0.00    +0.030 C 
ATOM     31  C   UNL     1      35.830 -18.993 -21.984  0.00  0.00    +0.140 C 
ENDBRANCH  22  26
ENDBRANCH  18  21
ENDBRANCH  17  18
ENDBRANCH   6  17
TORSDOF 5
ENDMDL
MODEL 6
REMARK VINA RESULT:     -10.0      8.980     13.209
REMARK  Name = 57336276
REMARK  5 active torsions:
REMARK  status: ('A' for Active; 'I' for Inactive)
REMARK    1  A    between atoms: C_2  and  C_16
REMARK    2  A    between atoms: C_6  and  O_17
REMARK    3  A    between atoms: O_17  and  C_18
REMARK    4  A    between atoms: C_18  and  C_21
REMARK    5  A    between atoms: C_22  and  C_26
REMARK                            x       y       z     vdW  Elec       q    Type
REMARK                         _______ _______ _______ _____ _____    ______ ____
ROOT
ATOM      1  N   UNL     1      36.079 -22.610 -17.041  0.00  0.00    -0.210 NA
ATOM      2  C   UNL     1      37.914 -23.592 -15.811  0.00  0.00    +0.073 C 
ATOM      3  C   UNL     1      38.808 -22.741 -16.451  0.00  0.00    +0.011 C 
ATOM      4  C   UNL     1      36.571 -23.487 -16.138  0.00  0.00    +0.107 C 
ATOM      5  C   UNL     1      38.339 -21.824 -17.386  0.00  0.00    +0.058 C 
ATOM      6  C   UNL     1      36.978 -21.799 -17.642  0.00  0.00    +0.225 C 
ENDROOT
BRANCH   2  16
ATOM      7  S   UNL     1      36.147 -24.792 -11.128  0.00  0.00    -0.007 S 
ATOM      8  O   UNL     1      34.850 -25.416 -10.954  0.00  0.00    -0.173 OA
ATOM      9  O   UNL     1      36.838 -24.188 -10.005  0.00  0.00    -0.173 OA
ATOM     10  O   UNL     1      38.985 -25.543 -15.263  0.00  0.00    -0.270 OA
ATOM     11  N   UNL     1      38.091 -24.329 -13.474  0.00  0.00    -0.272 N 
ATOM     12  C   UNL     1      37.237 -25.993 -11.875  0.00  0.00    +0.172 C 
ATOM     13  C   UNL     1      35.998 -23.567 -12.418  0.00  0.00    +0.172 C 
ATOM     14  C   UNL     1      38.469 -25.327 -12.469  0.00  0.00    +0.119 C 
ATOM     15  C   UNL     1      37.363 -23.162 -12.954  0.00  0.00    +0.119 C 
ATOM     16  C   UNL     1      38.378 -24.570 -14.820  0.00  0.00    +0.251 C 
ENDBRANCH   2  16
BRANCH   6  17
ATOM     17  O   UNL     1      36.491 -20.904 -18.559  0.00  0.00    -0.455 OA
BRANCH  17  18
ATOM     18  C   UNL     1      36.244 -21.400 -19.869  0.00  0.00    +0.238 C 
BRANCH  18  21
ATOM     19  O   UNL     1      32.581 -21.757 -20.108  0.00  0.00    -0.358 OA
ATOM     20  N   UNL     1      32.760 -20.717 -21.012  0.00  0.00    -0.078 NA
ATOM     21  C   UNL     1      34.771 -21.341 -20.147  0.00  0.00    +0.075 A 
ATOM     22  C   UNL     1      34.076 -20.486 -21.019  0.00  0.00    +0.122 A 
ATOM     23  C   UNL     1      33.785 -22.120 -19.600  0.00  0.00    +0.154 A 
ATOM     24  C   UNL     1      33.777 -23.216 -18.620  0.00  0.00    +0.075 C 
BRANCH  22  26
ATOM     25  F   UNL     1      36.215 -16.499 -24.263  0.00  0.00    -0.204 F 
ATOM     26  C   UNL     1      34.628 -19.456 -21.857  0.00  0.00    +0.021 C 
ATOM     27  C   UNL     1      34.589 -19.590 -23.245  0.00  0.00    +0.004 C 
ATOM     28  C   UNL     1      35.205 -18.322 -21.283  0.00  0.00    +0.004 C 
ATOM     29  C   UNL     1      35.124 -18.590 -24.058  0.00  0.00    +0.030 C 
ATOM     30  C   UNL     1      35.740 -17.323 -22.096  0.00  0.00    +0.030 C 
ATOM     31  C   UNL     1      35.700 -17.458 -23.483  0.00  0.00    +0.140 C 
ENDBRANCH  22  26
ENDBRANCH  18  21
ENDBRANCH  17  18
ENDBRANCH   6  17
TORSDOF 5
ENDMDL
MODEL 7
REMARK VINA RESULT:      -9.7      8.271     13.200
REMARK  Name = 57336276
REMARK  5 active torsions:
REMARK  status: ('A' for Active; 'I' for Inactive)
REMARK    1  A    between atoms: C_2  and  C_16
REMARK    2  A    between atoms: C_6  and  O_17
REMARK    3  A    between atoms: O_17  and  C_18
REMARK    4  A    between atoms: C_18  and  C_21
REMARK    5  A    between atoms: C_22  and  C_26
REMARK                            x       y       z     vdW  Elec       q    Type
REMARK                         _______ _______ _______ _____ _____    ______ ____
ROOT
ATOM      1  N   UNL     1      33.120 -20.872 -20.258  0.00  0.00    -0.210 NA
ATOM      2  C   UNL     1      35.340 -20.089 -20.810  0.00  0.00    +0.073 C 
ATOM      3  C   UNL     1      35.895 -21.175 -20.143  0.00  0.00    +0.011 C 
ATOM      4  C   UNL     1      33.958 -19.984 -20.838  0.00  0.00    +0.107 C 
ATOM      5  C   UNL     1      35.065 -22.110 -19.534  0.00  0.00    +0.058 C 
ATOM      6  C   UNL     1      33.696 -21.914 -19.620  0.00  0.00    +0.225 C 
ENDROOT
BRANCH   2  16
ATOM      7  S   UNL     1      34.631 -17.277 -25.061  0.00  0.00    -0.007 S 
ATOM      8  O   UNL     1      33.598 -16.262 -25.126  0.00  0.00    -0.173 OA
ATOM      9  O   UNL     1      35.271 -17.764 -26.269  0.00  0.00    -0.173 OA
ATOM     10  O   UNL     1      36.979 -18.489 -20.733  0.00  0.00    -0.270 OA
ATOM     11  N   UNL     1      36.031 -18.884 -22.835  0.00  0.00    -0.272 N 
ATOM     12  C   UNL     1      35.903 -16.695 -23.952  0.00  0.00    +0.172 C 
ATOM     13  C   UNL     1      33.971 -18.679 -24.175  0.00  0.00    +0.172 C 
ATOM     14  C   UNL     1      36.807 -17.833 -23.501  0.00  0.00    +0.119 C 
ATOM     15  C   UNL     1      35.082 -19.603 -23.699  0.00  0.00    +0.119 C 
ATOM     16  C   UNL     1      36.189 -19.086 -21.462  0.00  0.00    +0.251 C 
ENDBRANCH   2  16
BRANCH   6  17
ATOM     17  O   UNL     1      32.857 -22.822 -19.028  0.00  0.00    -0.455 OA
BRANCH  17  18
ATOM     18  C   UNL     1      33.458 -23.786 -18.172  0.00  0.00    +0.238 C 
BRANCH  18  21
ATOM     19  O   UNL     1      31.963 -22.931 -14.910  0.00  0.00    -0.358 OA
ATOM     20  N   UNL     1      33.282 -23.105 -14.509  0.00  0.00    -0.078 NA
ATOM     21  C   UNL     1      33.103 -23.468 -16.750  0.00  0.00    +0.075 A 
ATOM     22  C   UNL     1      33.944 -23.426 -15.624  0.00  0.00    +0.122 A 
ATOM     23  C   UNL     1      31.869 -23.149 -16.246  0.00  0.00    +0.154 A 
ATOM     24  C   UNL     1      30.532 -23.004 -16.840  0.00  0.00    +0.075 C 
BRANCH  22  26
ATOM     25  F   UNL     1      39.420 -24.418 -15.456  0.00  0.00    -0.204 F 
ATOM     26  C   UNL     1      35.359 -23.682 -15.581  0.00  0.00    +0.021 C 
ATOM     27  C   UNL     1      36.260 -22.694 -15.978  0.00  0.00    +0.004 C 
ATOM     28  C   UNL     1      35.831 -24.919 -15.141  0.00  0.00    +0.004 C 
ATOM     29  C   UNL     1      37.631 -22.942 -15.935  0.00  0.00    +0.030 C 
ATOM     30  C   UNL     1      37.203 -25.168 -15.099  0.00  0.00    +0.030 C 
ATOM     31  C   UNL     1      38.103 -24.180 -15.497  0.00  0.00    +0.140 C 
ENDBRANCH  22  26
ENDBRANCH  18  21
ENDBRANCH  17  18
ENDBRANCH   6  17
TORSDOF 5
ENDMDL
MODEL 8
REMARK VINA RESULT:      -9.6      4.462      9.390
REMARK  Name = 57336276
REMARK  5 active torsions:
REMARK  status: ('A' for Active; 'I' for Inactive)
REMARK    1  A    between atoms: C_2  and  C_16
REMARK    2  A    between atoms: C_6  and  O_17
REMARK    3  A    between atoms: O_17  and  C_18
REMARK    4  A    between atoms: C_18  and  C_21
REMARK    5  A    between atoms: C_22  and  C_26
REMARK                            x       y       z     vdW  Elec       q    Type
REMARK                         _______ _______ _______ _____ _____    ______ ____
ROOT
ATOM      1  N   UNL     1      32.597  -7.224 -21.622  0.00  0.00    -0.210 NA
ATOM      2  C   UNL     1      31.912  -5.900 -23.526  0.00  0.00    +0.073 C 
ATOM      3  C   UNL     1      31.502  -7.052 -24.187  0.00  0.00    +0.011 C 
ATOM      4  C   UNL     1      32.449  -6.038 -22.256  0.00  0.00    +0.107 C 
ATOM      5  C   UNL     1      31.637  -8.290 -23.567  0.00  0.00    +0.058 C 
ATOM      6  C   UNL     1      32.187  -8.321 -22.296  0.00  0.00    +0.225 C 
ENDROOT
BRANCH   2  16
ATOM      7  S   UNL     1      34.151  -3.876 -27.695  0.00  0.00    -0.007 S 
ATOM      8  O   UNL     1      33.876  -4.395 -29.021  0.00  0.00    -0.173 OA
ATOM      9  O   UNL     1      35.293  -3.013 -27.457  0.00  0.00    -0.173 OA
ATOM     10  O   UNL     1      30.717  -3.994 -23.966  0.00  0.00    -0.270 OA
ATOM     11  N   UNL     1      32.856  -4.102 -24.908  0.00  0.00    -0.272 N 
ATOM     12  C   UNL     1      32.686  -3.035 -27.119  0.00  0.00    +0.172 C 
ATOM     13  C   UNL     1      34.256  -5.262 -26.574  0.00  0.00    +0.172 C 
ATOM     14  C   UNL     1      32.726  -2.823 -25.613  0.00  0.00    +0.119 C 
ATOM     15  C   UNL     1      34.126  -4.811 -25.126  0.00  0.00    +0.119 C 
ATOM     16  C   UNL     1      31.782  -4.580 -24.153  0.00  0.00    +0.251 C 
ENDBRANCH   2  16
BRANCH   6  17
ATOM     17  O   UNL     1      32.331  -9.528 -21.664  0.00  0.00    -0.455 OA
BRANCH  17  18
ATOM     18  C   UNL     1      31.704 -10.649 -22.275  0.00  0.00    +0.238 C 
BRANCH  18  21
ATOM     19  O   UNL     1      32.928 -13.536 -20.332  0.00  0.00    -0.358 OA
ATOM     20  N   UNL     1      33.415 -13.891 -21.583  0.00  0.00    -0.078 NA
ATOM     21  C   UNL     1      32.304 -11.908 -21.722  0.00  0.00    +0.075 A 
ATOM     22  C   UNL     1      33.031 -12.904 -22.397  0.00  0.00    +0.122 A 
ATOM     23  C   UNL     1      32.269 -12.353 -20.427  0.00  0.00    +0.154 A 
ATOM     24  C   UNL     1      31.686 -11.829 -19.184  0.00  0.00    +0.075 C 
BRANCH  22  26
ATOM     25  F   UNL     1      34.338 -13.053 -27.808  0.00  0.00    -0.204 F 
ATOM     26  C   UNL     1      33.369 -12.943 -23.795  0.00  0.00    +0.021 C 
ATOM     27  C   UNL     1      33.884 -11.807 -24.420  0.00  0.00    +0.004 C 
ATOM     28  C   UNL     1      33.181 -14.116 -24.527  0.00  0.00    +0.004 C 
ATOM     29  C   UNL     1      34.212 -11.845 -25.775  0.00  0.00    +0.030 C 
ATOM     30  C   UNL     1      33.508 -14.153 -25.882  0.00  0.00    +0.030 C 
ATOM     31  C   UNL     1      34.023 -13.018 -26.506  0.00  0.00    +0.140 C 
ENDBRANCH  22  26
ENDBRANCH  18  21
ENDBRANCH  17  18
ENDBRANCH   6  17
TORSDOF 5
ENDMDL
MODEL 9
REMARK VINA RESULT:      -9.4      7.842     12.889
REMARK  Name = 57336276
REMARK  5 active torsions:
REMARK  status: ('A' for Active; 'I' for Inactive)
REMARK    1  A    between atoms: C_2  and  C_16
REMARK    2  A    between atoms: C_6  and  O_17
REMARK    3  A    between atoms: O_17  and  C_18
REMARK    4  A    between atoms: C_18  and  C_21
REMARK    5  A    between atoms: C_22  and  C_26
REMARK                            x       y       z     vdW  Elec       q    Type
REMARK                         _______ _______ _______ _____ _____    ______ ____
ROOT
ATOM      1  N   UNL     1      36.501 -20.753 -20.099  0.00  0.00    -0.210 NA
ATOM      2  C   UNL     1      35.349 -18.847 -21.039  0.00  0.00    +0.073 C 
ATOM      3  C   UNL     1      34.143 -19.536 -20.977  0.00  0.00    +0.011 C 
ATOM      4  C   UNL     1      36.490 -19.494 -20.591  0.00  0.00    +0.107 C 
ATOM      5  C   UNL     1      34.115 -20.833 -20.476  0.00  0.00    +0.058 C 
ATOM      6  C   UNL     1      35.310 -21.391 -20.054  0.00  0.00    +0.225 C 
ENDROOT
BRANCH   2  16
ATOM      7  S   UNL     1      34.333 -16.936 -25.708  0.00  0.00    -0.007 S 
ATOM      8  O   UNL     1      32.986 -16.946 -26.245  0.00  0.00    -0.173 OA
ATOM      9  O   UNL     1      35.475 -16.704 -26.571  0.00  0.00    -0.173 OA
ATOM     10  O   UNL     1      35.269 -16.576 -20.737  0.00  0.00    -0.270 OA
ATOM     11  N   UNL     1      35.619 -17.306 -22.933  0.00  0.00    -0.272 N 
ATOM     12  C   UNL     1      34.385 -15.745 -24.380  0.00  0.00    +0.172 C 
ATOM     13  C   UNL     1      34.590 -18.476 -24.843  0.00  0.00    +0.172 C 
ATOM     14  C   UNL     1      35.607 -15.953 -23.498  0.00  0.00    +0.119 C 
ATOM     15  C   UNL     1      35.790 -18.391 -23.911  0.00  0.00    +0.119 C 
ATOM     16  C   UNL     1      35.413 -17.477 -21.562  0.00  0.00    +0.251 C 
ENDBRANCH   2  16
BRANCH   6  17
ATOM     17  O   UNL     1      35.308 -22.668 -19.556  0.00  0.00    -0.455 OA
BRANCH  17  18
ATOM     18  C   UNL     1      34.235 -23.016 -18.689  0.00  0.00    +0.238 C 
BRANCH  18  21
ATOM     19  O   UNL     1      36.002 -22.711 -15.466  0.00  0.00    -0.358 OA
ATOM     20  N   UNL     1      34.736 -23.034 -14.993  0.00  0.00    -0.078 NA
ATOM     21  C   UNL     1      34.712 -22.954 -17.268  0.00  0.00    +0.075 A 
ATOM     22  C   UNL     1      33.983 -23.175 -16.087  0.00  0.00    +0.122 A 
ATOM     23  C   UNL     1      35.976 -22.667 -16.822  0.00  0.00    +0.154 A 
ATOM     24  C   UNL     1      37.242 -22.337 -17.490  0.00  0.00    +0.075 C 
BRANCH  22  26
ATOM     25  F   UNL     1      28.591 -24.490 -15.640  0.00  0.00    -0.204 F 
ATOM     26  C   UNL     1      32.590 -23.514 -15.972  0.00  0.00    +0.021 C 
ATOM     27  C   UNL     1      32.185 -24.506 -15.078  0.00  0.00    +0.004 C 
ATOM     28  C   UNL     1      31.642 -22.853 -16.753  0.00  0.00    +0.004 C 
ATOM     29  C   UNL     1      30.835 -24.835 -14.966  0.00  0.00    +0.030 C 
ATOM     30  C   UNL     1      30.291 -23.183 -16.641  0.00  0.00    +0.030 C 
ATOM     31  C   UNL     1      29.888 -24.174 -15.748  0.00  0.00    +0.140 C 
ENDBRANCH  22  26
ENDBRANCH  18  21
ENDBRANCH  17  18
ENDBRANCH   6  17
TORSDOF 5
ENDMDL
