MODEL 1
REMARK VINA RESULT:     -11.2      0.000      0.000
REMARK  Name = 4565
REMARK  4 active torsions:
REMARK  status: ('A' for Active; 'I' for Inactive)
REMARK    1  A    between atoms: N_5  and  C_15
REMARK    2  A    between atoms: C_6  and  O_21
REMARK    3  A    between atoms: O_21  and  C_22
REMARK    4  A    between atoms: C_22  and  C_23
REMARK                            x       y       z     vdW  Elec       q    Type
REMARK                         _______ _______ _______ _____ _____    ______ ____
ROOT
ATOM      1  N   UNL     1      34.944 -16.004 -23.324  0.00  0.00    -0.293 NA
ATOM      2  N   UNL     1      33.771 -13.199 -25.393  0.00  0.00    -0.266 NA
ATOM      3  N   UNL     1      34.580 -16.577 -25.668  0.00  0.00    -0.316 NA
ATOM      4  N   UNL     1      33.804 -14.716 -27.026  0.00  0.00    -0.296 N 
ATOM      5  N   UNL     1      35.326 -18.171 -24.127  0.00  0.00    -0.238 N 
ATOM      6  C   UNL     1      34.568 -14.724 -23.535  0.00  0.00    +0.288 C 
ATOM      7  C   UNL     1      34.196 -14.360 -24.812  0.00  0.00    +0.215 C 
ATOM      8  C   UNL     1      34.209 -15.287 -25.846  0.00  0.00    +0.196 C 
ATOM      9  C   UNL     1      34.927 -16.841 -24.390  0.00  0.00    +0.207 C 
ATOM     10  C   UNL     1      33.549 -13.462 -26.719  0.00  0.00    +0.164 C 
ATOM     11  H   UNL     1      33.646 -12.333 -24.942  0.00  0.00    +0.126 HD
ATOM     12  H   UNL     1      33.724 -15.149 -27.907  0.00  0.00    +0.150 HD
ATOM     13  H   UNL     1      35.305 -18.756 -24.919  0.00  0.00    +0.166 HD
ENDROOT
BRANCH   5  15
ATOM     14 CL   UNL     1      34.185 -21.283 -20.210  0.00  0.00    -0.082 Cl
ATOM     15  C   UNL     1      35.749 -18.823 -22.954  0.00  0.00    +0.059 C 
ATOM     16  C   UNL     1      34.861 -19.636 -22.244  0.00  0.00    +0.027 C 
ATOM     17  C   UNL     1      37.058 -18.661 -22.494  0.00  0.00    +0.015 C 
ATOM     18  C   UNL     1      35.281 -20.282 -21.082  0.00  0.00    +0.059 C 
ATOM     19  C   UNL     1      37.478 -19.308 -21.332  0.00  0.00    +0.002 C 
ATOM     20  C   UNL     1      36.589 -20.119 -20.626  0.00  0.00    +0.011 C 
ENDBRANCH   5  15
BRANCH   6  21
ATOM     21  O   UNL     1      34.574 -13.850 -22.476  0.00  0.00    -0.453 OA
BRANCH  21  22
ATOM     22  C   UNL     1      33.646 -14.094 -21.435  0.00  0.00    +0.208 C 
BRANCH  22  23
ATOM     23  C   UNL     1      32.983 -12.771 -21.058  0.00  0.00    +0.044 C 
ATOM     24  C   UNL     1      31.962 -12.353 -22.125  0.00  0.00    +0.004 C 
ATOM     25  C   UNL     1      32.319 -12.872 -19.678  0.00  0.00    +0.004 C 
ATOM     26  C   UNL     1      31.246 -11.059 -21.744  0.00  0.00    +0.000 C 
ATOM     27  C   UNL     1      31.602 -11.577 -19.302  0.00  0.00    +0.000 C 
ATOM     28  C   UNL     1      30.595 -11.160 -20.369  0.00  0.00    +0.000 C 
ENDBRANCH  22  23
ENDBRANCH  21  22
ENDBRANCH   6  21
TORSDOF 4
ENDMDL
MODEL 2
REMARK VINA RESULT:     -11.0      7.823     11.030
REMARK  Name = 4565
REMARK  4 active torsions:
REMARK  status: ('A' for Active; 'I' for Inactive)
REMARK    1  A    between atoms: N_5  and  C_15
REMARK    2  A    between atoms: C_6  and  O_21
REMARK    3  A    between atoms: O_21  and  C_22
REMARK    4  A    between atoms: C_22  and  C_23
REMARK                            x       y       z     vdW  Elec       q    Type
REMARK                         _______ _______ _______ _____ _____    ______ ____
ROOT
ATOM      1  N   UNL     1      33.081 -23.542 -16.069  0.00  0.00    -0.293 NA
ATOM      2  N   UNL     1      29.703 -22.763 -17.296  0.00  0.00    -0.266 NA
ATOM      3  N   UNL     1      31.287 -24.285 -14.592  0.00  0.00    -0.316 NA
ATOM      4  N   UNL     1      29.059 -23.763 -15.412  0.00  0.00    -0.296 N 
ATOM      5  N   UNL     1      33.535 -24.651 -14.057  0.00  0.00    -0.238 N 
ATOM      6  C   UNL     1      32.198 -23.032 -16.955  0.00  0.00    +0.288 C 
ATOM      7  C   UNL     1      30.854 -23.143 -16.666  0.00  0.00    +0.215 C 
ATOM      8  C   UNL     1      30.428 -23.762 -15.499  0.00  0.00    +0.196 C 
ATOM      9  C   UNL     1      32.578 -24.130 -14.957  0.00  0.00    +0.207 C 
ATOM     10  C   UNL     1      28.655 -23.156 -16.507  0.00  0.00    +0.164 C 
ATOM     11  H   UNL     1      29.638 -22.292 -18.159  0.00  0.00    +0.126 HD
ATOM     12  H   UNL     1      28.502 -24.136 -14.690  0.00  0.00    +0.150 HD
ATOM     13  H   UNL     1      33.141 -25.072 -13.258  0.00  0.00    +0.166 HD
ENDROOT
BRANCH   5  15
ATOM     14 CL   UNL     1      37.971 -23.149 -11.959  0.00  0.00    -0.082 Cl
ATOM     15  C   UNL     1      34.941 -24.685 -14.078  0.00  0.00    +0.059 C 
ATOM     16  C   UNL     1      35.675 -23.981 -13.120  0.00  0.00    +0.027 C 
ATOM     17  C   UNL     1      35.610 -25.423 -15.058  0.00  0.00    +0.015 C 
ATOM     18  C   UNL     1      37.069 -24.017 -13.142  0.00  0.00    +0.059 C 
ATOM     19  C   UNL     1      37.004 -25.458 -15.079  0.00  0.00    +0.002 C 
ATOM     20  C   UNL     1      37.734 -24.755 -14.121  0.00  0.00    +0.011 C 
ENDBRANCH   5  15
BRANCH   6  21
ATOM     21  O   UNL     1      32.675 -22.429 -18.093  0.00  0.00    -0.453 OA
BRANCH  21  22
ATOM     22  C   UNL     1      33.983 -22.778 -18.506  0.00  0.00    +0.208 C 
BRANCH  22  23
ATOM     23  C   UNL     1      34.307 -22.013 -19.787  0.00  0.00    +0.044 C 
ATOM     24  C   UNL     1      33.230 -20.958 -20.076  0.00  0.00    +0.004 C 
ATOM     25  C   UNL     1      35.695 -21.365 -19.696  0.00  0.00    +0.004 C 
ATOM     26  C   UNL     1      33.559 -20.143 -21.324  0.00  0.00    +0.000 C 
ATOM     27  C   UNL     1      36.019 -20.549 -20.945  0.00  0.00    +0.000 C 
ATOM     28  C   UNL     1      34.942 -19.508 -21.233  0.00  0.00    +0.000 C 
ENDBRANCH  22  23
ENDBRANCH  21  22
ENDBRANCH   6  21
TORSDOF 4
ENDMDL
MODEL 3
REMARK VINA RESULT:     -10.7      8.604     12.004
REMARK  Name = 4565
REMARK  4 active torsions:
REMARK  status: ('A' for Active; 'I' for Inactive)
REMARK    1  A    between atoms: N_5  and  C_15
REMARK    2  A    between atoms: C_6  and  O_21
REMARK    3  A    between atoms: O_21  and  C_22
REMARK    4  A    between atoms: C_22  and  C_23
REMARK                            x       y       z     vdW  Elec       q    Type
REMARK                         _______ _______ _______ _____ _____    ______ ____
ROOT
ATOM      1  N   UNL     1      33.768 -23.973 -14.886  0.00  0.00    -0.293 NA
ATOM      2  N   UNL     1      30.349 -24.015 -16.240  0.00  0.00    -0.266 NA
ATOM      3  N   UNL     1      32.159 -25.170 -13.496  0.00  0.00    -0.316 NA
ATOM      4  N   UNL     1      29.903 -25.191 -14.400  0.00  0.00    -0.296 N 
ATOM      5  N   UNL     1      34.407 -24.986 -12.874  0.00  0.00    -0.238 N 
ATOM      6  C   UNL     1      32.819 -23.672 -15.799  0.00  0.00    +0.288 C 
ATOM      7  C   UNL     1      31.534 -24.117 -15.569  0.00  0.00    +0.215 C 
ATOM      8  C   UNL     1      31.231 -24.852 -14.430  0.00  0.00    +0.196 C 
ATOM      9  C   UNL     1      33.384 -24.694 -13.805  0.00  0.00    +0.207 C 
ATOM     10  C   UNL     1      29.402 -24.674 -15.501  0.00  0.00    +0.164 C 
ATOM     11  H   UNL     1      30.201 -23.553 -17.097  0.00  0.00    +0.126 HD
ATOM     12  H   UNL     1      29.429 -25.708 -13.708  0.00  0.00    +0.150 HD
ATOM     13  H   UNL     1      34.100 -25.511 -12.099  0.00  0.00    +0.166 HD
ENDROOT
BRANCH   5  15
ATOM     14 CL   UNL     1      39.172 -26.066 -14.440  0.00  0.00    -0.082 Cl
ATOM     15  C   UNL     1      35.778 -24.674 -12.838  0.00  0.00    +0.059 C 
ATOM     16  C   UNL     1      36.691 -25.436 -13.571  0.00  0.00    +0.027 C 
ATOM     17  C   UNL     1      36.233 -23.600 -12.068  0.00  0.00    +0.015 C 
ATOM     18  C   UNL     1      38.050 -25.125 -13.535  0.00  0.00    +0.059 C 
ATOM     19  C   UNL     1      37.592 -23.289 -12.033  0.00  0.00    +0.002 C 
ATOM     20  C   UNL     1      38.501 -24.053 -12.767  0.00  0.00    +0.011 C 
ENDBRANCH   5  15
BRANCH   6  21
ATOM     21  O   UNL     1      33.174 -22.942 -16.907  0.00  0.00    -0.453 OA
BRANCH  21  22
ATOM     22  C   UNL     1      34.436 -23.220 -17.483  0.00  0.00    +0.208 C 
BRANCH  22  23
ATOM     23  C   UNL     1      34.472 -22.618 -18.887  0.00  0.00    +0.044 C 
ATOM     24  C   UNL     1      33.243 -21.729 -19.126  0.00  0.00    +0.004 C 
ATOM     25  C   UNL     1      35.769 -21.827 -19.104  0.00  0.00    +0.004 C 
ATOM     26  C   UNL     1      33.283 -21.073 -20.504  0.00  0.00    +0.000 C 
ATOM     27  C   UNL     1      35.803 -21.170 -20.482  0.00  0.00    +0.000 C 
ATOM     28  C   UNL     1      34.576 -20.295 -20.720  0.00  0.00    +0.000 C 
ENDBRANCH  22  23
ENDBRANCH  21  22
ENDBRANCH   6  21
TORSDOF 4
ENDMDL
MODEL 4
REMARK VINA RESULT:     -10.3      7.829     12.155
REMARK  Name = 4565
REMARK  4 active torsions:
REMARK  status: ('A' for Active; 'I' for Inactive)
REMARK    1  A    between atoms: N_5  and  C_15
REMARK    2  A    between atoms: C_6  and  O_21
REMARK    3  A    between atoms: O_21  and  C_22
REMARK    4  A    between atoms: C_22  and  C_23
REMARK                            x       y       z     vdW  Elec       q    Type
REMARK                         _______ _______ _______ _____ _____    ______ ____
ROOT
ATOM      1  N   UNL     1      33.845 -23.137 -16.475  0.00  0.00    -0.293 NA
ATOM      2  N   UNL     1      32.188 -24.749 -13.615  0.00  0.00    -0.266 NA
ATOM      3  N   UNL     1      31.453 -23.505 -16.785  0.00  0.00    -0.316 NA
ATOM      4  N   UNL     1      30.368 -24.571 -14.890  0.00  0.00    -0.296 N 
ATOM      5  N   UNL     1      32.756 -22.496 -18.447  0.00  0.00    -0.238 N 
ATOM      6  C   UNL     1      33.813 -23.689 -15.243  0.00  0.00    +0.288 C 
ATOM      7  C   UNL     1      32.602 -24.152 -14.772  0.00  0.00    +0.215 C 
ATOM      8  C   UNL     1      31.454 -24.052 -15.546  0.00  0.00    +0.196 C 
ATOM      9  C   UNL     1      32.678 -23.080 -17.162  0.00  0.00    +0.207 C 
ATOM     10  C   UNL     1      30.843 -24.981 -13.733  0.00  0.00    +0.164 C 
ATOM     11  H   UNL     1      32.752 -24.973 -12.840  0.00  0.00    +0.126 HD
ATOM     12  H   UNL     1      29.439 -24.625 -15.212  0.00  0.00    +0.150 HD
ATOM     13  H   UNL     1      31.894 -22.468 -18.922  0.00  0.00    +0.166 HD
ENDROOT
BRANCH   5  15
ATOM     14 CL   UNL     1      34.316 -19.502 -22.310  0.00  0.00    -0.082 Cl
ATOM     15  C   UNL     1      33.824 -21.949 -19.180  0.00  0.00    +0.059 C 
ATOM     16  C   UNL     1      33.571 -21.096 -20.258  0.00  0.00    +0.027 C 
ATOM     17  C   UNL     1      35.143 -22.254 -18.833  0.00  0.00    +0.015 C 
ATOM     18  C   UNL     1      34.631 -20.553 -20.983  0.00  0.00    +0.059 C 
ATOM     19  C   UNL     1      36.202 -21.710 -19.559  0.00  0.00    +0.002 C 
ATOM     20  C   UNL     1      35.946 -20.859 -20.635  0.00  0.00    +0.011 C 
ENDBRANCH   5  15
BRANCH   6  21
ATOM     21  O   UNL     1      34.978 -23.763 -14.519  0.00  0.00    -0.453 OA
BRANCH  21  22
ATOM     22  C   UNL     1      36.094 -23.052 -15.023  0.00  0.00    +0.208 C 
BRANCH  22  23
ATOM     23  C   UNL     1      37.357 -23.605 -14.367  0.00  0.00    +0.044 C 
ATOM     24  C   UNL     1      37.148 -23.787 -12.857  0.00  0.00    +0.004 C 
ATOM     25  C   UNL     1      37.774 -24.928 -15.023  0.00  0.00    +0.004 C 
ATOM     26  C   UNL     1      38.381 -24.389 -12.186  0.00  0.00    +0.000 C 
ATOM     27  C   UNL     1      39.005 -25.529 -14.348  0.00  0.00    +0.000 C 
ATOM     28  C   UNL     1      38.797 -25.699 -12.846  0.00  0.00    +0.000 C 
ENDBRANCH  22  23
ENDBRANCH  21  22
ENDBRANCH   6  21
TORSDOF 4
ENDMDL
MODEL 5
REMARK VINA RESULT:     -10.3      8.329     12.078
REMARK  Name = 4565
REMARK  4 active torsions:
REMARK  status: ('A' for Active; 'I' for Inactive)
REMARK    1  A    between atoms: N_5  and  C_15
REMARK    2  A    between atoms: C_6  and  O_21
REMARK    3  A    between atoms: O_21  and  C_22
REMARK    4  A    between atoms: C_22  and  C_23
REMARK                            x       y       z     vdW  Elec       q    Type
REMARK                         _______ _______ _______ _____ _____    ______ ____
ROOT
ATOM      1  N   UNL     1      35.377 -23.735 -15.968  0.00  0.00    -0.293 NA
ATOM      2  N   UNL     1      36.204 -25.570 -12.889  0.00  0.00    -0.266 NA
ATOM      3  N   UNL     1      37.749 -23.707 -15.395  0.00  0.00    -0.316 NA
ATOM      4  N   UNL     1      38.284 -24.921 -13.359  0.00  0.00    -0.296 N 
ATOM      5  N   UNL     1      36.943 -22.619 -17.304  0.00  0.00    -0.238 N 
ATOM      6  C   UNL     1      35.081 -24.481 -14.881  0.00  0.00    +0.288 C 
ATOM      7  C   UNL     1      36.115 -24.845 -14.043  0.00  0.00    +0.215 C 
ATOM      8  C   UNL     1      37.419 -24.453 -14.315  0.00  0.00    +0.196 C 
ATOM      9  C   UNL     1      36.676 -23.399 -16.155  0.00  0.00    +0.207 C 
ATOM     10  C   UNL     1      37.523 -25.588 -12.518  0.00  0.00    +0.164 C 
ATOM     11  H   UNL     1      35.459 -26.000 -12.411  0.00  0.00    +0.126 HD
ATOM     12  H   UNL     1      39.259 -24.788 -13.313  0.00  0.00    +0.150 HD
ATOM     13  H   UNL     1      37.895 -22.389 -17.415  0.00  0.00    +0.166 HD
ENDROOT
BRANCH   5  15
ATOM     14 CL   UNL     1      36.432 -19.549 -21.383  0.00  0.00    -0.082 Cl
ATOM     15  C   UNL     1      36.116 -22.105 -18.318  0.00  0.00    +0.059 C 
ATOM     16  C   UNL     1      36.624 -21.187 -19.241  0.00  0.00    +0.027 C 
ATOM     17  C   UNL     1      34.782 -22.511 -18.408  0.00  0.00    +0.015 C 
ATOM     18  C   UNL     1      35.803 -20.680 -20.247  0.00  0.00    +0.059 C 
ATOM     19  C   UNL     1      33.961 -22.004 -19.415  0.00  0.00    +0.002 C 
ATOM     20  C   UNL     1      34.472 -21.087 -20.335  0.00  0.00    +0.011 C 
ENDBRANCH   5  15
BRANCH   6  21
ATOM     21  O   UNL     1      33.774 -24.840 -14.661  0.00  0.00    -0.453 OA
BRANCH  21  22
ATOM     22  C   UNL     1      33.066 -24.115 -13.672  0.00  0.00    +0.208 C 
BRANCH  22  23
ATOM     23  C   UNL     1      31.608 -23.993 -14.111  0.00  0.00    +0.044 C 
ATOM     24  C   UNL     1      31.473 -22.996 -15.271  0.00  0.00    +0.004 C 
ATOM     25  C   UNL     1      31.044 -25.365 -14.503  0.00  0.00    +0.004 C 
ATOM     26  C   UNL     1      30.031 -22.896 -15.763  0.00  0.00    +0.000 C 
ATOM     27  C   UNL     1      29.603 -25.261 -14.998  0.00  0.00    +0.000 C 
ATOM     28  C   UNL     1      29.471 -24.262 -16.144  0.00  0.00    +0.000 C 
ENDBRANCH  22  23
ENDBRANCH  21  22
ENDBRANCH   6  21
TORSDOF 4
ENDMDL
MODEL 6
REMARK VINA RESULT:     -10.1      7.766     10.844
REMARK  Name = 4565
REMARK  4 active torsions:
REMARK  status: ('A' for Active; 'I' for Inactive)
REMARK    1  A    between atoms: N_5  and  C_15
REMARK    2  A    between atoms: C_6  and  O_21
REMARK    3  A    between atoms: O_21  and  C_22
REMARK    4  A    between atoms: C_22  and  C_23
REMARK                            x       y       z     vdW  Elec       q    Type
REMARK                         _______ _______ _______ _____ _____    ______ ____
ROOT
ATOM      1  N   UNL     1      35.604 -23.366 -16.580  0.00  0.00    -0.293 NA
ATOM      2  N   UNL     1      33.935 -21.804 -19.461  0.00  0.00    -0.266 NA
ATOM      3  N   UNL     1      37.076 -22.000 -17.968  0.00  0.00    -0.316 NA
ATOM      4  N   UNL     1      35.963 -20.974 -19.869  0.00  0.00    -0.296 N 
ATOM      5  N   UNL     1      37.875 -23.111 -16.069  0.00  0.00    -0.238 N 
ATOM      6  C   UNL     1      34.542 -23.099 -17.371  0.00  0.00    +0.288 C 
ATOM      7  C   UNL     1      34.738 -22.283 -18.466  0.00  0.00    +0.215 C 
ATOM      8  C   UNL     1      35.992 -21.753 -18.741  0.00  0.00    +0.196 C 
ATOM      9  C   UNL     1      36.790 -22.807 -16.923  0.00  0.00    +0.207 C 
ATOM     10  C   UNL     1      34.713 -21.025 -20.277  0.00  0.00    +0.164 C 
ATOM     11  H   UNL     1      32.973 -21.985 -19.573  0.00  0.00    +0.126 HD
ATOM     12  H   UNL     1      36.711 -20.484 -20.281  0.00  0.00    +0.150 HD
ATOM     13  H   UNL     1      38.724 -22.691 -16.342  0.00  0.00    +0.166 HD
ENDROOT
BRANCH   5  15
ATOM     14 CL   UNL     1      36.722 -23.739 -11.109  0.00  0.00    -0.082 Cl
ATOM     15  C   UNL     1      37.980 -23.895 -14.907  0.00  0.00    +0.059 C 
ATOM     16  C   UNL     1      37.371 -23.477 -13.721  0.00  0.00    +0.027 C 
ATOM     17  C   UNL     1      38.694 -25.096 -14.932  0.00  0.00    +0.015 C 
ATOM     18  C   UNL     1      37.475 -24.256 -12.569  0.00  0.00    +0.059 C 
ATOM     19  C   UNL     1      38.797 -25.875 -13.780  0.00  0.00    +0.002 C 
ATOM     20  C   UNL     1      38.187 -25.455 -12.597  0.00  0.00    +0.011 C 
ENDBRANCH   5  15
BRANCH   6  21
ATOM     21  O   UNL     1      33.325 -23.650 -17.053  0.00  0.00    -0.453 OA
BRANCH  21  22
ATOM     22  C   UNL     1      32.992 -23.725 -15.679  0.00  0.00    +0.208 C 
BRANCH  22  23
ATOM     23  C   UNL     1      31.476 -23.606 -15.541  0.00  0.00    +0.044 C 
ATOM     24  C   UNL     1      30.875 -22.888 -16.758  0.00  0.00    +0.004 C 
ATOM     25  C   UNL     1      30.838 -24.988 -15.353  0.00  0.00    +0.004 C 
ATOM     26  C   UNL     1      29.353 -22.803 -16.667  0.00  0.00    +0.000 C 
ATOM     27  C   UNL     1      29.316 -24.900 -15.266  0.00  0.00    +0.000 C 
ATOM     28  C   UNL     1      28.724 -24.178 -16.472  0.00  0.00    +0.000 C 
ENDBRANCH  22  23
ENDBRANCH  21  22
ENDBRANCH   6  21
TORSDOF 4
ENDMDL
MODEL 7
REMARK VINA RESULT:      -9.9      1.171      1.822
REMARK  Name = 4565
REMARK  4 active torsions:
REMARK  status: ('A' for Active; 'I' for Inactive)
REMARK    1  A    between atoms: N_5  and  C_15
REMARK    2  A    between atoms: C_6  and  O_21
REMARK    3  A    between atoms: O_21  and  C_22
REMARK    4  A    between atoms: C_22  and  C_23
REMARK                            x       y       z     vdW  Elec       q    Type
REMARK                         _______ _______ _______ _____ _____    ______ ____
ROOT
ATOM      1  N   UNL     1      34.495 -15.717 -23.812  0.00  0.00    -0.293 NA
ATOM      2  N   UNL     1      33.648 -12.817 -25.908  0.00  0.00    -0.266 NA
ATOM      3  N   UNL     1      34.393 -16.208 -26.200  0.00  0.00    -0.316 NA
ATOM      4  N   UNL     1      33.831 -14.285 -27.576  0.00  0.00    -0.296 N 
ATOM      5  N   UNL     1      34.911 -17.870 -24.636  0.00  0.00    -0.238 N 
ATOM      6  C   UNL     1      34.182 -14.421 -24.022  0.00  0.00    +0.288 C 
ATOM      7  C   UNL     1      33.971 -14.007 -25.321  0.00  0.00    +0.215 C 
ATOM      8  C   UNL     1      34.079 -14.902 -26.377  0.00  0.00    +0.196 C 
ATOM      9  C   UNL     1      34.580 -16.521 -24.900  0.00  0.00    +0.207 C 
ATOM     10  C   UNL     1      33.576 -13.033 -27.259  0.00  0.00    +0.164 C 
ATOM     11  H   UNL     1      33.495 -11.961 -25.447  0.00  0.00    +0.126 HD
ATOM     12  H   UNL     1      33.842 -14.688 -28.474  0.00  0.00    +0.150 HD
ATOM     13  H   UNL     1      34.966 -18.430 -25.444  0.00  0.00    +0.166 HD
ENDROOT
BRANCH   5  15
ATOM     14 CL   UNL     1      38.040 -18.672 -20.650  0.00  0.00    -0.082 Cl
ATOM     15  C   UNL     1      35.175 -18.569 -23.444  0.00  0.00    +0.059 C 
ATOM     16  C   UNL     1      36.342 -18.306 -22.721  0.00  0.00    +0.027 C 
ATOM     17  C   UNL     1      34.274 -19.529 -22.979  0.00  0.00    +0.015 C 
ATOM     18  C   UNL     1      36.603 -18.999 -21.539  0.00  0.00    +0.059 C 
ATOM     19  C   UNL     1      34.535 -20.221 -21.797  0.00  0.00    +0.002 C 
ATOM     20  C   UNL     1      35.701 -19.956 -21.077  0.00  0.00    +0.011 C 
ENDBRANCH   5  15
BRANCH   6  21
ATOM     21  O   UNL     1      34.087 -13.578 -22.941  0.00  0.00    -0.453 OA
BRANCH  21  22
ATOM     22  C   UNL     1      33.414 -14.072 -21.798  0.00  0.00    +0.208 C 
BRANCH  22  23
ATOM     23  C   UNL     1      32.331 -13.070 -21.403  0.00  0.00    +0.044 C 
ATOM     24  C   UNL     1      32.443 -12.710 -19.915  0.00  0.00    +0.004 C 
ATOM     25  C   UNL     1      32.413 -11.811 -22.277  0.00  0.00    +0.004 C 
ATOM     26  C   UNL     1      31.404 -11.668 -19.507  0.00  0.00    +0.000 C 
ATOM     27  C   UNL     1      31.374 -10.771 -21.865  0.00  0.00    +0.000 C 
ATOM     28  C   UNL     1      31.482 -10.422 -20.383  0.00  0.00    +0.000 C 
ENDBRANCH  22  23
ENDBRANCH  21  22
ENDBRANCH   6  21
TORSDOF 4
ENDMDL
MODEL 8
REMARK VINA RESULT:      -9.8      5.904     10.012
REMARK  Name = 4565
REMARK  4 active torsions:
REMARK  status: ('A' for Active; 'I' for Inactive)
REMARK    1  A    between atoms: N_5  and  C_15
REMARK    2  A    between atoms: C_6  and  O_21
REMARK    3  A    between atoms: O_21  and  C_22
REMARK    4  A    between atoms: C_22  and  C_23
REMARK                            x       y       z     vdW  Elec       q    Type
REMARK                         _______ _______ _______ _____ _____    ______ ____
ROOT
ATOM      1  N   UNL     1      32.609  -9.125 -22.310  0.00  0.00    -0.293 NA
ATOM      2  N   UNL     1      31.812 -11.946 -20.090  0.00  0.00    -0.266 NA
ATOM      3  N   UNL     1      32.486  -8.531 -19.947  0.00  0.00    -0.316 NA
ATOM      4  N   UNL     1      31.958 -10.403 -18.489  0.00  0.00    -0.296 N 
ATOM      5  N   UNL     1      32.977  -6.930 -21.581  0.00  0.00    -0.238 N 
ATOM      6  C   UNL     1      32.321 -10.417 -22.044  0.00  0.00    +0.288 C 
ATOM      7  C   UNL     1      32.113 -10.777 -20.729  0.00  0.00    +0.215 C 
ATOM      8  C   UNL     1      32.199  -9.834 -19.713  0.00  0.00    +0.196 C 
ATOM      9  C   UNL     1      32.673  -8.273 -21.259  0.00  0.00    +0.207 C 
ATOM     10  C   UNL     1      31.730 -11.672 -18.751  0.00  0.00    +0.164 C 
ATOM     11  H   UNL     1      31.678 -12.825 -20.514  0.00  0.00    +0.126 HD
ATOM     12  H   UNL     1      31.957  -9.960 -17.609  0.00  0.00    +0.150 HD
ATOM     13  H   UNL     1      33.017  -6.334 -20.798  0.00  0.00    +0.166 HD
ENDROOT
BRANCH   5  15
ATOM     14 CL   UNL     1      31.636  -3.311 -24.962  0.00  0.00    -0.082 Cl
ATOM     15  C   UNL     1      33.233  -6.279 -22.801  0.00  0.00    +0.059 C 
ATOM     16  C   UNL     1      32.404  -5.239 -23.228  0.00  0.00    +0.027 C 
ATOM     17  C   UNL     1      34.317  -6.670 -23.591  0.00  0.00    +0.015 C 
ATOM     18  C   UNL     1      32.658  -4.593 -24.438  0.00  0.00    +0.059 C 
ATOM     19  C   UNL     1      34.571  -6.024 -24.801  0.00  0.00    +0.002 C 
ATOM     20  C   UNL     1      33.741  -4.985 -25.224  0.00  0.00    +0.011 C 
ENDBRANCH   5  15
BRANCH   6  21
ATOM     21  O   UNL     1      32.248 -11.308 -23.087  0.00  0.00    -0.453 OA
BRANCH  21  22
ATOM     22  C   UNL     1      33.465 -11.664 -23.715  0.00  0.00    +0.208 C 
BRANCH  22  23
ATOM     23  C   UNL     1      33.548 -13.187 -23.783  0.00  0.00    +0.044 C 
ATOM     24  C   UNL     1      33.763 -13.654 -25.230  0.00  0.00    +0.004 C 
ATOM     25  C   UNL     1      34.664 -13.711 -22.869  0.00  0.00    +0.004 C 
ATOM     26  C   UNL     1      33.902 -15.172 -25.317  0.00  0.00    +0.000 C 
ATOM     27  C   UNL     1      34.802 -15.229 -22.961  0.00  0.00    +0.000 C 
ATOM     28  C   UNL     1      35.006 -15.690 -24.401  0.00  0.00    +0.000 C 
ENDBRANCH  22  23
ENDBRANCH  21  22
ENDBRANCH   6  21
TORSDOF 4
ENDMDL
MODEL 9
REMARK VINA RESULT:      -9.8      8.401     12.406
REMARK  Name = 4565
REMARK  4 active torsions:
REMARK  status: ('A' for Active; 'I' for Inactive)
REMARK    1  A    between atoms: N_5  and  C_15
REMARK    2  A    between atoms: C_6  and  O_21
REMARK    3  A    between atoms: O_21  and  C_22
REMARK    4  A    between atoms: C_22  and  C_23
REMARK                            x       y       z     vdW  Elec       q    Type
REMARK                         _______ _______ _______ _____ _____    ______ ____
ROOT
ATOM      1  N   UNL     1      33.233 -23.643 -16.174  0.00  0.00    -0.293 NA
ATOM      2  N   UNL     1      30.688 -25.202 -14.025  0.00  0.00    -0.266 NA
ATOM      3  N   UNL     1      30.979 -23.600 -17.106  0.00  0.00    -0.316 NA
ATOM      4  N   UNL     1      29.305 -24.634 -15.679  0.00  0.00    -0.296 N 
ATOM      5  N   UNL     1      32.792 -22.678 -18.261  0.00  0.00    -0.238 N 
ATOM      6  C   UNL     1      32.807 -24.282 -15.063  0.00  0.00    +0.288 C 
ATOM      7  C   UNL     1      31.465 -24.585 -14.964  0.00  0.00    +0.215 C 
ATOM      8  C   UNL     1      30.584 -24.241 -15.980  0.00  0.00    +0.196 C 
ATOM      9  C   UNL     1      32.305 -23.346 -17.115  0.00  0.00    +0.207 C 
ATOM     10  C   UNL     1      29.402 -25.207 -14.498  0.00  0.00    +0.164 C 
ATOM     11  H   UNL     1      30.994 -25.575 -13.167  0.00  0.00    +0.126 HD
ATOM     12  H   UNL     1      28.494 -24.513 -16.224  0.00  0.00    +0.150 HD
ATOM     13  H   UNL     1      32.096 -22.474 -18.928  0.00  0.00    +0.166 HD
ENDROOT
BRANCH   5  15
ATOM     14 CL   UNL     1      37.779 -22.303 -17.113  0.00  0.00    -0.082 Cl
ATOM     15  C   UNL     1      34.077 -22.248 -18.637  0.00  0.00    +0.059 C 
ATOM     16  C   UNL     1      35.166 -22.463 -17.788  0.00  0.00    +0.027 C 
ATOM     17  C   UNL     1      34.272 -21.604 -19.862  0.00  0.00    +0.015 C 
ATOM     18  C   UNL     1      36.440 -22.037 -18.162  0.00  0.00    +0.059 C 
ATOM     19  C   UNL     1      35.546 -21.179 -20.235  0.00  0.00    +0.002 C 
ATOM     20  C   UNL     1      36.631 -21.395 -19.385  0.00  0.00    +0.011 C 
ENDBRANCH   5  15
BRANCH   6  21
ATOM     21  O   UNL     1      33.723 -24.599 -14.089  0.00  0.00    -0.453 OA
BRANCH  21  22
ATOM     22  C   UNL     1      34.969 -23.929 -14.135  0.00  0.00    +0.208 C 
BRANCH  22  23
ATOM     23  C   UNL     1      36.081 -24.966 -13.989  0.00  0.00    +0.044 C 
ATOM     24  C   UNL     1      36.252 -25.765 -15.289  0.00  0.00    +0.004 C 
ATOM     25  C   UNL     1      37.399 -24.293 -13.584  0.00  0.00    +0.004 C 
ATOM     26  C   UNL     1      37.395 -26.773 -15.185  0.00  0.00    +0.000 C 
ATOM     27  C   UNL     1      38.540 -25.304 -13.484  0.00  0.00    +0.000 C 
ATOM     28  C   UNL     1      38.701 -26.102 -14.774  0.00  0.00    +0.000 C 
ENDBRANCH  22  23
ENDBRANCH  21  22
ENDBRANCH   6  21
TORSDOF 4
ENDMDL
