MODEL 1
REMARK VINA RESULT:     -12.1      0.000      0.000
REMARK  Name = 11697676
REMARK  7 active torsions:
REMARK  status: ('A' for Active; 'I' for Inactive)
REMARK    1  A    between atoms: N_1  and  C_18
REMARK    2  A    between atoms: N_2  and  C_8
REMARK    3  A    between atoms: C_18  and  C_19
REMARK    4  A    between atoms: C_19  and  C_20
REMARK    5  A    between atoms: C_20  and  C_21
REMARK    6  A    between atoms: C_21  and  O_22
REMARK    7  A    between atoms: O_22  and  C_28
REMARK                            x       y       z     vdW  Elec       q    Type
REMARK                         _______ _______ _______ _____ _____    ______ ____
ROOT
ATOM      1  N   UNL     1      32.097  -8.223 -20.776  0.00  0.00    +0.389 N 
ATOM      2  N   UNL     1      32.300  -6.204 -22.786  0.00  0.00    -0.312 N 
ATOM      3  C   UNL     1      33.067  -7.130 -20.635  0.00  0.00    -0.055 C 
ATOM      4  C   UNL     1      31.935  -8.567 -22.194  0.00  0.00    -0.055 C 
ATOM      5  C   UNL     1      32.600  -5.881 -21.386  0.00  0.00    +0.068 C 
ATOM      6  C   UNL     1      31.431  -7.365 -22.997  0.00  0.00    +0.068 C 
ATOM      7  H   UNL     1      31.197  -7.914 -20.406  0.00  0.00    -0.080 HD
ENDROOT
BRANCH   2   8
ATOM      8  C   UNL     1      32.300  -5.158 -23.717  0.00  0.00    +0.048 C 
ATOM      9  C   UNL     1      33.284  -5.035 -24.737  0.00  0.00    +0.013 C 
ATOM     10  C   UNL     1      31.284  -4.181 -23.646  0.00  0.00    +0.015 C 
ATOM     11  C   UNL     1      33.237  -3.957 -25.652  0.00  0.00    +0.001 C 
ATOM     12  C   UNL     1      34.314  -5.984 -24.845  0.00  0.00    +0.001 C 
ATOM     13  C   UNL     1      31.237  -3.121 -24.547  0.00  0.00    +0.001 C 
ATOM     14  C   UNL     1      32.206  -3.009 -25.544  0.00  0.00    +0.000 C 
ATOM     15  C   UNL     1      34.221  -3.859 -26.649  0.00  0.00    +0.000 C 
ATOM     16  C   UNL     1      35.283  -5.871 -25.842  0.00  0.00    +0.000 C 
ATOM     17  C   UNL     1      35.237  -4.811 -26.743  0.00  0.00    +0.000 C 
ENDBRANCH   2   8
BRANCH   1  18
ATOM     18  C   UNL     1      32.527  -9.392 -20.010  0.00  0.00    -0.077 C 
BRANCH  18  19
ATOM     19  C   UNL     1      31.386 -10.403 -19.900  0.00  0.00    -0.019 C 
BRANCH  19  20
ATOM     20  C   UNL     1      31.762 -11.562 -18.978  0.00  0.00    +0.045 C 
BRANCH  20  21
ATOM     21  C   UNL     1      32.115 -12.816 -19.766  0.00  0.00    +0.208 C 
BRANCH  21  22
ATOM     22  O   UNL     1      32.367 -12.478 -21.123  0.00  0.00    -0.452 OA
BRANCH  22  28
ATOM     23  O   UNL     1      33.741 -15.303 -27.357  0.00  0.00    -0.275 OA
ATOM     24  N   UNL     1      33.359 -14.366 -25.295  0.00  0.00    -0.263 N 
ATOM     25  N   UNL     1      32.866 -13.420 -23.184  0.00  0.00    -0.357 NA
ATOM     26  C   UNL     1      34.569 -15.128 -23.350  0.00  0.00    +0.090 C 
ATOM     27  C   UNL     1      35.415 -15.999 -24.229  0.00  0.00    +0.022 C 
ATOM     28  C   UNL     1      33.109 -13.368 -21.855  0.00  0.00    +0.278 C 
ATOM     29  C   UNL     1      33.591 -14.305 -23.908  0.00  0.00    +0.170 C 
ATOM     30  C   UNL     1      34.634 -16.452 -25.452  0.00  0.00    +0.086 C 
ATOM     31  C   UNL     1      34.798 -15.033 -21.977  0.00  0.00    -0.012 C 
ATOM     32  C   UNL     1      34.053 -14.147 -21.209  0.00  0.00    +0.068 C 
ATOM     33  C   UNL     1      33.906 -15.314 -26.137  0.00  0.00    +0.228 C 
ATOM     34  H   UNL     1      32.767 -13.686 -25.692  0.00  0.00    +0.157 HD
ENDBRANCH  22  28
ENDBRANCH  21  22
ENDBRANCH  20  21
ENDBRANCH  19  20
ENDBRANCH  18  19
ENDBRANCH   1  18
TORSDOF 7
ENDMDL
MODEL 2
REMARK VINA RESULT:     -12.0      8.069     12.406
REMARK  Name = 11697676
REMARK  7 active torsions:
REMARK  status: ('A' for Active; 'I' for Inactive)
REMARK    1  A    between atoms: N_1  and  C_18
REMARK    2  A    between atoms: N_2  and  C_8
REMARK    3  A    between atoms: C_18  and  C_19
REMARK    4  A    between atoms: C_19  and  C_20
REMARK    5  A    between atoms: C_20  and  C_21
REMARK    6  A    between atoms: C_21  and  O_22
REMARK    7  A    between atoms: O_22  and  C_28
REMARK                            x       y       z     vdW  Elec       q    Type
REMARK                         _______ _______ _______ _____ _____    ______ ____
ROOT
ATOM      1  N   UNL     1      36.105 -20.959 -20.613  0.00  0.00    +0.389 N 
ATOM      2  N   UNL     1      35.559 -18.646 -22.197  0.00  0.00    -0.312 N 
ATOM      3  C   UNL     1      34.722 -20.512 -20.822  0.00  0.00    -0.055 C 
ATOM      4  C   UNL     1      37.004 -19.799 -20.569  0.00  0.00    -0.055 C 
ATOM      5  C   UNL     1      34.587 -19.744 -22.139  0.00  0.00    +0.068 C 
ATOM      6  C   UNL     1      36.943 -19.007 -21.878  0.00  0.00    +0.068 C 
ATOM      7  H   UNL     1      36.379 -21.559 -21.392  0.00  0.00    -0.080 HD
ENDROOT
BRANCH   2   8
ATOM      8  C   UNL     1      35.303 -17.587 -23.076  0.00  0.00    +0.048 C 
ATOM      9  C   UNL     1      35.012 -16.268 -22.628  0.00  0.00    +0.013 C 
ATOM     10  C   UNL     1      35.332 -17.830 -24.466  0.00  0.00    +0.015 C 
ATOM     11  C   UNL     1      34.760 -15.234 -23.560  0.00  0.00    +0.001 C 
ATOM     12  C   UNL     1      34.972 -15.980 -21.255  0.00  0.00    +0.001 C 
ATOM     13  C   UNL     1      35.085 -16.812 -25.383  0.00  0.00    +0.001 C 
ATOM     14  C   UNL     1      34.802 -15.522 -24.934  0.00  0.00    +0.000 C 
ATOM     15  C   UNL     1      34.476 -13.941 -23.091  0.00  0.00    +0.000 C 
ATOM     16  C   UNL     1      34.688 -14.690 -20.806  0.00  0.00    +0.000 C 
ATOM     17  C   UNL     1      34.440 -13.672 -21.722  0.00  0.00    +0.000 C 
ENDBRANCH   2   8
BRANCH   1  18
ATOM     18  C   UNL     1      36.212 -21.738 -19.380  0.00  0.00    -0.077 C 
BRANCH  18  19
ATOM     19  C   UNL     1      37.174 -21.060 -18.406  0.00  0.00    -0.019 C 
BRANCH  19  20
ATOM     20  C   UNL     1      37.601 -22.018 -17.295  0.00  0.00    +0.045 C 
BRANCH  20  21
ATOM     21  C   UNL     1      36.475 -22.264 -16.300  0.00  0.00    +0.208 C 
BRANCH  21  22
ATOM     22  O   UNL     1      35.882 -23.531 -16.547  0.00  0.00    -0.452 OA
BRANCH  22  28
ATOM     23  O   UNL     1      29.040 -22.422 -17.374  0.00  0.00    -0.275 OA
ATOM     24  N   UNL     1      31.277 -22.856 -17.088  0.00  0.00    -0.263 N 
ATOM     25  N   UNL     1      33.600 -23.202 -16.805  0.00  0.00    -0.357 NA
ATOM     26  C   UNL     1      32.061 -24.084 -15.163  0.00  0.00    +0.090 C 
ATOM     27  C   UNL     1      30.640 -24.345 -14.763  0.00  0.00    +0.022 C 
ATOM     28  C   UNL     1      34.610 -23.723 -16.073  0.00  0.00    +0.278 C 
ATOM     29  C   UNL     1      32.343 -23.381 -16.334  0.00  0.00    +0.170 C 
ATOM     30  C   UNL     1      29.733 -23.213 -15.220  0.00  0.00    +0.086 C 
ATOM     31  C   UNL     1      33.132 -24.617 -14.445  0.00  0.00    -0.012 C 
ATOM     32  C   UNL     1      34.431 -24.428 -14.897  0.00  0.00    +0.068 C 
ATOM     33  C   UNL     1      29.963 -22.826 -16.666  0.00  0.00    +0.228 C 
ATOM     34  H   UNL     1      31.482 -22.484 -17.977  0.00  0.00    +0.157 HD
ENDBRANCH  22  28
ENDBRANCH  21  22
ENDBRANCH  20  21
ENDBRANCH  19  20
ENDBRANCH  18  19
ENDBRANCH   1  18
TORSDOF 7
ENDMDL
MODEL 3
REMARK VINA RESULT:     -11.9      5.850      9.203
REMARK  Name = 11697676
REMARK  7 active torsions:
REMARK  status: ('A' for Active; 'I' for Inactive)
REMARK    1  A    between atoms: N_1  and  C_18
REMARK    2  A    between atoms: N_2  and  C_8
REMARK    3  A    between atoms: C_18  and  C_19
REMARK    4  A    between atoms: C_19  and  C_20
REMARK    5  A    between atoms: C_20  and  C_21
REMARK    6  A    between atoms: C_21  and  O_22
REMARK    7  A    between atoms: O_22  and  C_28
REMARK                            x       y       z     vdW  Elec       q    Type
REMARK                         _______ _______ _______ _____ _____    ______ ____
ROOT
ATOM      1  N   UNL     1      34.951 -16.042 -24.627  0.00  0.00    +0.389 N 
ATOM      2  N   UNL     1      33.832 -13.564 -23.753  0.00  0.00    -0.312 N 
ATOM      3  C   UNL     1      33.790 -15.467 -25.318  0.00  0.00    -0.055 C 
ATOM      4  C   UNL     1      34.893 -15.716 -23.197  0.00  0.00    -0.055 C 
ATOM      5  C   UNL     1      33.761 -13.944 -25.169  0.00  0.00    +0.068 C 
ATOM      6  C   UNL     1      34.900 -14.201 -22.978  0.00  0.00    +0.068 C 
ATOM      7  H   UNL     1      35.801 -15.641 -25.023  0.00  0.00    -0.080 HD
ENDROOT
BRANCH   2   8
ATOM      8  C   UNL     1      33.376 -12.291 -23.390  0.00  0.00    +0.048 C 
ATOM      9  C   UNL     1      32.655 -12.045 -22.188  0.00  0.00    +0.013 C 
ATOM     10  C   UNL     1      33.637 -11.201 -24.249  0.00  0.00    +0.015 C 
ATOM     11  C   UNL     1      32.216 -10.738 -21.870  0.00  0.00    +0.001 C 
ATOM     12  C   UNL     1      32.372 -13.099 -21.305  0.00  0.00    +0.001 C 
ATOM     13  C   UNL     1      33.206  -9.915 -23.935  0.00  0.00    +0.001 C 
ATOM     14  C   UNL     1      32.501  -9.684 -22.754  0.00  0.00    +0.000 C 
ATOM     15  C   UNL     1      31.507 -10.523 -20.678  0.00  0.00    +0.000 C 
ATOM     16  C   UNL     1      31.666 -12.867 -20.124  0.00  0.00    +0.000 C 
ATOM     17  C   UNL     1      31.234 -11.582 -19.811  0.00  0.00    +0.000 C 
ENDBRANCH   2   8
BRANCH   1  18
ATOM     18  C   UNL     1      34.998 -17.491 -24.822  0.00  0.00    -0.077 C 
BRANCH  18  19
ATOM     19  C   UNL     1      35.802 -18.151 -23.703  0.00  0.00    -0.019 C 
BRANCH  19  20
ATOM     20  C   UNL     1      35.160 -19.465 -23.262  0.00  0.00    +0.045 C 
BRANCH  20  21
ATOM     21  C   UNL     1      35.134 -19.598 -21.745  0.00  0.00    +0.208 C 
BRANCH  21  22
ATOM     22  O   UNL     1      33.980 -20.324 -21.345  0.00  0.00    -0.452 OA
BRANCH  22  28
ATOM     23  O   UNL     1      30.804 -23.665 -16.102  0.00  0.00    -0.275 OA
ATOM     24  N   UNL     1      31.889 -22.624 -17.839  0.00  0.00    -0.263 N 
ATOM     25  N   UNL     1      32.955 -21.466 -19.605  0.00  0.00    -0.357 NA
ATOM     26  C   UNL     1      34.297 -22.676 -17.999  0.00  0.00    +0.090 C 
ATOM     27  C   UNL     1      34.345 -23.621 -16.836  0.00  0.00    +0.022 C 
ATOM     28  C   UNL     1      34.101 -21.110 -20.228  0.00  0.00    +0.278 C 
ATOM     29  C   UNL     1      33.071 -22.234 -18.496  0.00  0.00    +0.170 C 
ATOM     30  C   UNL     1      33.176 -23.378 -15.895  0.00  0.00    +0.086 C 
ATOM     31  C   UNL     1      35.455 -22.298 -18.681  0.00  0.00    -0.012 C 
ATOM     32  C   UNL     1      35.362 -21.493 -19.809  0.00  0.00    +0.068 C 
ATOM     33  C   UNL     1      31.851 -23.275 -16.621  0.00  0.00    +0.228 C 
ATOM     34  H   UNL     1      31.031 -22.419 -18.277  0.00  0.00    +0.157 HD
ENDBRANCH  22  28
ENDBRANCH  21  22
ENDBRANCH  20  21
ENDBRANCH  19  20
ENDBRANCH  18  19
ENDBRANCH   1  18
TORSDOF 7
ENDMDL
MODEL 4
REMARK VINA RESULT:     -11.8      2.210      2.700
REMARK  Name = 11697676
REMARK  7 active torsions:
REMARK  status: ('A' for Active; 'I' for Inactive)
REMARK    1  A    between atoms: N_1  and  C_18
REMARK    2  A    between atoms: N_2  and  C_8
REMARK    3  A    between atoms: C_18  and  C_19
REMARK    4  A    between atoms: C_19  and  C_20
REMARK    5  A    between atoms: C_20  and  C_21
REMARK    6  A    between atoms: C_21  and  O_22
REMARK    7  A    between atoms: O_22  and  C_28
REMARK                            x       y       z     vdW  Elec       q    Type
REMARK                         _______ _______ _______ _____ _____    ______ ____
ROOT
ATOM      1  N   UNL     1      31.876  -9.194 -21.062  0.00  0.00    +0.389 N 
ATOM      2  N   UNL     1      32.162  -6.898 -22.735  0.00  0.00    -0.312 N 
ATOM      3  C   UNL     1      32.794  -8.112 -20.685  0.00  0.00    -0.055 C 
ATOM      4  C   UNL     1      31.835  -9.330 -22.523  0.00  0.00    -0.055 C 
ATOM      5  C   UNL     1      32.342  -6.777 -21.284  0.00  0.00    +0.068 C 
ATOM      6  C   UNL     1      31.353  -8.035 -23.182  0.00  0.00    +0.068 C 
ATOM      7  H   UNL     1      30.941  -8.965 -20.726  0.00  0.00    -0.080 HD
ENDROOT
BRANCH   2   8
ATOM      8  C   UNL     1      32.196  -5.727 -23.501  0.00  0.00    +0.048 C 
ATOM      9  C   UNL     1      33.210  -5.466 -24.465  0.00  0.00    +0.013 C 
ATOM     10  C   UNL     1      31.185  -4.759 -23.316  0.00  0.00    +0.015 C 
ATOM     11  C   UNL     1      33.197  -4.266 -25.213  0.00  0.00    +0.001 C 
ATOM     12  C   UNL     1      34.235  -6.401 -24.683  0.00  0.00    +0.001 C 
ATOM     13  C   UNL     1      31.172  -3.577 -24.052  0.00  0.00    +0.001 C 
ATOM     14  C   UNL     1      32.171  -3.332 -24.995  0.00  0.00    +0.000 C 
ATOM     15  C   UNL     1      34.210  -4.034 -26.157  0.00  0.00    +0.000 C 
ATOM     16  C   UNL     1      35.234  -6.154 -25.626  0.00  0.00    +0.000 C 
ATOM     17  C   UNL     1      35.222  -4.973 -26.362  0.00  0.00    +0.000 C 
ENDBRANCH   2   8
BRANCH   1  18
ATOM     18  C   UNL     1      32.287 -10.453 -20.441  0.00  0.00    -0.077 C 
BRANCH  18  19
ATOM     19  C   UNL     1      31.349 -11.584 -20.862  0.00  0.00    -0.019 C 
BRANCH  19  20
ATOM     20  C   UNL     1      32.125 -12.870 -21.139  0.00  0.00    +0.045 C 
BRANCH  20  21
ATOM     21  C   UNL     1      32.594 -12.943 -22.586  0.00  0.00    +0.208 C 
BRANCH  21  22
ATOM     22  O   UNL     1      33.998 -13.155 -22.628  0.00  0.00    -0.452 OA
BRANCH  22  28
ATOM     23  O   UNL     1      36.614 -19.328 -20.681  0.00  0.00    -0.275 OA
ATOM     24  N   UNL     1      35.705 -17.331 -21.362  0.00  0.00    -0.263 N 
ATOM     25  N   UNL     1      34.844 -15.226 -22.012  0.00  0.00    -0.357 NA
ATOM     26  C   UNL     1      35.282 -16.901 -23.700  0.00  0.00    +0.090 C 
ATOM     27  C   UNL     1      35.661 -18.315 -24.019  0.00  0.00    +0.022 C 
ATOM     28  C   UNL     1      34.425 -14.403 -23.000  0.00  0.00    +0.278 C 
ATOM     29  C   UNL     1      35.275 -16.457 -22.378  0.00  0.00    +0.170 C 
ATOM     30  C   UNL     1      36.688 -18.836 -23.027  0.00  0.00    +0.086 C 
ATOM     31  C   UNL     1      34.828 -16.025 -24.687  0.00  0.00    -0.012 C 
ATOM     32  C   UNL     1      34.400 -14.750 -24.339  0.00  0.00    +0.068 C 
ATOM     33  C   UNL     1      36.309 -18.552 -21.588  0.00  0.00    +0.228 C 
ATOM     34  H   UNL     1      35.566 -17.054 -20.428  0.00  0.00    +0.157 HD
ENDBRANCH  22  28
ENDBRANCH  21  22
ENDBRANCH  20  21
ENDBRANCH  19  20
ENDBRANCH  18  19
ENDBRANCH   1  18
TORSDOF 7
ENDMDL
MODEL 5
REMARK VINA RESULT:     -11.7      2.302      3.452
REMARK  Name = 11697676
REMARK  7 active torsions:
REMARK  status: ('A' for Active; 'I' for Inactive)
REMARK    1  A    between atoms: N_1  and  C_18
REMARK    2  A    between atoms: N_2  and  C_8
REMARK    3  A    between atoms: C_18  and  C_19
REMARK    4  A    between atoms: C_19  and  C_20
REMARK    5  A    between atoms: C_20  and  C_21
REMARK    6  A    between atoms: C_21  and  O_22
REMARK    7  A    between atoms: O_22  and  C_28
REMARK                            x       y       z     vdW  Elec       q    Type
REMARK                         _______ _______ _______ _____ _____    ______ ____
ROOT
ATOM      1  N   UNL     1      32.449  -9.469 -21.047  0.00  0.00    +0.389 N 
ATOM      2  N   UNL     1      33.066  -7.458 -22.980  0.00  0.00    -0.312 N 
ATOM      3  C   UNL     1      31.817  -9.495 -22.372  0.00  0.00    -0.055 C 
ATOM      4  C   UNL     1      32.676  -8.080 -20.629  0.00  0.00    -0.055 C 
ATOM      5  C   UNL     1      32.704  -8.812 -23.417  0.00  0.00    +0.068 C 
ATOM      6  C   UNL     1      33.591  -7.351 -21.616  0.00  0.00    +0.068 C 
ATOM      7  H   UNL     1      33.348  -9.948 -21.102  0.00  0.00    -0.080 HD
ENDROOT
BRANCH   2   8
ATOM      8  C   UNL     1      33.473  -6.540 -23.955  0.00  0.00    +0.048 C 
ATOM      9  C   UNL     1      32.787  -5.317 -24.195  0.00  0.00    +0.013 C 
ATOM     10  C   UNL     1      34.611  -6.834 -24.738  0.00  0.00    +0.015 C 
ATOM     11  C   UNL     1      33.241  -4.424 -25.194  0.00  0.00    +0.001 C 
ATOM     12  C   UNL     1      31.650  -4.984 -23.441  0.00  0.00    +0.001 C 
ATOM     13  C   UNL     1      35.058  -5.954 -25.720  0.00  0.00    +0.001 C 
ATOM     14  C   UNL     1      34.379  -4.758 -25.947  0.00  0.00    +0.000 C 
ATOM     15  C   UNL     1      32.545  -3.223 -25.410  0.00  0.00    +0.000 C 
ATOM     16  C   UNL     1      30.971  -3.786 -23.669  0.00  0.00    +0.000 C 
ATOM     17  C   UNL     1      31.417  -2.908 -24.652  0.00  0.00    +0.000 C 
ENDBRANCH   2   8
BRANCH   1  18
ATOM     18  C   UNL     1      31.618 -10.170 -20.069  0.00  0.00    -0.077 C 
BRANCH  18  19
ATOM     19  C   UNL     1      31.139 -11.504 -20.639  0.00  0.00    -0.019 C 
BRANCH  19  20
ATOM     20  C   UNL     1      32.235 -12.564 -20.561  0.00  0.00    +0.045 C 
BRANCH  20  21
ATOM     21  C   UNL     1      32.589 -13.111 -21.938  0.00  0.00    +0.208 C 
BRANCH  21  22
ATOM     22  O   UNL     1      33.995 -13.281 -22.043  0.00  0.00    -0.452 OA
BRANCH  22  28
ATOM     23  O   UNL     1      36.715 -19.568 -20.700  0.00  0.00    -0.275 OA
ATOM     24  N   UNL     1      35.772 -17.530 -21.185  0.00  0.00    -0.263 N 
ATOM     25  N   UNL     1      34.876 -15.387 -21.630  0.00  0.00    -0.357 NA
ATOM     26  C   UNL     1      35.328 -16.888 -23.470  0.00  0.00    +0.090 C 
ATOM     27  C   UNL     1      35.727 -18.260 -23.923  0.00  0.00    +0.022 C 
ATOM     28  C   UNL     1      34.439 -14.481 -22.533  0.00  0.00    +0.278 C 
ATOM     29  C   UNL     1      35.323 -16.571 -22.112  0.00  0.00    +0.170 C 
ATOM     30  C   UNL     1      36.768 -18.856 -22.989  0.00  0.00    +0.086 C 
ATOM     31  C   UNL     1      34.855 -15.930 -24.368  0.00  0.00    -0.012 C 
ATOM     32  C   UNL     1      34.411 -14.701 -23.899  0.00  0.00    +0.068 C 
ATOM     33  C   UNL     1      36.393 -18.715 -21.528  0.00  0.00    +0.228 C 
ATOM     34  H   UNL     1      35.635 -17.345 -20.228  0.00  0.00    +0.157 HD
ENDBRANCH  22  28
ENDBRANCH  21  22
ENDBRANCH  20  21
ENDBRANCH  19  20
ENDBRANCH  18  19
ENDBRANCH   1  18
TORSDOF 7
ENDMDL
MODEL 6
REMARK VINA RESULT:     -11.6      0.652      2.158
REMARK  Name = 11697676
REMARK  7 active torsions:
REMARK  status: ('A' for Active; 'I' for Inactive)
REMARK    1  A    between atoms: N_1  and  C_18
REMARK    2  A    between atoms: N_2  and  C_8
REMARK    3  A    between atoms: C_18  and  C_19
REMARK    4  A    between atoms: C_19  and  C_20
REMARK    5  A    between atoms: C_20  and  C_21
REMARK    6  A    between atoms: C_21  and  O_22
REMARK    7  A    between atoms: O_22  and  C_28
REMARK                            x       y       z     vdW  Elec       q    Type
REMARK                         _______ _______ _______ _____ _____    ______ ____
ROOT
ATOM      1  N   UNL     1      32.664  -8.753 -20.652  0.00  0.00    +0.389 N 
ATOM      2  N   UNL     1      33.211  -7.035 -22.867  0.00  0.00    -0.312 N 
ATOM      3  C   UNL     1      31.982  -8.959 -21.937  0.00  0.00    -0.055 C 
ATOM      4  C   UNL     1      32.908  -7.321 -20.440  0.00  0.00    -0.055 C 
ATOM      5  C   UNL     1      32.831  -8.434 -23.098  0.00  0.00    +0.068 C 
ATOM      6  C   UNL     1      33.787  -6.743 -21.552  0.00  0.00    +0.068 C 
ATOM      7  H   UNL     1      33.559  -9.241 -20.673  0.00  0.00    -0.080 HD
ENDROOT
BRANCH   2   8
ATOM      8  C   UNL     1      33.583  -6.264 -23.975  0.00  0.00    +0.048 C 
ATOM      9  C   UNL     1      32.887  -5.084 -24.360  0.00  0.00    +0.013 C 
ATOM     10  C   UNL     1      34.693  -6.668 -24.747  0.00  0.00    +0.015 C 
ATOM     11  C   UNL     1      33.305  -4.342 -25.489  0.00  0.00    +0.001 C 
ATOM     12  C   UNL     1      31.776  -4.645 -23.622  0.00  0.00    +0.001 C 
ATOM     13  C   UNL     1      35.105  -5.936 -25.858  0.00  0.00    +0.001 C 
ATOM     14  C   UNL     1      34.417  -4.781 -26.227  0.00  0.00    +0.000 C 
ATOM     15  C   UNL     1      32.600  -3.181 -25.848  0.00  0.00    +0.000 C 
ATOM     16  C   UNL     1      31.087  -3.489 -23.992  0.00  0.00    +0.000 C 
ATOM     17  C   UNL     1      31.498  -2.759 -25.103  0.00  0.00    +0.000 C 
ENDBRANCH   2   8
BRANCH   1  18
ATOM     18  C   UNL     1      31.869  -9.306 -19.556  0.00  0.00    -0.077 C 
BRANCH  18  19
ATOM     19  C   UNL     1      31.207 -10.614 -19.988  0.00  0.00    -0.019 C 
BRANCH  19  20
ATOM     20  C   UNL     1      31.556 -11.752 -19.030  0.00  0.00    +0.045 C 
BRANCH  20  21
ATOM     21  C   UNL     1      32.256 -12.898 -19.748  0.00  0.00    +0.208 C 
BRANCH  21  22
ATOM     22  O   UNL     1      32.502 -12.540 -21.101  0.00  0.00    -0.452 OA
BRANCH  22  28
ATOM     23  O   UNL     1      33.737 -15.272 -27.405  0.00  0.00    -0.275 OA
ATOM     24  N   UNL     1      33.401 -14.367 -25.321  0.00  0.00    -0.263 N 
ATOM     25  N   UNL     1      32.955 -13.452 -23.186  0.00  0.00    -0.357 NA
ATOM     26  C   UNL     1      34.607 -15.203 -23.404  0.00  0.00    +0.090 C 
ATOM     27  C   UNL     1      35.420 -16.079 -24.309  0.00  0.00    +0.022 C 
ATOM     28  C   UNL     1      33.212 -13.435 -21.858  0.00  0.00    +0.278 C 
ATOM     29  C   UNL     1      33.648 -14.342 -23.935  0.00  0.00    +0.170 C 
ATOM     30  C   UNL     1      34.615 -16.485 -25.533  0.00  0.00    +0.086 C 
ATOM     31  C   UNL     1      34.852 -15.143 -22.031  0.00  0.00    -0.012 C 
ATOM     32  C   UNL     1      34.139 -14.253 -21.239  0.00  0.00    +0.068 C 
ATOM     33  C   UNL     1      33.913 -15.313 -26.187  0.00  0.00    +0.228 C 
ATOM     34  H   UNL     1      32.825 -13.664 -25.698  0.00  0.00    +0.157 HD
ENDBRANCH  22  28
ENDBRANCH  21  22
ENDBRANCH  20  21
ENDBRANCH  19  20
ENDBRANCH  18  19
ENDBRANCH   1  18
TORSDOF 7
ENDMDL
MODEL 7
REMARK VINA RESULT:     -11.6      6.920     10.358
REMARK  Name = 11697676
REMARK  7 active torsions:
REMARK  status: ('A' for Active; 'I' for Inactive)
REMARK    1  A    between atoms: N_1  and  C_18
REMARK    2  A    between atoms: N_2  and  C_8
REMARK    3  A    between atoms: C_18  and  C_19
REMARK    4  A    between atoms: C_19  and  C_20
REMARK    5  A    between atoms: C_20  and  C_21
REMARK    6  A    between atoms: C_21  and  O_22
REMARK    7  A    between atoms: O_22  and  C_28
REMARK                            x       y       z     vdW  Elec       q    Type
REMARK                         _______ _______ _______ _____ _____    ______ ____
ROOT
ATOM      1  N   UNL     1      35.769 -17.644 -22.819  0.00  0.00    +0.389 N 
ATOM      2  N   UNL     1      34.565 -15.068 -23.089  0.00  0.00    -0.312 N 
ATOM      3  C   UNL     1      34.997 -17.308 -24.022  0.00  0.00    -0.055 C 
ATOM      4  C   UNL     1      35.193 -16.966 -21.651  0.00  0.00    -0.055 C 
ATOM      5  C   UNL     1      35.013 -15.799 -24.280  0.00  0.00    +0.068 C 
ATOM      6  C   UNL     1      35.215 -15.446 -21.831  0.00  0.00    +0.068 C 
ATOM      7  H   UNL     1      36.730 -17.326 -22.945  0.00  0.00    -0.080 HD
ENDROOT
BRANCH   2   8
ATOM      8  C   UNL     1      34.089 -13.763 -23.259  0.00  0.00    +0.048 C 
ATOM      9  C   UNL     1      33.220 -13.132 -22.325  0.00  0.00    +0.013 C 
ATOM     10  C   UNL     1      34.483 -13.035 -24.402  0.00  0.00    +0.015 C 
ATOM     11  C   UNL     1      32.768 -11.810 -22.545  0.00  0.00    +0.001 C 
ATOM     12  C   UNL     1      32.802 -13.818 -21.173  0.00  0.00    +0.001 C 
ATOM     13  C   UNL     1      34.039 -11.733 -24.619  0.00  0.00    +0.001 C 
ATOM     14  C   UNL     1      33.188 -11.124 -23.697  0.00  0.00    +0.000 C 
ATOM     15  C   UNL     1      31.912 -11.211 -21.608  0.00  0.00    +0.000 C 
ATOM     16  C   UNL     1      31.951 -13.208 -20.251  0.00  0.00    +0.000 C 
ATOM     17  C   UNL     1      31.506 -11.907 -20.468  0.00  0.00    +0.000 C 
ENDBRANCH   2   8
BRANCH   1  18
ATOM     18  C   UNL     1      35.792 -19.092 -22.613  0.00  0.00    -0.077 C 
BRANCH  18  19
ATOM     19  C   UNL     1      34.896 -19.474 -21.436  0.00  0.00    -0.019 C 
BRANCH  19  20
ATOM     20  C   UNL     1      35.396 -20.745 -20.751  0.00  0.00    +0.045 C 
BRANCH  20  21
ATOM     21  C   UNL     1      34.249 -21.558 -20.165  0.00  0.00    +0.208 C 
BRANCH  21  22
ATOM     22  O   UNL     1      34.757 -22.517 -19.249  0.00  0.00    -0.452 OA
BRANCH  22  28
ATOM     23  O   UNL     1      28.405 -22.860 -16.375  0.00  0.00    -0.275 OA
ATOM     24  N   UNL     1      30.511 -22.810 -17.290  0.00  0.00    -0.263 N 
ATOM     25  N   UNL     1      32.659 -22.664 -18.268  0.00  0.00    -0.357 NA
ATOM     26  C   UNL     1      32.457 -23.262 -15.935  0.00  0.00    +0.090 C 
ATOM     27  C   UNL     1      31.563 -23.625 -14.788  0.00  0.00    +0.022 C 
ATOM     28  C   UNL     1      34.001 -22.767 -18.133  0.00  0.00    +0.278 C 
ATOM     29  C   UNL     1      31.910 -22.902 -17.166  0.00  0.00    +0.170 C 
ATOM     30  C   UNL     1      30.258 -22.848 -14.853  0.00  0.00    +0.086 C 
ATOM     31  C   UNL     1      33.845 -23.371 -15.842  0.00  0.00    -0.012 C 
ATOM     32  C   UNL     1      34.636 -23.111 -16.954  0.00  0.00    +0.068 C 
ATOM     33  C   UNL     1      29.627 -22.875 -16.230  0.00  0.00    +0.228 C 
ATOM     34  H   UNL     1      30.136 -22.691 -18.193  0.00  0.00    +0.157 HD
ENDBRANCH  22  28
ENDBRANCH  21  22
ENDBRANCH  20  21
ENDBRANCH  19  20
ENDBRANCH  18  19
ENDBRANCH   1  18
TORSDOF 7
ENDMDL
MODEL 8
REMARK VINA RESULT:     -11.6      9.067     13.045
REMARK  Name = 11697676
REMARK  7 active torsions:
REMARK  status: ('A' for Active; 'I' for Inactive)
REMARK    1  A    between atoms: N_1  and  C_18
REMARK    2  A    between atoms: N_2  and  C_8
REMARK    3  A    between atoms: C_18  and  C_19
REMARK    4  A    between atoms: C_19  and  C_20
REMARK    5  A    between atoms: C_20  and  C_21
REMARK    6  A    between atoms: C_21  and  O_22
REMARK    7  A    between atoms: O_22  and  C_28
REMARK                            x       y       z     vdW  Elec       q    Type
REMARK                         _______ _______ _______ _____ _____    ______ ____
ROOT
ATOM      1  N   UNL     1      35.931 -20.880 -20.694  0.00  0.00    +0.389 N 
ATOM      2  N   UNL     1      35.471 -18.553 -22.286  0.00  0.00    -0.312 N 
ATOM      3  C   UNL     1      34.561 -20.431 -20.974  0.00  0.00    -0.055 C 
ATOM      4  C   UNL     1      36.825 -19.720 -20.592  0.00  0.00    -0.055 C 
ATOM      5  C   UNL     1      34.498 -19.652 -22.290  0.00  0.00    +0.068 C 
ATOM      6  C   UNL     1      36.836 -18.917 -21.895  0.00  0.00    +0.068 C 
ATOM      7  H   UNL     1      36.247 -21.473 -21.462  0.00  0.00    -0.080 HD
ENDROOT
BRANCH   2   8
ATOM      8  C   UNL     1      35.262 -17.487 -23.169  0.00  0.00    +0.048 C 
ATOM      9  C   UNL     1      34.991 -16.163 -22.726  0.00  0.00    +0.013 C 
ATOM     10  C   UNL     1      35.322 -17.729 -24.559  0.00  0.00    +0.015 C 
ATOM     11  C   UNL     1      34.787 -15.121 -23.661  0.00  0.00    +0.001 C 
ATOM     12  C   UNL     1      34.922 -15.876 -21.353  0.00  0.00    +0.001 C 
ATOM     13  C   UNL     1      35.122 -16.703 -25.479  0.00  0.00    +0.001 C 
ATOM     14  C   UNL     1      34.857 -15.408 -25.035  0.00  0.00    +0.000 C 
ATOM     15  C   UNL     1      34.521 -13.823 -23.197  0.00  0.00    +0.000 C 
ATOM     16  C   UNL     1      34.656 -14.580 -20.909  0.00  0.00    +0.000 C 
ATOM     17  C   UNL     1      34.456 -13.556 -21.829  0.00  0.00    +0.000 C 
ENDBRANCH   2   8
BRANCH   1  18
ATOM     18  C   UNL     1      35.971 -21.668 -19.463  0.00  0.00    -0.077 C 
BRANCH  18  19
ATOM     19  C   UNL     1      34.923 -22.778 -19.510  0.00  0.00    -0.019 C 
BRANCH  19  20
ATOM     20  C   UNL     1      33.877 -22.598 -18.411  0.00  0.00    +0.045 C 
BRANCH  20  21
ATOM     21  C   UNL     1      34.076 -23.594 -17.277  0.00  0.00    +0.208 C 
BRANCH  21  22
ATOM     22  O   UNL     1      34.549 -22.919 -16.120  0.00  0.00    -0.452 OA
BRANCH  22  28
ATOM     23  O   UNL     1      41.058 -25.370 -15.518  0.00  0.00    -0.275 OA
ATOM     24  N   UNL     1      38.921 -24.536 -15.650  0.00  0.00    -0.263 N 
ATOM     25  N   UNL     1      36.711 -23.725 -15.877  0.00  0.00    -0.357 NA
ATOM     26  C   UNL     1      37.345 -24.889 -13.855  0.00  0.00    +0.090 C 
ATOM     27  C   UNL     1      38.436 -25.505 -13.031  0.00  0.00    +0.022 C 
ATOM     28  C   UNL     1      35.473 -23.580 -15.353  0.00  0.00    +0.278 C 
ATOM     29  C   UNL     1      37.624 -24.385 -15.126  0.00  0.00    +0.170 C 
ATOM     30  C   UNL     1      39.466 -26.183 -13.920  0.00  0.00    +0.086 C 
ATOM     31  C   UNL     1      36.060 -24.705 -13.346  0.00  0.00    -0.012 C 
ATOM     32  C   UNL     1      35.100 -24.049 -14.106  0.00  0.00    +0.068 C 
ATOM     33  C   UNL     1      39.910 -25.310 -15.075  0.00  0.00    +0.228 C 
ATOM     34  H   UNL     1      39.139 -24.059 -16.484  0.00  0.00    +0.157 HD
ENDBRANCH  22  28
ENDBRANCH  21  22
ENDBRANCH  20  21
ENDBRANCH  19  20
ENDBRANCH  18  19
ENDBRANCH   1  18
TORSDOF 7
ENDMDL
MODEL 9
REMARK VINA RESULT:     -11.5      6.185      9.459
REMARK  Name = 11697676
REMARK  7 active torsions:
REMARK  status: ('A' for Active; 'I' for Inactive)
REMARK    1  A    between atoms: N_1  and  C_18
REMARK    2  A    between atoms: N_2  and  C_8
REMARK    3  A    between atoms: C_18  and  C_19
REMARK    4  A    between atoms: C_19  and  C_20
REMARK    5  A    between atoms: C_20  and  C_21
REMARK    6  A    between atoms: C_21  and  O_22
REMARK    7  A    between atoms: O_22  and  C_28
REMARK                            x       y       z     vdW  Elec       q    Type
REMARK                         _______ _______ _______ _____ _____    ______ ____
ROOT
ATOM      1  N   UNL     1      35.055 -16.003 -24.311  0.00  0.00    +0.389 N 
ATOM      2  N   UNL     1      33.853 -13.538 -23.511  0.00  0.00    -0.312 N 
ATOM      3  C   UNL     1      33.894 -15.473 -25.038  0.00  0.00    -0.055 C 
ATOM      4  C   UNL     1      34.958 -15.650 -22.889  0.00  0.00    -0.055 C 
ATOM      5  C   UNL     1      33.822 -13.948 -24.920  0.00  0.00    +0.068 C 
ATOM      6  C   UNL     1      34.921 -14.131 -22.701  0.00  0.00    +0.068 C 
ATOM      7  H   UNL     1      35.903 -15.587 -24.697  0.00  0.00    -0.080 HD
ENDROOT
BRANCH   2   8
ATOM      8  C   UNL     1      33.356 -12.271 -23.184  0.00  0.00    +0.048 C 
ATOM      9  C   UNL     1      32.679 -12.002 -21.962  0.00  0.00    +0.013 C 
ATOM     10  C   UNL     1      33.529 -11.212 -24.100  0.00  0.00    +0.015 C 
ATOM     11  C   UNL     1      32.196 -10.702 -21.681  0.00  0.00    +0.001 C 
ATOM     12  C   UNL     1      32.483 -13.025 -21.021  0.00  0.00    +0.001 C 
ATOM     13  C   UNL     1      33.055  -9.932 -23.823  0.00  0.00    +0.001 C 
ATOM     14  C   UNL     1      32.393  -9.678 -22.622  0.00  0.00    +0.000 C 
ATOM     15  C   UNL     1      31.531 -10.463 -20.467  0.00  0.00    +0.000 C 
ATOM     16  C   UNL     1      31.820 -12.771 -19.819  0.00  0.00    +0.000 C 
ATOM     17  C   UNL     1      31.345 -11.492 -19.543  0.00  0.00    +0.000 C 
ENDBRANCH   2   8
BRANCH   1  18
ATOM     18  C   UNL     1      35.144 -17.453 -24.475  0.00  0.00    -0.077 C 
BRANCH  18  19
ATOM     19  C   UNL     1      35.719 -18.096 -23.214  0.00  0.00    -0.019 C 
BRANCH  19  20
ATOM     20  C   UNL     1      35.087 -19.462 -22.953  0.00  0.00    +0.045 C 
BRANCH  20  21
ATOM     21  C   UNL     1      34.912 -19.726 -21.464  0.00  0.00    +0.208 C 
BRANCH  21  22
ATOM     22  O   UNL     1      35.825 -20.729 -21.041  0.00  0.00    -0.452 OA
BRANCH  22  28
ATOM     23  O   UNL     1      37.930 -23.086 -14.817  0.00  0.00    -0.275 OA
ATOM     24  N   UNL     1      37.177 -22.286 -16.834  0.00  0.00    -0.263 N 
ATOM     25  N   UNL     1      36.484 -21.505 -18.957  0.00  0.00    -0.357 NA
ATOM     26  C   UNL     1      34.928 -22.744 -17.582  0.00  0.00    +0.090 C 
ATOM     27  C   UNL     1      34.625 -23.375 -16.257  0.00  0.00    +0.022 C 
ATOM     28  C   UNL     1      35.512 -21.406 -19.891  0.00  0.00    +0.278 C 
ATOM     29  C   UNL     1      36.181 -22.181 -17.823  0.00  0.00    +0.170 C 
ATOM     30  C   UNL     1      35.876 -23.996 -15.656  0.00  0.00    +0.086 C 
ATOM     31  C   UNL     1      33.948 -22.606 -18.567  0.00  0.00    -0.012 C 
ATOM     32  C   UNL     1      34.242 -21.935 -19.747  0.00  0.00    +0.068 C 
ATOM     33  C   UNL     1      37.071 -23.066 -15.699  0.00  0.00    +0.228 C 
ATOM     34  H   UNL     1      38.006 -21.769 -16.960  0.00  0.00    +0.157 HD
ENDBRANCH  22  28
ENDBRANCH  21  22
ENDBRANCH  20  21
ENDBRANCH  19  20
ENDBRANCH  18  19
ENDBRANCH   1  18
TORSDOF 7
ENDMDL
