MODEL 1
REMARK VINA RESULT:     -11.4      0.000      0.000
REMARK  Name = 71616860
REMARK  5 active torsions:
REMARK  status: ('A' for Active; 'I' for Inactive)
REMARK    1  A    between atoms: C_10  and  C_17
REMARK    2  A    between atoms: C_15  and  O_21
REMARK    3  A    between atoms: C_16  and  C_18
REMARK    4  A    between atoms: O_21  and  C_22
REMARK    5  A    between atoms: C_22  and  C_25
REMARK                            x       y       z     vdW  Elec       q    Type
REMARK                         _______ _______ _______ _____ _____    ______ ____
ROOT
ATOM      1  O   UNL     1      37.582 -24.446 -13.864  0.00  0.00    -0.193 OA
ATOM      2  N   UNL     1      36.521 -23.491 -15.686  0.00  0.00    -0.205 N 
ATOM      3  N   UNL     1      35.321 -24.607 -13.930  0.00  0.00    -0.284 NA
ATOM      4  C   UNL     1      37.679 -21.706 -16.960  0.00  0.00    +0.049 C 
ATOM      5  C   UNL     1      36.561 -21.751 -17.963  0.00  0.00    -0.019 C 
ATOM      6  C   UNL     1      37.794 -23.059 -16.271  0.00  0.00    +0.114 C 
ATOM      7  C   UNL     1      35.410 -22.516 -17.684  0.00  0.00    +0.011 C 
ATOM      8  C   UNL     1      35.336 -23.255 -16.391  0.00  0.00    +0.068 C 
ATOM      9  C   UNL     1      36.652 -21.011 -19.151  0.00  0.00    +0.004 C 
ATOM     10  C   UNL     1      35.623 -21.054 -20.088  0.00  0.00    +0.041 C 
ATOM     11  C   UNL     1      34.392 -22.560 -18.650  0.00  0.00    +0.002 C 
ATOM     12  C   UNL     1      34.162 -23.654 -15.878  0.00  0.00    +0.088 C 
ATOM     13  C   UNL     1      34.498 -21.833 -19.840  0.00  0.00    +0.008 C 
ATOM     14  C   UNL     1      36.531 -24.196 -14.458  0.00  0.00    +0.275 C 
ATOM     15  C   UNL     1      34.249 -24.350 -14.595  0.00  0.00    +0.291 C 
ENDROOT
BRANCH  10  17
ATOM     16  C   UNL     1      35.812 -19.677 -22.319  0.00  0.00    -0.087 C 
ATOM     17  C   UNL     1      35.725 -20.305 -21.300  0.00  0.00    -0.064 C 
BRANCH  16  18
ATOM     18  C   UNL     1      35.919 -18.923 -23.541  0.00  0.00    +0.065 C 
ATOM     19  C   UNL     1      35.239 -17.587 -23.623  0.00  0.00    +0.014 C 
ATOM     20  C   UNL     1      34.690 -18.753 -24.389  0.00  0.00    +0.014 C 
ENDBRANCH  16  18
ENDBRANCH  10  17
BRANCH  15  21
ATOM     21  O   UNL     1      33.044 -24.732 -14.115  0.00  0.00    -0.448 OA
BRANCH  21  22
ATOM     22  C   UNL     1      32.259 -23.659 -13.615  0.00  0.00    +0.240 C 
BRANCH  22  25
ATOM     23  O   UNL     1      30.626 -22.894 -15.188  0.00  0.00    -0.347 OA
ATOM     24  O   UNL     1      29.230 -25.329 -15.110  0.00  0.00    -0.348 OA
ATOM     25  C   UNL     1      30.831 -23.818 -14.111  0.00  0.00    +0.188 C 
ATOM     26  C   UNL     1      30.566 -25.238 -14.608  0.00  0.00    +0.175 C 
ATOM     27  C   UNL     1      29.292 -22.990 -15.693  0.00  0.00    +0.174 C 
ATOM     28  C   UNL     1      29.029 -24.404 -16.182  0.00  0.00    +0.174 C 
ENDBRANCH  22  25
ENDBRANCH  21  22
ENDBRANCH  15  21
TORSDOF 5
ENDMDL
MODEL 2
REMARK VINA RESULT:     -11.0      5.356      9.876
REMARK  Name = 71616860
REMARK  5 active torsions:
REMARK  status: ('A' for Active; 'I' for Inactive)
REMARK    1  A    between atoms: C_10  and  C_17
REMARK    2  A    between atoms: C_15  and  O_21
REMARK    3  A    between atoms: C_16  and  C_18
REMARK    4  A    between atoms: O_21  and  C_22
REMARK    5  A    between atoms: C_22  and  C_25
REMARK                            x       y       z     vdW  Elec       q    Type
REMARK                         _______ _______ _______ _____ _____    ______ ____
ROOT
ATOM      1  O   UNL     1      38.407 -18.596 -22.291  0.00  0.00    -0.193 OA
ATOM      2  N   UNL     1      36.521 -19.636 -21.444  0.00  0.00    -0.205 N 
ATOM      3  N   UNL     1      36.504 -18.414 -23.510  0.00  0.00    -0.284 NA
ATOM      4  C   UNL     1      36.792 -21.500 -19.829  0.00  0.00    +0.049 C 
ATOM      5  C   UNL     1      35.301 -21.498 -19.637  0.00  0.00    -0.019 C 
ATOM      6  C   UNL     1      37.248 -20.113 -20.262  0.00  0.00    +0.114 C 
ATOM      7  C   UNL     1      34.495 -20.706 -20.480  0.00  0.00    +0.011 C 
ATOM      8  C   UNL     1      35.151 -19.898 -21.548  0.00  0.00    +0.068 C 
ATOM      9  C   UNL     1      34.720 -22.302 -18.645  0.00  0.00    +0.004 C 
ATOM     10  C   UNL     1      33.341 -22.298 -18.457  0.00  0.00    +0.041 C 
ATOM     11  C   UNL     1      33.108 -20.704 -20.261  0.00  0.00    +0.002 C 
ATOM     12  C   UNL     1      34.466 -19.459 -22.615  0.00  0.00    +0.088 C 
ATOM     13  C   UNL     1      32.537 -21.495 -19.259  0.00  0.00    +0.008 C 
ATOM     14  C   UNL     1      37.210 -18.866 -22.411  0.00  0.00    +0.275 C 
ATOM     15  C   UNL     1      35.250 -18.696 -23.585  0.00  0.00    +0.291 C 
ENDROOT
BRANCH  10  17
ATOM     16  C   UNL     1      32.262 -23.796 -16.585  0.00  0.00    -0.087 C 
ATOM     17  C   UNL     1      32.754 -23.113 -17.440  0.00  0.00    -0.064 C 
BRANCH  16  18
ATOM     18  C   UNL     1      31.672 -24.615 -15.558  0.00  0.00    +0.065 C 
ATOM     19  C   UNL     1      30.191 -24.861 -15.597  0.00  0.00    +0.014 C 
ATOM     20  C   UNL     1      30.772 -23.962 -14.547  0.00  0.00    +0.014 C 
ENDBRANCH  16  18
ENDBRANCH  10  17
BRANCH  15  21
ATOM     21  O   UNL     1      34.521 -18.275 -24.643  0.00  0.00    -0.448 OA
BRANCH  21  22
ATOM     22  C   UNL     1      35.047 -17.120 -25.279  0.00  0.00    +0.240 C 
BRANCH  22  25
ATOM     23  O   UNL     1      35.357 -15.182 -23.910  0.00  0.00    -0.347 OA
ATOM     24  O   UNL     1      33.280 -13.793 -25.190  0.00  0.00    -0.348 OA
ATOM     25  C   UNL     1      34.383 -15.885 -24.691  0.00  0.00    +0.188 C 
ATOM     26  C   UNL     1      33.851 -14.962 -25.785  0.00  0.00    +0.175 C 
ATOM     27  C   UNL     1      34.788 -14.010 -23.321  0.00  0.00    +0.174 C 
ATOM     28  C   UNL     1      34.255 -13.096 -24.411  0.00  0.00    +0.174 C 
ENDBRANCH  22  25
ENDBRANCH  21  22
ENDBRANCH  15  21
TORSDOF 5
ENDMDL
MODEL 3
REMARK VINA RESULT:     -10.3      2.484      4.827
REMARK  Name = 71616860
REMARK  5 active torsions:
REMARK  status: ('A' for Active; 'I' for Inactive)
REMARK    1  A    between atoms: C_10  and  C_17
REMARK    2  A    between atoms: C_15  and  O_21
REMARK    3  A    between atoms: C_16  and  C_18
REMARK    4  A    between atoms: O_21  and  C_22
REMARK    5  A    between atoms: C_22  and  C_25
REMARK                            x       y       z     vdW  Elec       q    Type
REMARK                         _______ _______ _______ _____ _____    ______ ____
ROOT
ATOM      1  O   UNL     1      33.816 -24.077 -15.803  0.00  0.00    -0.193 OA
ATOM      2  N   UNL     1      34.848 -22.798 -17.433  0.00  0.00    -0.205 N 
ATOM      3  N   UNL     1      36.060 -23.805 -15.622  0.00  0.00    -0.284 NA
ATOM      4  C   UNL     1      33.733 -22.514 -19.631  0.00  0.00    +0.049 C 
ATOM      5  C   UNL     1      34.803 -21.525 -20.002  0.00  0.00    -0.019 C 
ATOM      6  C   UNL     1      33.575 -22.544 -18.117  0.00  0.00    +0.114 C 
ATOM      7  C   UNL     1      35.922 -21.367 -19.158  0.00  0.00    +0.011 C 
ATOM      8  C   UNL     1      36.012 -22.196 -17.922  0.00  0.00    +0.068 C 
ATOM      9  C   UNL     1      34.700 -20.792 -21.193  0.00  0.00    +0.004 C 
ATOM     10  C   UNL     1      35.684 -19.869 -21.537  0.00  0.00    +0.041 C 
ATOM     11  C   UNL     1      36.893 -20.418 -19.516  0.00  0.00    +0.002 C 
ATOM     12  C   UNL     1      37.184 -22.406 -17.303  0.00  0.00    +0.088 C 
ATOM     13  C   UNL     1      36.775 -19.678 -20.696  0.00  0.00    +0.008 C 
ATOM     14  C   UNL     1      34.853 -23.589 -16.259  0.00  0.00    +0.275 C 
ATOM     15  C   UNL     1      37.115 -23.256 -16.114  0.00  0.00    +0.291 C 
ENDROOT
BRANCH  10  17
ATOM     16  C   UNL     1      35.473 -18.487 -23.764  0.00  0.00    -0.087 C 
ATOM     17  C   UNL     1      35.570 -19.118 -22.747  0.00  0.00    -0.064 C 
BRANCH  16  18
ATOM     18  C   UNL     1      35.355 -17.730 -24.983  0.00  0.00    +0.065 C 
ATOM     19  C   UNL     1      34.682 -16.388 -24.932  0.00  0.00    +0.014 C 
ATOM     20  C   UNL     1      33.991 -17.547 -25.586  0.00  0.00    +0.014 C 
ENDBRANCH  16  18
ENDBRANCH  10  17
BRANCH  15  21
ATOM     21  O   UNL     1      38.317 -23.441 -15.524  0.00  0.00    -0.448 OA
BRANCH  21  22
ATOM     22  C   UNL     1      38.488 -24.736 -14.967  0.00  0.00    +0.240 C 
BRANCH  22  25
ATOM     23  O   UNL     1      37.947 -23.310 -13.124  0.00  0.00    -0.347 OA
ATOM     24  O   UNL     1      37.077 -25.465 -11.550  0.00  0.00    -0.348 OA
ATOM     25  C   UNL     1      38.318 -24.653 -13.459  0.00  0.00    +0.188 C 
ATOM     26  C   UNL     1      37.238 -25.612 -12.964  0.00  0.00    +0.175 C 
ATOM     27  C   UNL     1      37.780 -23.165 -11.712  0.00  0.00    +0.174 C 
ATOM     28  C   UNL     1      36.709 -24.124 -11.221  0.00  0.00    +0.174 C 
ENDBRANCH  22  25
ENDBRANCH  21  22
ENDBRANCH  15  21
TORSDOF 5
ENDMDL
MODEL 4
REMARK VINA RESULT:     -10.2      1.938      5.320
REMARK  Name = 71616860
REMARK  5 active torsions:
REMARK  status: ('A' for Active; 'I' for Inactive)
REMARK    1  A    between atoms: C_10  and  C_17
REMARK    2  A    between atoms: C_15  and  O_21
REMARK    3  A    between atoms: C_16  and  C_18
REMARK    4  A    between atoms: O_21  and  C_22
REMARK    5  A    between atoms: C_22  and  C_25
REMARK                            x       y       z     vdW  Elec       q    Type
REMARK                         _______ _______ _______ _____ _____    ______ ____
ROOT
ATOM      1  O   UNL     1      31.755 -24.197 -14.142  0.00  0.00    -0.193 OA
ATOM      2  N   UNL     1      33.226 -23.471 -15.775  0.00  0.00    -0.205 N 
ATOM      3  N   UNL     1      33.929 -24.798 -13.902  0.00  0.00    -0.284 NA
ATOM      4  C   UNL     1      32.343 -22.862 -18.012  0.00  0.00    +0.049 C 
ATOM      5  C   UNL     1      33.716 -22.372 -18.378  0.00  0.00    -0.019 C 
ATOM      6  C   UNL     1      32.160 -22.773 -16.503  0.00  0.00    +0.114 C 
ATOM      7  C   UNL     1      34.796 -22.623 -17.505  0.00  0.00    +0.011 C 
ATOM      8  C   UNL     1      34.540 -23.378 -16.246  0.00  0.00    +0.068 C 
ATOM      9  C   UNL     1      33.922 -21.699 -19.591  0.00  0.00    +0.004 C 
ATOM     10  C   UNL     1      35.190 -21.235 -19.931  0.00  0.00    +0.041 C 
ATOM     11  C   UNL     1      36.062 -22.131 -17.861  0.00  0.00    +0.002 C 
ATOM     12  C   UNL     1      35.531 -23.998 -15.587  0.00  0.00    +0.088 C 
ATOM     13  C   UNL     1      36.257 -21.446 -19.064  0.00  0.00    +0.008 C 
ATOM     14  C   UNL     1      32.908 -24.160 -14.580  0.00  0.00    +0.275 C 
ATOM     15  C   UNL     1      35.122 -24.713 -14.379  0.00  0.00    +0.291 C 
ENDROOT
BRANCH  10  17
ATOM     16  C   UNL     1      35.565 -19.960 -22.199  0.00  0.00    -0.087 C 
ATOM     17  C   UNL     1      35.393 -20.543 -21.164  0.00  0.00    -0.064 C 
BRANCH  16  18
ATOM     18  C   UNL     1      35.774 -19.261 -23.441  0.00  0.00    +0.065 C 
ATOM     19  C   UNL     1      35.274 -17.850 -23.563  0.00  0.00    +0.014 C 
ATOM     20  C   UNL     1      34.581 -18.957 -24.302  0.00  0.00    +0.014 C 
ENDBRANCH  16  18
ENDBRANCH  10  17
BRANCH  15  21
ATOM     21  O   UNL     1      36.151 -25.323 -13.748  0.00  0.00    -0.448 OA
BRANCH  21  22
ATOM     22  C   UNL     1      37.273 -24.480 -13.534  0.00  0.00    +0.240 C 
BRANCH  22  25
ATOM     23  O   UNL     1      39.659 -24.625 -13.643  0.00  0.00    -0.347 OA
ATOM     24  O   UNL     1      39.569 -27.018 -15.109  0.00  0.00    -0.348 OA
ATOM     25  C   UNL     1      38.457 -25.023 -14.316  0.00  0.00    +0.188 C 
ATOM     26  C   UNL     1      38.414 -26.547 -14.410  0.00  0.00    +0.175 C 
ATOM     27  C   UNL     1      40.813 -25.102 -14.338  0.00  0.00    +0.174 C 
ATOM     28  C   UNL     1      40.765 -26.617 -14.435  0.00  0.00    +0.174 C 
ENDBRANCH  22  25
ENDBRANCH  21  22
ENDBRANCH  15  21
TORSDOF 5
ENDMDL
MODEL 5
REMARK VINA RESULT:     -10.1      7.658     11.589
REMARK  Name = 71616860
REMARK  5 active torsions:
REMARK  status: ('A' for Active; 'I' for Inactive)
REMARK    1  A    between atoms: C_10  and  C_17
REMARK    2  A    between atoms: C_15  and  O_21
REMARK    3  A    between atoms: C_16  and  C_18
REMARK    4  A    between atoms: O_21  and  C_22
REMARK    5  A    between atoms: C_22  and  C_25
REMARK                            x       y       z     vdW  Elec       q    Type
REMARK                         _______ _______ _______ _____ _____    ______ ____
ROOT
ATOM      1  O   UNL     1      34.947 -16.550 -26.231  0.00  0.00    -0.193 OA
ATOM      2  N   UNL     1      34.338 -14.843 -24.791  0.00  0.00    -0.205 N 
ATOM      3  N   UNL     1      35.230 -16.932 -24.013  0.00  0.00    -0.284 NA
ATOM      4  C   UNL     1      34.233 -12.518 -25.649  0.00  0.00    +0.049 C 
ATOM      5  C   UNL     1      33.649 -12.099 -24.329  0.00  0.00    -0.019 C 
ATOM      6  C   UNL     1      33.910 -13.985 -25.901  0.00  0.00    +0.114 C 
ATOM      7  C   UNL     1      33.614 -13.022 -23.263  0.00  0.00    +0.011 C 
ATOM      8  C   UNL     1      34.168 -14.389 -23.479  0.00  0.00    +0.068 C 
ATOM      9  C   UNL     1      33.174 -10.791 -24.154  0.00  0.00    +0.004 C 
ATOM     10  C   UNL     1      32.625 -10.399 -22.936  0.00  0.00    +0.041 C 
ATOM     11  C   UNL     1      33.041 -12.610 -22.049  0.00  0.00    +0.002 C 
ATOM     12  C   UNL     1      34.541 -15.164 -22.449  0.00  0.00    +0.088 C 
ATOM     13  C   UNL     1      32.553 -11.310 -21.888  0.00  0.00    +0.008 C 
ATOM     14  C   UNL     1      34.846 -16.134 -25.074  0.00  0.00    +0.275 C 
ATOM     15  C   UNL     1      35.083 -16.471 -22.821  0.00  0.00    +0.291 C 
ENDROOT
BRANCH  10  17
ATOM     16  C   UNL     1      31.722  -7.950 -22.625  0.00  0.00    -0.087 C 
ATOM     17  C   UNL     1      32.135  -9.068 -22.766  0.00  0.00    -0.064 C 
BRANCH  16  18
ATOM     18  C   UNL     1      31.225  -6.609 -22.456  0.00  0.00    +0.065 C 
ATOM     19  C   UNL     1      31.478  -5.607 -23.546  0.00  0.00    +0.014 C 
ATOM     20  C   UNL     1      32.214  -5.498 -22.244  0.00  0.00    +0.014 C 
ENDBRANCH  16  18
ENDBRANCH  10  17
BRANCH  15  21
ATOM     21  O   UNL     1      35.447 -17.218 -21.753  0.00  0.00    -0.448 OA
BRANCH  21  22
ATOM     22  C   UNL     1      36.475 -18.156 -22.034  0.00  0.00    +0.240 C 
BRANCH  22  25
ATOM     23  O   UNL     1      36.708 -19.939 -20.455  0.00  0.00    -0.347 OA
ATOM     24  O   UNL     1      34.104 -20.872 -20.935  0.00  0.00    -0.348 OA
ATOM     25  C   UNL     1      35.999 -19.545 -21.636  0.00  0.00    +0.188 C 
ATOM     26  C   UNL     1      34.499 -19.562 -21.353  0.00  0.00    +0.175 C 
ATOM     27  C   UNL     1      36.309 -21.246 -20.035  0.00  0.00    +0.174 C 
ATOM     28  C   UNL     1      34.815 -21.262 -19.758  0.00  0.00    +0.174 C 
ENDBRANCH  22  25
ENDBRANCH  21  22
ENDBRANCH  15  21
TORSDOF 5
ENDMDL
MODEL 6
REMARK VINA RESULT:      -9.9      5.493      9.251
REMARK  Name = 71616860
REMARK  5 active torsions:
REMARK  status: ('A' for Active; 'I' for Inactive)
REMARK    1  A    between atoms: C_10  and  C_17
REMARK    2  A    between atoms: C_15  and  O_21
REMARK    3  A    between atoms: C_16  and  C_18
REMARK    4  A    between atoms: O_21  and  C_22
REMARK    5  A    between atoms: C_22  and  C_25
REMARK                            x       y       z     vdW  Elec       q    Type
REMARK                         _______ _______ _______ _____ _____    ______ ____
ROOT
ATOM      1  O   UNL     1      35.162 -20.216 -25.021  0.00  0.00    -0.193 OA
ATOM      2  N   UNL     1      35.031 -18.102 -24.087  0.00  0.00    -0.205 N 
ATOM      3  N   UNL     1      35.781 -20.017 -22.848  0.00  0.00    -0.284 NA
ATOM      4  C   UNL     1      35.064 -16.119 -25.576  0.00  0.00    +0.049 C 
ATOM      5  C   UNL     1      34.778 -15.261 -24.375  0.00  0.00    -0.019 C 
ATOM      6  C   UNL     1      34.524 -17.522 -25.335  0.00  0.00    +0.114 C 
ATOM      7  C   UNL     1      34.817 -15.836 -23.088  0.00  0.00    +0.011 C 
ATOM      8  C   UNL     1      35.152 -17.284 -22.959  0.00  0.00    +0.068 C 
ATOM      9  C   UNL     1      34.506 -13.895 -24.536  0.00  0.00    +0.004 C 
ATOM     10  C   UNL     1      34.232 -13.097 -23.429  0.00  0.00    +0.041 C 
ATOM     11  C   UNL     1      34.521 -15.017 -21.987  0.00  0.00    +0.002 C 
ATOM     12  C   UNL     1      35.601 -17.798 -21.804  0.00  0.00    +0.088 C 
ATOM     13  C   UNL     1      34.234 -13.660 -22.157  0.00  0.00    +0.008 C 
ATOM     14  C   UNL     1      35.318 -19.487 -24.038  0.00  0.00    +0.275 C 
ATOM     15  C   UNL     1      35.903 -19.229 -21.838  0.00  0.00    +0.291 C 
ENDROOT
BRANCH  10  17
ATOM     16  C   UNL     1      33.706 -10.541 -23.742  0.00  0.00    -0.087 C 
ATOM     17  C   UNL     1      33.947 -11.708 -23.599  0.00  0.00    -0.064 C 
BRANCH  16  18
ATOM     18  C   UNL     1      33.415  -9.141 -23.915  0.00  0.00    +0.065 C 
ATOM     19  C   UNL     1      34.518  -8.145 -23.695  0.00  0.00    +0.014 C 
ATOM     20  C   UNL     1      33.399  -8.255 -22.701  0.00  0.00    +0.014 C 
ENDBRANCH  16  18
ENDBRANCH  10  17
BRANCH  15  21
ATOM     21  O   UNL     1      36.354 -19.705 -20.655  0.00  0.00    -0.448 OA
BRANCH  21  22
ATOM     22  C   UNL     1      35.676 -20.870 -20.210  0.00  0.00    +0.240 C 
BRANCH  22  25
ATOM     23  O   UNL     1      37.130 -20.499 -18.346  0.00  0.00    -0.347 OA
ATOM     24  O   UNL     1      36.419 -22.936 -17.147  0.00  0.00    -0.348 OA
ATOM     25  C   UNL     1      36.495 -21.530 -19.112  0.00  0.00    +0.188 C 
ATOM     26  C   UNL     1      35.618 -22.375 -18.191  0.00  0.00    +0.175 C 
ATOM     27  C   UNL     1      37.925 -21.059 -17.298  0.00  0.00    +0.174 C 
ATOM     28  C   UNL     1      37.051 -21.904 -16.387  0.00  0.00    +0.174 C 
ENDBRANCH  22  25
ENDBRANCH  21  22
ENDBRANCH  15  21
TORSDOF 5
ENDMDL
MODEL 7
REMARK VINA RESULT:      -9.8      8.029     12.408
REMARK  Name = 71616860
REMARK  5 active torsions:
REMARK  status: ('A' for Active; 'I' for Inactive)
REMARK    1  A    between atoms: C_10  and  C_17
REMARK    2  A    between atoms: C_15  and  O_21
REMARK    3  A    between atoms: C_16  and  C_18
REMARK    4  A    between atoms: O_21  and  C_22
REMARK    5  A    between atoms: C_22  and  C_25
REMARK                            x       y       z     vdW  Elec       q    Type
REMARK                         _______ _______ _______ _____ _____    ______ ____
ROOT
ATOM      1  O   UNL     1      34.135 -14.028 -27.598  0.00  0.00    -0.193 OA
ATOM      2  N   UNL     1      34.450 -15.052 -25.547  0.00  0.00    -0.205 N 
ATOM      3  N   UNL     1      33.775 -12.757 -25.755  0.00  0.00    -0.284 NA
ATOM      4  C   UNL     1      34.322 -17.525 -25.398  0.00  0.00    +0.049 C 
ATOM      5  C   UNL     1      34.773 -17.423 -23.968  0.00  0.00    -0.019 C 
ATOM      6  C   UNL     1      34.833 -16.320 -26.176  0.00  0.00    +0.114 C 
ATOM      7  C   UNL     1      34.859 -16.154 -23.357  0.00  0.00    +0.011 C 
ATOM      8  C   UNL     1      34.488 -14.949 -24.152  0.00  0.00    +0.068 C 
ATOM      9  C   UNL     1      35.076 -18.584 -23.242  0.00  0.00    +0.004 C 
ATOM     10  C   UNL     1      35.503 -18.496 -21.920  0.00  0.00    +0.041 C 
ATOM     11  C   UNL     1      35.308 -16.088 -22.028  0.00  0.00    +0.002 C 
ATOM     12  C   UNL     1      34.154 -13.793 -23.557  0.00  0.00    +0.088 C 
ATOM     13  C   UNL     1      35.624 -17.249 -21.317  0.00  0.00    +0.008 C 
ATOM     14  C   UNL     1      34.119 -13.947 -26.368  0.00  0.00    +0.275 C 
ATOM     15  C   UNL     1      33.796 -12.707 -24.469  0.00  0.00    +0.291 C 
ENDROOT
BRANCH  10  17
ATOM     16  C   UNL     1      36.083 -20.676 -20.571  0.00  0.00    -0.087 C 
ATOM     17  C   UNL     1      35.818 -19.681 -21.188  0.00  0.00    -0.064 C 
BRANCH  16  18
ATOM     18  C   UNL     1      36.402 -21.869 -19.830  0.00  0.00    +0.065 C 
ATOM     19  C   UNL     1      35.496 -22.278 -18.704  0.00  0.00    +0.014 C 
ATOM     20  C   UNL     1      36.860 -21.729 -18.406  0.00  0.00    +0.014 C 
ENDBRANCH  16  18
ENDBRANCH  10  17
BRANCH  15  21
ATOM     21  O   UNL     1      33.465 -11.563 -23.828  0.00  0.00    -0.448 OA
BRANCH  21  22
ATOM     22  C   UNL     1      32.586 -11.756 -22.729  0.00  0.00    +0.240 C 
BRANCH  22  25
ATOM     23  O   UNL     1      32.435 -10.338 -20.807  0.00  0.00    -0.347 OA
ATOM     24  O   UNL     1      32.451  -8.007 -22.371  0.00  0.00    -0.348 OA
ATOM     25  C   UNL     1      32.140 -10.399 -22.209  0.00  0.00    +0.188 C 
ATOM     26  C   UNL     1      32.863  -9.260 -22.925  0.00  0.00    +0.175 C 
ATOM     27  C   UNL     1      32.028  -9.083 -20.256  0.00  0.00    +0.174 C 
ATOM     28  C   UNL     1      32.744  -7.952 -20.974  0.00  0.00    +0.174 C 
ENDBRANCH  22  25
ENDBRANCH  21  22
ENDBRANCH  15  21
TORSDOF 5
ENDMDL
MODEL 8
REMARK VINA RESULT:      -9.4      9.363     13.552
REMARK  Name = 71616860
REMARK  5 active torsions:
REMARK  status: ('A' for Active; 'I' for Inactive)
REMARK    1  A    between atoms: C_10  and  C_17
REMARK    2  A    between atoms: C_15  and  O_21
REMARK    3  A    between atoms: C_16  and  C_18
REMARK    4  A    between atoms: O_21  and  C_22
REMARK    5  A    between atoms: C_22  and  C_25
REMARK                            x       y       z     vdW  Elec       q    Type
REMARK                         _______ _______ _______ _____ _____    ______ ____
ROOT
ATOM      1  O   UNL     1      32.466 -14.542 -20.402  0.00  0.00    -0.193 OA
ATOM      2  N   UNL     1      32.695 -12.641 -21.702  0.00  0.00    -0.205 N 
ATOM      3  N   UNL     1      33.836 -14.693 -22.204  0.00  0.00    -0.284 NA
ATOM      4  C   UNL     1      30.924 -10.905 -21.627  0.00  0.00    +0.049 C 
ATOM      5  C   UNL     1      31.800 -10.030 -22.479  0.00  0.00    -0.019 C 
ATOM      6  C   UNL     1      31.794 -11.873 -20.836  0.00  0.00    +0.114 C 
ATOM      7  C   UNL     1      32.976 -10.567 -23.043  0.00  0.00    +0.011 C 
ATOM      8  C   UNL     1      33.311 -11.996 -22.780  0.00  0.00    +0.068 C 
ATOM      9  C   UNL     1      31.430  -8.701 -22.734  0.00  0.00    +0.004 C 
ATOM     10  C   UNL     1      32.242  -7.884 -23.515  0.00  0.00    +0.041 C 
ATOM     11  C   UNL     1      33.788  -9.719 -23.814  0.00  0.00    +0.002 C 
ATOM     12  C   UNL     1      34.149 -12.677 -23.577  0.00  0.00    +0.088 C 
ATOM     13  C   UNL     1      33.422  -8.391 -24.049  0.00  0.00    +0.008 C 
ATOM     14  C   UNL     1      32.972 -13.992 -21.383  0.00  0.00    +0.275 C 
ATOM     15  C   UNL     1      34.363 -14.074 -23.201  0.00  0.00    +0.291 C 
ENDROOT
BRANCH  10  17
ATOM     16  C   UNL     1      31.550  -5.390 -23.976  0.00  0.00    -0.087 C 
ATOM     17  C   UNL     1      31.865  -6.529 -23.765  0.00  0.00    -0.064 C 
BRANCH  16  18
ATOM     18  C   UNL     1      31.174  -4.022 -24.229  0.00  0.00    +0.065 C 
ATOM     19  C   UNL     1      32.111  -3.155 -25.019  0.00  0.00    +0.014 C 
ATOM     20  C   UNL     1      31.944  -2.928 -23.546  0.00  0.00    +0.014 C 
ENDBRANCH  16  18
ENDBRANCH  10  17
BRANCH  15  21
ATOM     21  O   UNL     1      35.212 -14.722 -24.031  0.00  0.00    -0.448 OA
BRANCH  21  22
ATOM     22  C   UNL     1      34.571 -15.634 -24.910  0.00  0.00    +0.240 C 
BRANCH  22  25
ATOM     23  O   UNL     1      35.571 -17.162 -23.364  0.00  0.00    -0.347 OA
ATOM     24  O   UNL     1      34.828 -19.393 -24.897  0.00  0.00    -0.348 OA
ATOM     25  C   UNL     1      35.196 -17.009 -24.739  0.00  0.00    +0.188 C 
ATOM     26  C   UNL     1      34.218 -18.119 -25.121  0.00  0.00    +0.175 C 
ATOM     27  C   UNL     1      36.175 -18.439 -23.140  0.00  0.00    +0.174 C 
ATOM     28  C   UNL     1      35.203 -19.540 -23.526  0.00  0.00    +0.174 C 
ENDBRANCH  22  25
ENDBRANCH  21  22
ENDBRANCH  15  21
TORSDOF 5
ENDMDL
MODEL 9
REMARK VINA RESULT:      -8.9      9.827     13.934
REMARK  Name = 71616860
REMARK  5 active torsions:
REMARK  status: ('A' for Active; 'I' for Inactive)
REMARK    1  A    between atoms: C_10  and  C_17
REMARK    2  A    between atoms: C_15  and  O_21
REMARK    3  A    between atoms: C_16  and  C_18
REMARK    4  A    between atoms: O_21  and  C_22
REMARK    5  A    between atoms: C_22  and  C_25
REMARK                            x       y       z     vdW  Elec       q    Type
REMARK                         _______ _______ _______ _____ _____    ______ ____
ROOT
ATOM      1  O   UNL     1      32.331 -13.740 -19.614  0.00  0.00    -0.193 OA
ATOM      2  N   UNL     1      32.501 -11.945 -21.066  0.00  0.00    -0.205 N 
ATOM      3  N   UNL     1      32.977 -14.200 -21.738  0.00  0.00    -0.284 NA
ATOM      4  C   UNL     1      31.239  -9.867 -20.571  0.00  0.00    +0.049 C 
ATOM      5  C   UNL     1      31.946  -9.211 -21.724  0.00  0.00    -0.019 C 
ATOM      6  C   UNL     1      32.105 -10.993 -20.022  0.00  0.00    +0.114 C 
ATOM      7  C   UNL     1      32.740  -9.994 -22.587  0.00  0.00    +0.011 C 
ATOM      8  C   UNL     1      32.847 -11.459 -22.331  0.00  0.00    +0.068 C 
ATOM      9  C   UNL     1      31.789  -7.836 -21.953  0.00  0.00    +0.004 C 
ATOM     10  C   UNL     1      32.447  -7.221 -23.014  0.00  0.00    +0.041 C 
ATOM     11  C   UNL     1      33.409  -9.350 -23.640  0.00  0.00    +0.002 C 
ATOM     12  C   UNL     1      33.224 -12.313 -23.295  0.00  0.00    +0.088 C 
ATOM     13  C   UNL     1      33.261  -7.976 -23.852  0.00  0.00    +0.008 C 
ATOM     14  C   UNL     1      32.589 -13.321 -20.745  0.00  0.00    +0.275 C 
ATOM     15  C   UNL     1      33.263 -13.720 -22.897  0.00  0.00    +0.291 C 
ENDROOT
BRANCH  10  17
ATOM     16  C   UNL     1      32.158  -4.641 -23.428  0.00  0.00    -0.087 C 
ATOM     17  C   UNL     1      32.291  -5.818 -23.239  0.00  0.00    -0.064 C 
BRANCH  16  18
ATOM     18  C   UNL     1      31.996  -3.228 -23.655  0.00  0.00    +0.065 C 
ATOM     19  C   UNL     1      30.924  -2.771 -24.602  0.00  0.00    +0.014 C 
ATOM     20  C   UNL     1      32.366  -2.670 -25.001  0.00  0.00    +0.014 C 
ENDBRANCH  16  18
ENDBRANCH  10  17
BRANCH  15  21
ATOM     21  O   UNL     1      33.646 -14.544 -23.899  0.00  0.00    -0.448 OA
BRANCH  21  22
ATOM     22  C   UNL     1      35.042 -14.801 -23.928  0.00  0.00    +0.240 C 
BRANCH  22  25
ATOM     23  O   UNL     1      35.211 -17.119 -23.361  0.00  0.00    -0.347 OA
ATOM     24  O   UNL     1      34.453 -17.933 -25.939  0.00  0.00    -0.348 OA
ATOM     25  C   UNL     1      35.276 -16.205 -24.462  0.00  0.00    +0.188 C 
ATOM     26  C   UNL     1      34.225 -16.590 -25.500  0.00  0.00    +0.175 C 
ATOM     27  C   UNL     1      35.433 -18.462 -23.800  0.00  0.00    +0.174 C 
ATOM     28  C   UNL     1      34.389 -18.841 -24.836  0.00  0.00    +0.174 C 
ENDBRANCH  22  25
ENDBRANCH  21  22
ENDBRANCH  15  21
TORSDOF 5
ENDMDL
