MODEL 1
REMARK VINA RESULT:     -11.8      0.000      0.000
REMARK  Name = 16741245
REMARK  7 active torsions:
REMARK  status: ('A' for Active; 'I' for Inactive)
REMARK    1  A    between atoms: C_2  and  S_20
REMARK    2  A    between atoms: C_3  and  N_9
REMARK    3  A    between atoms: C_10  and  C_12
REMARK    4  A    between atoms: C_12  and  C_17
REMARK    5  A    between atoms: C_12  and  O_18
REMARK    6  A    between atoms: S_20  and  C_23
REMARK    7  A    between atoms: C_26  and  C_31
REMARK                            x       y       z     vdW  Elec       q    Type
REMARK                         _______ _______ _______ _____ _____    ______ ____
ROOT
ATOM      1 CL   UNL     1      34.085 -14.495 -25.201  0.00  0.00    -0.081 Cl
ATOM      2  C   UNL     1      35.602 -17.116 -22.599  0.00  0.00    +0.111 C 
ATOM      3  C   UNL     1      34.268 -14.688 -22.484  0.00  0.00    +0.061 C 
ATOM      4  C   UNL     1      35.216 -16.476 -23.776  0.00  0.00    +0.031 C 
ATOM      5  C   UNL     1      35.316 -16.534 -21.363  0.00  0.00    +0.020 C 
ATOM      6  C   UNL     1      34.545 -15.254 -23.718  0.00  0.00    +0.072 C 
ATOM      7  C   UNL     1      34.647 -15.313 -21.306  0.00  0.00    +0.017 C 
ENDROOT
BRANCH   3   9
ATOM      8  O   UNL     1      31.920 -13.893 -20.811  0.00  0.00    -0.272 OA
ATOM      9  N   UNL     1      33.589 -13.449 -22.391  0.00  0.00    -0.281 N 
ATOM     10  C   UNL     1      32.496 -13.137 -21.591  0.00  0.00    +0.259 C 
ATOM     11  H   UNL     1      33.931 -12.723 -22.961  0.00  0.00    +0.155 HD
BRANCH  10  12
ATOM     12  C   UNL     1      32.029 -11.680 -21.763  0.00  0.00    +0.245 C 
ATOM     13  C   UNL     1      32.905 -10.928 -22.765  0.00  0.00    +0.048 C 
BRANCH  12  17
ATOM     14  F   UNL     1      32.838 -11.447 -19.532  0.00  0.00    -0.167 F 
ATOM     15  F   UNL     1      30.724 -11.062 -19.881  0.00  0.00    -0.167 F 
ATOM     16  F   UNL     1      32.218  -9.633 -20.573  0.00  0.00    -0.167 F 
ATOM     17  C   UNL     1      31.957 -10.952 -20.428  0.00  0.00    +0.427 C 
ENDBRANCH  12  17
BRANCH  12  18
ATOM     18  O   UNL     1      30.700 -11.721 -22.283  0.00  0.00    -0.372 OA
ATOM     19  H   UNL     1      30.723 -12.037 -23.200  0.00  0.00    +0.211 HD
ENDBRANCH  12  18
ENDBRANCH  10  12
ENDBRANCH   3   9
BRANCH   2  20
ATOM     20  S   UNL     1      36.440 -18.645 -22.670  0.00  0.00    +0.027 S 
ATOM     21  O   UNL     1      37.807 -18.463 -22.200  0.00  0.00    -0.164 OA
ATOM     22  O   UNL     1      36.200 -19.183 -24.003  0.00  0.00    -0.164 OA
BRANCH  20  23
ATOM     23  C   UNL     1      35.696 -19.749 -21.500  0.00  0.00    +0.110 C 
ATOM     24  C   UNL     1      36.511 -20.478 -20.655  0.00  0.00    +0.019 C 
ATOM     25  C   UNL     1      34.319 -19.857 -21.461  0.00  0.00    +0.019 C 
ATOM     26  C   UNL     1      34.538 -21.473 -19.678  0.00  0.00    +0.054 C 
ATOM     27  C   UNL     1      35.926 -21.349 -19.735  0.00  0.00    +0.006 C 
ATOM     28  C   UNL     1      33.735 -20.727 -20.540  0.00  0.00    +0.006 C 
BRANCH  26  31
ATOM     29  O   UNL     1      32.764 -22.735 -18.943  0.00  0.00    -0.270 OA
ATOM     30  N   UNL     1      34.674 -22.785 -17.596  0.00  0.00    -0.273 N 
ATOM     31  C   UNL     1      33.928 -22.379 -18.717  0.00  0.00    +0.249 C 
ATOM     32  C   UNL     1      36.047 -22.338 -17.370  0.00  0.00    +0.115 C 
ATOM     33  C   UNL     1      34.127 -23.677 -16.583  0.00  0.00    +0.115 C 
ENDBRANCH  26  31
ENDBRANCH  20  23
ENDBRANCH   2  20
TORSDOF 7
ENDMDL
MODEL 2
REMARK VINA RESULT:     -10.9      2.421      3.884
REMARK  Name = 16741245
REMARK  7 active torsions:
REMARK  status: ('A' for Active; 'I' for Inactive)
REMARK    1  A    between atoms: C_2  and  S_20
REMARK    2  A    between atoms: C_3  and  N_9
REMARK    3  A    between atoms: C_10  and  C_12
REMARK    4  A    between atoms: C_12  and  C_17
REMARK    5  A    between atoms: C_12  and  O_18
REMARK    6  A    between atoms: S_20  and  C_23
REMARK    7  A    between atoms: C_26  and  C_31
REMARK                            x       y       z     vdW  Elec       q    Type
REMARK                         _______ _______ _______ _____ _____    ______ ____
ROOT
ATOM      1 CL   UNL     1      33.194 -12.995 -21.255  0.00  0.00    -0.081 Cl
ATOM      2  C   UNL     1      34.120 -14.548 -24.815  0.00  0.00    +0.111 C 
ATOM      3  C   UNL     1      33.718 -12.019 -23.751  0.00  0.00    +0.061 C 
ATOM      4  C   UNL     1      33.796 -14.402 -23.466  0.00  0.00    +0.031 C 
ATOM      5  C   UNL     1      34.242 -13.421 -25.628  0.00  0.00    +0.020 C 
ATOM      6  C   UNL     1      33.593 -13.130 -22.931  0.00  0.00    +0.072 C 
ATOM      7  C   UNL     1      34.039 -12.149 -25.093  0.00  0.00    +0.017 C 
ENDROOT
BRANCH   3   9
ATOM      8  O   UNL     1      31.248 -10.726 -22.668  0.00  0.00    -0.272 OA
ATOM      9  N   UNL     1      33.518 -10.714 -23.238  0.00  0.00    -0.281 N 
ATOM     10  C   UNL     1      32.340 -10.165 -22.747  0.00  0.00    +0.259 C 
ATOM     11  H   UNL     1      34.308 -10.127 -23.230  0.00  0.00    +0.155 HD
BRANCH  10  12
ATOM     12  C   UNL     1      32.512  -8.710 -22.276  0.00  0.00    +0.245 C 
ATOM     13  C   UNL     1      33.707  -8.041 -22.956  0.00  0.00    +0.048 C 
BRANCH  12  17
ATOM     14  F   UNL     1      31.542  -7.991 -20.220  0.00  0.00    -0.167 F 
ATOM     15  F   UNL     1      33.712  -7.927 -20.385  0.00  0.00    -0.167 F 
ATOM     16  F   UNL     1      32.692  -9.845 -20.198  0.00  0.00    -0.167 F 
ATOM     17  C   UNL     1      32.610  -8.618 -20.759  0.00  0.00    +0.427 C 
ENDBRANCH  12  17
BRANCH  12  18
ATOM     18  O   UNL     1      31.334  -8.000 -22.658  0.00  0.00    -0.372 OA
ATOM     19  H   UNL     1      30.880  -7.676 -21.863  0.00  0.00    +0.211 HD
ENDBRANCH  12  18
ENDBRANCH  10  12
ENDBRANCH   3   9
BRANCH   2  20
ATOM     20  S   UNL     1      34.375 -16.139 -25.485  0.00  0.00    +0.027 S 
ATOM     21  O   UNL     1      35.530 -16.104 -26.373  0.00  0.00    -0.164 OA
ATOM     22  O   UNL     1      33.084 -16.580 -25.997  0.00  0.00    -0.164 OA
BRANCH  20  23
ATOM     23  C   UNL     1      34.839 -17.235 -24.171  0.00  0.00    +0.110 C 
ATOM     24  C   UNL     1      34.717 -18.598 -24.361  0.00  0.00    +0.019 C 
ATOM     25  C   UNL     1      35.310 -16.701 -22.987  0.00  0.00    +0.019 C 
ATOM     26  C   UNL     1      35.558 -18.943 -22.123  0.00  0.00    +0.054 C 
ATOM     27  C   UNL     1      35.080 -19.460 -23.327  0.00  0.00    +0.006 C 
ATOM     28  C   UNL     1      35.674 -17.564 -21.953  0.00  0.00    +0.006 C 
BRANCH  26  31
ATOM     29  O   UNL     1      37.132 -19.852 -20.717  0.00  0.00    -0.270 OA
ATOM     30  N   UNL     1      34.952 -20.650 -20.452  0.00  0.00    -0.273 N 
ATOM     31  C   UNL     1      35.939 -19.842 -21.045  0.00  0.00    +0.249 C 
ATOM     32  C   UNL     1      33.553 -20.605 -20.872  0.00  0.00    +0.115 C 
ATOM     33  C   UNL     1      35.257 -21.587 -19.380  0.00  0.00    +0.115 C 
ENDBRANCH  26  31
ENDBRANCH  20  23
ENDBRANCH   2  20
TORSDOF 7
ENDMDL
MODEL 3
REMARK VINA RESULT:     -10.8      3.009      4.352
REMARK  Name = 16741245
REMARK  7 active torsions:
REMARK  status: ('A' for Active; 'I' for Inactive)
REMARK    1  A    between atoms: C_2  and  S_20
REMARK    2  A    between atoms: C_3  and  N_9
REMARK    3  A    between atoms: C_10  and  C_12
REMARK    4  A    between atoms: C_12  and  C_17
REMARK    5  A    between atoms: C_12  and  O_18
REMARK    6  A    between atoms: S_20  and  C_23
REMARK    7  A    between atoms: C_26  and  C_31
REMARK                            x       y       z     vdW  Elec       q    Type
REMARK                         _______ _______ _______ _____ _____    ______ ____
ROOT
ATOM      1 CL   UNL     1      32.464 -13.203 -21.249  0.00  0.00    -0.081 Cl
ATOM      2  C   UNL     1      34.027 -14.389 -24.727  0.00  0.00    +0.111 C 
ATOM      3  C   UNL     1      33.289 -11.988 -23.551  0.00  0.00    +0.061 C 
ATOM      4  C   UNL     1      33.493 -14.378 -23.439  0.00  0.00    +0.031 C 
ATOM      5  C   UNL     1      34.191 -13.191 -25.423  0.00  0.00    +0.020 C 
ATOM      6  C   UNL     1      33.121 -13.171 -22.847  0.00  0.00    +0.072 C 
ATOM      7  C   UNL     1      33.819 -11.984 -24.833  0.00  0.00    +0.017 C 
ENDROOT
BRANCH   3   9
ATOM      8  O   UNL     1      34.443  -9.259 -23.957  0.00  0.00    -0.272 OA
ATOM      9  N   UNL     1      32.922 -10.746 -22.980  0.00  0.00    -0.281 N 
ATOM     10  C   UNL     1      33.499  -9.502 -23.207  0.00  0.00    +0.259 C 
ATOM     11  H   UNL     1      32.169 -10.766 -22.346  0.00  0.00    +0.155 HD
BRANCH  10  12
ATOM     12  C   UNL     1      32.826  -8.377 -22.400  0.00  0.00    +0.245 C 
ATOM     13  C   UNL     1      32.253  -8.902 -21.083  0.00  0.00    +0.048 C 
BRANCH  12  17
ATOM     14  F   UNL     1      32.293  -7.062 -24.315  0.00  0.00    -0.167 F 
ATOM     15  F   UNL     1      31.169  -6.683 -22.490  0.00  0.00    -0.167 F 
ATOM     16  F   UNL     1      30.802  -8.502 -23.635  0.00  0.00    -0.167 F 
ATOM     17  C   UNL     1      31.769  -7.652 -23.220  0.00  0.00    +0.427 C 
ENDBRANCH  12  17
BRANCH  12  18
ATOM     18  O   UNL     1      33.837  -7.418 -22.089  0.00  0.00    -0.372 OA
ATOM     19  H   UNL     1      33.843  -6.724 -22.767  0.00  0.00    +0.211 HD
ENDBRANCH  12  18
ENDBRANCH  10  12
ENDBRANCH   3   9
BRANCH   2  20
ATOM     20  S   UNL     1      34.493 -15.899 -25.467  0.00  0.00    +0.027 S 
ATOM     21  O   UNL     1      35.732 -15.705 -26.209  0.00  0.00    -0.164 OA
ATOM     22  O   UNL     1      33.311 -16.402 -26.154  0.00  0.00    -0.164 OA
BRANCH  20  23
ATOM     23  C   UNL     1      34.903 -17.051 -24.183  0.00  0.00    +0.110 C 
ATOM     24  C   UNL     1      34.775 -18.404 -24.431  0.00  0.00    +0.019 C 
ATOM     25  C   UNL     1      35.340 -16.569 -22.964  0.00  0.00    +0.019 C 
ATOM     26  C   UNL     1      35.539 -18.847 -22.182  0.00  0.00    +0.054 C 
ATOM     27  C   UNL     1      35.096 -19.311 -23.421  0.00  0.00    +0.006 C 
ATOM     28  C   UNL     1      35.662 -17.476 -21.954  0.00  0.00    +0.006 C 
BRANCH  26  31
ATOM     29  O   UNL     1      37.064 -19.854 -20.789  0.00  0.00    -0.270 OA
ATOM     30  N   UNL     1      34.854 -20.583 -20.573  0.00  0.00    -0.273 N 
ATOM     31  C   UNL     1      35.875 -19.792 -21.129  0.00  0.00    +0.249 C 
ATOM     32  C   UNL     1      33.462 -20.476 -21.007  0.00  0.00    +0.115 C 
ATOM     33  C   UNL     1      35.114 -21.562 -19.528  0.00  0.00    +0.115 C 
ENDBRANCH  26  31
ENDBRANCH  20  23
ENDBRANCH   2  20
TORSDOF 7
ENDMDL
MODEL 4
REMARK VINA RESULT:     -10.7      4.688     10.995
REMARK  Name = 16741245
REMARK  7 active torsions:
REMARK  status: ('A' for Active; 'I' for Inactive)
REMARK    1  A    between atoms: C_2  and  S_20
REMARK    2  A    between atoms: C_3  and  N_9
REMARK    3  A    between atoms: C_10  and  C_12
REMARK    4  A    between atoms: C_12  and  C_17
REMARK    5  A    between atoms: C_12  and  O_18
REMARK    6  A    between atoms: S_20  and  C_23
REMARK    7  A    between atoms: C_26  and  C_31
REMARK                            x       y       z     vdW  Elec       q    Type
REMARK                         _______ _______ _______ _____ _____    ______ ____
ROOT
ATOM      1 CL   UNL     1      34.189 -13.177 -24.597  0.00  0.00    -0.081 Cl
ATOM      2  C   UNL     1      32.509 -12.358 -21.068  0.00  0.00    +0.111 C 
ATOM      3  C   UNL     1      33.812 -14.507 -22.242  0.00  0.00    +0.061 C 
ATOM      4  C   UNL     1      32.974 -12.260 -22.379  0.00  0.00    +0.031 C 
ATOM      5  C   UNL     1      32.701 -13.537 -20.347  0.00  0.00    +0.020 C 
ATOM      6  C   UNL     1      33.629 -13.341 -22.970  0.00  0.00    +0.072 C 
ATOM      7  C   UNL     1      33.354 -14.618 -20.938  0.00  0.00    +0.017 C 
ENDROOT
BRANCH   3   9
ATOM      8  O   UNL     1      35.295 -16.750 -20.934  0.00  0.00    -0.272 OA
ATOM      9  N   UNL     1      34.472 -15.621 -22.812  0.00  0.00    -0.281 N 
ATOM     10  C   UNL     1      35.150 -16.638 -22.150  0.00  0.00    +0.259 C 
ATOM     11  H   UNL     1      34.449 -15.683 -23.794  0.00  0.00    +0.155 HD
BRANCH  10  12
ATOM     12  C   UNL     1      35.743 -17.683 -23.112  0.00  0.00    +0.245 C 
ATOM     13  C   UNL     1      35.391 -17.367 -24.566  0.00  0.00    +0.048 C 
BRANCH  12  17
ATOM     14  F   UNL     1      34.093 -19.132 -22.184  0.00  0.00    -0.167 F 
ATOM     15  F   UNL     1      36.183 -19.628 -21.827  0.00  0.00    -0.167 F 
ATOM     16  F   UNL     1      35.322 -19.914 -23.809  0.00  0.00    -0.167 F 
ATOM     17  C   UNL     1      35.327 -19.097 -22.731  0.00  0.00    +0.427 C 
ENDBRANCH  12  17
BRANCH  12  18
ATOM     18  O   UNL     1      37.163 -17.621 -22.979  0.00  0.00    -0.372 OA
ATOM     19  H   UNL     1      37.453 -18.255 -22.304  0.00  0.00    +0.211 HD
ENDBRANCH  12  18
ENDBRANCH  10  12
ENDBRANCH   3   9
BRANCH   2  20
ATOM     20  S   UNL     1      31.691 -11.006 -20.328  0.00  0.00    +0.027 S 
ATOM     21  O   UNL     1      32.266 -10.762 -19.012  0.00  0.00    -0.164 OA
ATOM     22  O   UNL     1      30.264 -11.271 -20.454  0.00  0.00    -0.164 OA
BRANCH  20  23
ATOM     23  C   UNL     1      32.055  -9.546 -21.266  0.00  0.00    +0.110 C 
ATOM     24  C   UNL     1      31.578  -9.444 -22.558  0.00  0.00    +0.019 C 
ATOM     25  C   UNL     1      32.810  -8.546 -20.683  0.00  0.00    +0.019 C 
ATOM     26  C   UNL     1      32.626  -7.274 -22.730  0.00  0.00    +0.054 C 
ATOM     27  C   UNL     1      31.866  -8.297 -23.297  0.00  0.00    +0.006 C 
ATOM     28  C   UNL     1      33.097  -7.398 -21.423  0.00  0.00    +0.006 C 
BRANCH  26  31
ATOM     29  O   UNL     1      33.954  -6.096 -24.188  0.00  0.00    -0.270 OA
ATOM     30  N   UNL     1      32.054  -4.976 -23.412  0.00  0.00    -0.273 N 
ATOM     31  C   UNL     1      32.925  -6.077 -23.500  0.00  0.00    +0.249 C 
ATOM     32  C   UNL     1      30.850  -4.999 -22.585  0.00  0.00    +0.115 C 
ATOM     33  C   UNL     1      32.295  -3.738 -24.140  0.00  0.00    +0.115 C 
ENDBRANCH  26  31
ENDBRANCH  20  23
ENDBRANCH   2  20
TORSDOF 7
ENDMDL
MODEL 5
REMARK VINA RESULT:     -10.5      4.614      9.363
REMARK  Name = 16741245
REMARK  7 active torsions:
REMARK  status: ('A' for Active; 'I' for Inactive)
REMARK    1  A    between atoms: C_2  and  S_20
REMARK    2  A    between atoms: C_3  and  N_9
REMARK    3  A    between atoms: C_10  and  C_12
REMARK    4  A    between atoms: C_12  and  C_17
REMARK    5  A    between atoms: C_12  and  O_18
REMARK    6  A    between atoms: S_20  and  C_23
REMARK    7  A    between atoms: C_26  and  C_31
REMARK                            x       y       z     vdW  Elec       q    Type
REMARK                         _______ _______ _______ _____ _____    ______ ____
ROOT
ATOM      1 CL   UNL     1      36.796 -21.603 -18.892  0.00  0.00    -0.081 Cl
ATOM      2  C   UNL     1      35.314 -19.663 -22.052  0.00  0.00    +0.111 C 
ATOM      3  C   UNL     1      34.308 -21.048 -19.871  0.00  0.00    +0.061 C 
ATOM      4  C   UNL     1      36.187 -20.225 -21.120  0.00  0.00    +0.031 C 
ATOM      5  C   UNL     1      33.936 -19.797 -21.886  0.00  0.00    +0.020 C 
ATOM      6  C   UNL     1      35.680 -20.922 -20.023  0.00  0.00    +0.072 C 
ATOM      7  C   UNL     1      33.430 -20.494 -20.790  0.00  0.00    +0.017 C 
ENDROOT
BRANCH   3   9
ATOM      8  O   UNL     1      34.100 -23.988 -19.363  0.00  0.00    -0.272 OA
ATOM      9  N   UNL     1      33.763 -21.749 -18.769  0.00  0.00    -0.281 N 
ATOM     10  C   UNL     1      33.693 -23.125 -18.587  0.00  0.00    +0.259 C 
ATOM     11  H   UNL     1      33.388 -21.196 -18.046  0.00  0.00    +0.155 HD
BRANCH  10  12
ATOM     12  C   UNL     1      33.025 -23.517 -17.256  0.00  0.00    +0.245 C 
ATOM     13  C   UNL     1      31.743 -22.719 -17.019  0.00  0.00    +0.048 C 
BRANCH  12  17
ATOM     14  F   UNL     1      35.046 -22.601 -16.383  0.00  0.00    -0.167 F 
ATOM     15  F   UNL     1      34.477 -24.596 -15.722  0.00  0.00    -0.167 F 
ATOM     16  F   UNL     1      33.376 -22.857 -15.002  0.00  0.00    -0.167 F 
ATOM     17  C   UNL     1      33.989 -23.387 -16.085  0.00  0.00    +0.427 C 
ENDBRANCH  12  17
BRANCH  12  18
ATOM     18  O   UNL     1      32.674 -24.898 -17.351  0.00  0.00    -0.372 OA
ATOM     19  H   UNL     1      31.828 -25.047 -16.901  0.00  0.00    +0.211 HD
ENDBRANCH  12  18
ENDBRANCH  10  12
ENDBRANCH   3   9
BRANCH   2  20
ATOM     20  S   UNL     1      35.947 -18.790 -23.425  0.00  0.00    +0.027 S 
ATOM     21  O   UNL     1      35.390 -19.354 -24.648  0.00  0.00    -0.164 OA
ATOM     22  O   UNL     1      37.392 -18.737 -23.247  0.00  0.00    -0.164 OA
BRANCH  20  23
ATOM     23  C   UNL     1      35.333 -17.128 -23.366  0.00  0.00    +0.110 C 
ATOM     24  C   UNL     1      34.856 -16.548 -24.525  0.00  0.00    +0.019 C 
ATOM     25  C   UNL     1      35.348 -16.450 -22.161  0.00  0.00    +0.019 C 
ATOM     26  C   UNL     1      34.380 -14.536 -23.274  0.00  0.00    +0.054 C 
ATOM     27  C   UNL     1      34.375 -15.239 -24.479  0.00  0.00    +0.006 C 
ATOM     28  C   UNL     1      34.866 -15.142 -22.116  0.00  0.00    +0.006 C 
BRANCH  26  31
ATOM     29  O   UNL     1      34.334 -12.376 -24.056  0.00  0.00    -0.270 OA
ATOM     30  N   UNL     1      32.926 -12.832 -22.247  0.00  0.00    -0.273 N 
ATOM     31  C   UNL     1      33.877 -13.173 -23.226  0.00  0.00    +0.249 C 
ATOM     32  C   UNL     1      32.415 -13.807 -21.286  0.00  0.00    +0.115 C 
ATOM     33  C   UNL     1      32.388 -11.485 -22.125  0.00  0.00    +0.115 C 
ENDBRANCH  26  31
ENDBRANCH  20  23
ENDBRANCH   2  20
TORSDOF 7
ENDMDL
MODEL 6
REMARK VINA RESULT:     -10.2      4.958      9.543
REMARK  Name = 16741245
REMARK  7 active torsions:
REMARK  status: ('A' for Active; 'I' for Inactive)
REMARK    1  A    between atoms: C_2  and  S_20
REMARK    2  A    between atoms: C_3  and  N_9
REMARK    3  A    between atoms: C_10  and  C_12
REMARK    4  A    between atoms: C_12  and  C_17
REMARK    5  A    between atoms: C_12  and  O_18
REMARK    6  A    between atoms: S_20  and  C_23
REMARK    7  A    between atoms: C_26  and  C_31
REMARK                            x       y       z     vdW  Elec       q    Type
REMARK                         _______ _______ _______ _____ _____    ______ ____
ROOT
ATOM      1 CL   UNL     1      32.673 -21.248 -19.900  0.00  0.00    -0.081 Cl
ATOM      2  C   UNL     1      36.075 -19.841 -21.445  0.00  0.00    +0.111 C 
ATOM      3  C   UNL     1      35.336 -21.506 -19.355  0.00  0.00    +0.061 C 
ATOM      4  C   UNL     1      34.727 -20.107 -21.209  0.00  0.00    +0.031 C 
ATOM      5  C   UNL     1      37.052 -20.414 -20.629  0.00  0.00    +0.020 C 
ATOM      6  C   UNL     1      34.355 -20.944 -20.157  0.00  0.00    +0.072 C 
ATOM      7  C   UNL     1      36.680 -21.250 -19.578  0.00  0.00    +0.017 C 
ENDROOT
BRANCH   3   9
ATOM      8  O   UNL     1      36.605 -21.836 -16.667  0.00  0.00    -0.272 OA
ATOM      9  N   UNL     1      34.991 -22.360 -18.279  0.00  0.00    -0.281 N 
ATOM     10  C   UNL     1      35.623 -22.471 -17.046  0.00  0.00    +0.259 C 
ATOM     11  H   UNL     1      34.213 -22.945 -18.422  0.00  0.00    +0.155 HD
BRANCH  10  12
ATOM     12  C   UNL     1      34.959 -23.514 -16.129  0.00  0.00    +0.245 C 
ATOM     13  C   UNL     1      33.747 -22.928 -15.403  0.00  0.00    +0.048 C 
BRANCH  12  17
ATOM     14  F   UNL     1      37.093 -24.511 -15.764  0.00  0.00    -0.167 F 
ATOM     15  F   UNL     1      35.435 -25.205 -14.535  0.00  0.00    -0.167 F 
ATOM     16  F   UNL     1      36.296 -23.233 -14.186  0.00  0.00    -0.167 F 
ATOM     17  C   UNL     1      35.956 -24.118 -15.150  0.00  0.00    +0.427 C 
ENDBRANCH  12  17
BRANCH  12  18
ATOM     18  O   UNL     1      34.501 -24.578 -16.962  0.00  0.00    -0.372 OA
ATOM     19  H   UNL     1      33.914 -24.222 -17.648  0.00  0.00    +0.211 HD
ENDBRANCH  12  18
ENDBRANCH  10  12
ENDBRANCH   3   9
BRANCH   2  20
ATOM     20  S   UNL     1      36.542 -18.794 -22.762  0.00  0.00    +0.027 S 
ATOM     21  O   UNL     1      36.055 -19.357 -24.014  0.00  0.00    -0.164 OA
ATOM     22  O   UNL     1      37.965 -18.531 -22.592  0.00  0.00    -0.164 OA
BRANCH  20  23
ATOM     23  C   UNL     1      35.683 -17.254 -22.586  0.00  0.00    +0.110 C 
ATOM     24  C   UNL     1      35.296 -16.569 -23.722  0.00  0.00    +0.019 C 
ATOM     25  C   UNL     1      35.421 -16.772 -21.317  0.00  0.00    +0.019 C 
ATOM     26  C   UNL     1      34.347 -14.851 -22.314  0.00  0.00    +0.054 C 
ATOM     27  C   UNL     1      34.622 -15.356 -23.584  0.00  0.00    +0.006 C 
ATOM     28  C   UNL     1      34.746 -15.560 -21.180  0.00  0.00    +0.006 C 
BRANCH  26  31
ATOM     29  O   UNL     1      33.887 -12.710 -23.009  0.00  0.00    -0.270 OA
ATOM     30  N   UNL     1      32.747 -13.424 -21.097  0.00  0.00    -0.273 N 
ATOM     31  C   UNL     1      33.642 -13.587 -22.170  0.00  0.00    +0.249 C 
ATOM     32  C   UNL     1      32.490 -14.488 -20.129  0.00  0.00    +0.115 C 
ATOM     33  C   UNL     1      32.018 -12.183 -20.878  0.00  0.00    +0.115 C 
ENDBRANCH  26  31
ENDBRANCH  20  23
ENDBRANCH   2  20
TORSDOF 7
ENDMDL
MODEL 7
REMARK VINA RESULT:     -10.1      6.460     11.067
REMARK  Name = 16741245
REMARK  7 active torsions:
REMARK  status: ('A' for Active; 'I' for Inactive)
REMARK    1  A    between atoms: C_2  and  S_20
REMARK    2  A    between atoms: C_3  and  N_9
REMARK    3  A    between atoms: C_10  and  C_12
REMARK    4  A    between atoms: C_12  and  C_17
REMARK    5  A    between atoms: C_12  and  O_18
REMARK    6  A    between atoms: S_20  and  C_23
REMARK    7  A    between atoms: C_26  and  C_31
REMARK                            x       y       z     vdW  Elec       q    Type
REMARK                         _______ _______ _______ _____ _____    ______ ____
ROOT
ATOM      1 CL   UNL     1      37.967 -21.758 -16.219  0.00  0.00    -0.081 Cl
ATOM      2  C   UNL     1      34.480 -22.953 -17.753  0.00  0.00    +0.111 C 
ATOM      3  C   UNL     1      35.728 -23.005 -15.277  0.00  0.00    +0.061 C 
ATOM      4  C   UNL     1      35.757 -22.412 -17.604  0.00  0.00    +0.031 C 
ATOM      5  C   UNL     1      33.831 -23.519 -16.655  0.00  0.00    +0.020 C 
ATOM      6  C   UNL     1      36.385 -22.439 -16.359  0.00  0.00    +0.072 C 
ATOM      7  C   UNL     1      34.459 -23.546 -15.411  0.00  0.00    +0.017 C 
ENDROOT
BRANCH   3   9
ATOM      8  O   UNL     1      37.784 -24.880 -14.180  0.00  0.00    -0.272 OA
ATOM      9  N   UNL     1      36.338 -23.048 -14.000  0.00  0.00    -0.281 N 
ATOM     10  C   UNL     1      37.293 -23.949 -13.544  0.00  0.00    +0.259 C 
ATOM     11  H   UNL     1      36.051 -22.358 -13.359  0.00  0.00    +0.155 HD
BRANCH  10  12
ATOM     12  C   UNL     1      37.721 -23.678 -12.090  0.00  0.00    +0.245 C 
ATOM     13  C   UNL     1      39.034 -24.385 -11.754  0.00  0.00    +0.048 C 
BRANCH  12  17
ATOM     14  F   UNL     1      35.417 -23.569 -11.486  0.00  0.00    -0.167 F 
ATOM     15  F   UNL     1      36.882 -23.538  -9.876  0.00  0.00    -0.167 F 
ATOM     16  F   UNL     1      36.508 -25.386 -10.971  0.00  0.00    -0.167 F 
ATOM     17  C   UNL     1      36.621 -24.045 -11.104  0.00  0.00    +0.427 C 
ENDBRANCH  12  17
BRANCH  12  18
ATOM     18  O   UNL     1      37.933 -22.272 -11.968  0.00  0.00    -0.372 OA
ATOM     19  H   UNL     1      37.942 -22.028 -11.029  0.00  0.00    +0.211 HD
ENDBRANCH  12  18
ENDBRANCH  10  12
ENDBRANCH   3   9
BRANCH   2  20
ATOM     20  S   UNL     1      33.693 -22.919 -19.310  0.00  0.00    +0.027 S 
ATOM     21  O   UNL     1      32.258 -22.758 -19.117  0.00  0.00    -0.164 OA
ATOM     22  O   UNL     1      34.198 -24.068 -20.050  0.00  0.00    -0.164 OA
BRANCH  20  23
ATOM     23  C   UNL     1      34.207 -21.456 -20.168  0.00  0.00    +0.110 C 
ATOM     24  C   UNL     1      33.247 -20.568 -20.615  0.00  0.00    +0.019 C 
ATOM     25  C   UNL     1      35.557 -21.237 -20.372  0.00  0.00    +0.019 C 
ATOM     26  C   UNL     1      35.008 -19.176 -21.509  0.00  0.00    +0.054 C 
ATOM     27  C   UNL     1      33.651 -19.418 -21.292  0.00  0.00    +0.006 C 
ATOM     28  C   UNL     1      35.960 -20.085 -21.048  0.00  0.00    +0.006 C 
BRANCH  26  31
ATOM     29  O   UNL     1      35.895 -17.057 -21.526  0.00  0.00    -0.270 OA
ATOM     30  N   UNL     1      35.274 -17.916 -23.609  0.00  0.00    -0.273 N 
ATOM     31  C   UNL     1      35.429 -17.976 -22.213  0.00  0.00    +0.249 C 
ATOM     32  C   UNL     1      34.717 -19.026 -24.379  0.00  0.00    +0.115 C 
ATOM     33  C   UNL     1      35.656 -16.742 -24.382  0.00  0.00    +0.115 C 
ENDBRANCH  26  31
ENDBRANCH  20  23
ENDBRANCH   2  20
TORSDOF 7
ENDMDL
MODEL 8
REMARK VINA RESULT:      -9.7      4.542      6.798
REMARK  Name = 16741245
REMARK  7 active torsions:
REMARK  status: ('A' for Active; 'I' for Inactive)
REMARK    1  A    between atoms: C_2  and  S_20
REMARK    2  A    between atoms: C_3  and  N_9
REMARK    3  A    between atoms: C_10  and  C_12
REMARK    4  A    between atoms: C_12  and  C_17
REMARK    5  A    between atoms: C_12  and  O_18
REMARK    6  A    between atoms: S_20  and  C_23
REMARK    7  A    between atoms: C_26  and  C_31
REMARK                            x       y       z     vdW  Elec       q    Type
REMARK                         _______ _______ _______ _____ _____    ______ ____
ROOT
ATOM      1 CL   UNL     1      37.406 -20.409 -20.575  0.00  0.00    -0.081 Cl
ATOM      2  C   UNL     1      33.973 -22.021 -19.326  0.00  0.00    +0.111 C 
ATOM      3  C   UNL     1      34.748 -19.892 -20.925  0.00  0.00    +0.061 C 
ATOM      4  C   UNL     1      35.328 -21.763 -19.536  0.00  0.00    +0.031 C 
ATOM      5  C   UNL     1      33.009 -21.207 -19.921  0.00  0.00    +0.020 C 
ATOM      6  C   UNL     1      35.718 -20.692 -20.341  0.00  0.00    +0.072 C 
ATOM      7  C   UNL     1      33.398 -20.137 -20.724  0.00  0.00    +0.017 C 
ENDROOT
BRANCH   3   9
ATOM      8  O   UNL     1      34.256 -19.416 -23.837  0.00  0.00    -0.272 OA
ATOM      9  N   UNL     1      35.111 -18.798 -21.747  0.00  0.00    -0.281 N 
ATOM     10  C   UNL     1      34.854 -18.631 -23.103  0.00  0.00    +0.259 C 
ATOM     11  H   UNL     1      35.604 -18.069 -21.306  0.00  0.00    +0.155 HD
BRANCH  10  12
ATOM     12  C   UNL     1      35.407 -17.305 -23.655  0.00  0.00    +0.245 C 
ATOM     13  C   UNL     1      35.080 -16.135 -22.727  0.00  0.00    +0.048 C 
BRANCH  12  17
ATOM     14  F   UNL     1      34.955 -18.158 -25.835  0.00  0.00    -0.167 F 
ATOM     15  F   UNL     1      35.701 -16.118 -25.687  0.00  0.00    -0.167 F 
ATOM     16  F   UNL     1      33.656 -16.575 -25.083  0.00  0.00    -0.167 F 
ATOM     17  C   UNL     1      34.925 -17.042 -25.075  0.00  0.00    +0.427 C 
ENDBRANCH  12  17
BRANCH  12  18
ATOM     18  O   UNL     1      36.828 -17.434 -23.718  0.00  0.00    -0.372 OA
ATOM     19  H   UNL     1      37.165 -16.918 -24.468  0.00  0.00    +0.211 HD
ENDBRANCH  12  18
ENDBRANCH  10  12
ENDBRANCH   3   9
BRANCH   2  20
ATOM     20  S   UNL     1      33.485 -23.361 -18.320  0.00  0.00    +0.027 S 
ATOM     21  O   UNL     1      33.753 -24.608 -19.024  0.00  0.00    -0.164 OA
ATOM     22  O   UNL     1      32.133 -23.063 -17.868  0.00  0.00    -0.164 OA
BRANCH  20  23
ATOM     23  C   UNL     1      34.535 -23.405 -16.893  0.00  0.00    +0.110 C 
ATOM     24  C   UNL     1      35.734 -22.719 -16.922  0.00  0.00    +0.019 C 
ATOM     25  C   UNL     1      34.132 -24.125 -15.784  0.00  0.00    +0.019 C 
ATOM     26  C   UNL     1      36.175 -23.475 -14.670  0.00  0.00    +0.054 C 
ATOM     27  C   UNL     1      36.562 -22.755 -15.800  0.00  0.00    +0.006 C 
ATOM     28  C   UNL     1      34.960 -24.160 -14.662  0.00  0.00    +0.006 C 
BRANCH  26  31
ATOM     29  O   UNL     1      36.831 -22.659 -12.625  0.00  0.00    -0.270 OA
ATOM     30  N   UNL     1      38.051 -24.483 -13.430  0.00  0.00    -0.273 N 
ATOM     31  C   UNL     1      37.037 -23.511 -13.500  0.00  0.00    +0.249 C 
ATOM     32  C   UNL     1      38.258 -25.470 -14.489  0.00  0.00    +0.115 C 
ATOM     33  C   UNL     1      38.964 -24.572 -12.300  0.00  0.00    +0.115 C 
ENDBRANCH  26  31
ENDBRANCH  20  23
ENDBRANCH   2  20
TORSDOF 7
ENDMDL
MODEL 9
REMARK VINA RESULT:      -9.6      6.155      9.921
REMARK  Name = 16741245
REMARK  7 active torsions:
REMARK  status: ('A' for Active; 'I' for Inactive)
REMARK    1  A    between atoms: C_2  and  S_20
REMARK    2  A    between atoms: C_3  and  N_9
REMARK    3  A    between atoms: C_10  and  C_12
REMARK    4  A    between atoms: C_12  and  C_17
REMARK    5  A    between atoms: C_12  and  O_18
REMARK    6  A    between atoms: S_20  and  C_23
REMARK    7  A    between atoms: C_26  and  C_31
REMARK                            x       y       z     vdW  Elec       q    Type
REMARK                         _______ _______ _______ _____ _____    ______ ____
ROOT
ATOM      1 CL   UNL     1      34.051 -24.237 -15.765  0.00  0.00    -0.081 Cl
ATOM      2  C   UNL     1      35.120 -21.927 -18.841  0.00  0.00    +0.111 C 
ATOM      3  C   UNL     1      32.758 -22.906 -17.767  0.00  0.00    +0.061 C 
ATOM      4  C   UNL     1      35.153 -22.741 -17.709  0.00  0.00    +0.031 C 
ATOM      5  C   UNL     1      33.898 -21.606 -19.433  0.00  0.00    +0.020 C 
ATOM      6  C   UNL     1      33.965 -23.233 -17.169  0.00  0.00    +0.072 C 
ATOM      7  C   UNL     1      32.711 -22.099 -18.894  0.00  0.00    +0.017 C 
ENDROOT
BRANCH   3   9
ATOM      8  O   UNL     1      31.365 -22.259 -15.201  0.00  0.00    -0.272 OA
ATOM      9  N   UNL     1      31.535 -23.390 -17.244  0.00  0.00    -0.281 N 
ATOM     10  C   UNL     1      30.934 -23.051 -16.037  0.00  0.00    +0.259 C 
ATOM     11  H   UNL     1      31.054 -24.044 -17.800  0.00  0.00    +0.155 HD
BRANCH  10  12
ATOM     12  C   UNL     1      29.601 -23.787 -15.809  0.00  0.00    +0.245 C 
ATOM     13  C   UNL     1      28.526 -22.841 -15.275  0.00  0.00    +0.048 C 
BRANCH  12  17
ATOM     14  F   UNL     1      30.460 -24.699 -13.781  0.00  0.00    -0.167 F 
ATOM     15  F   UNL     1      30.458 -25.982 -15.540  0.00  0.00    -0.167 F 
ATOM     16  F   UNL     1      28.581 -25.512 -14.535  0.00  0.00    -0.167 F 
ATOM     17  C   UNL     1      29.776 -25.000 -14.906  0.00  0.00    +0.427 C 
ENDBRANCH  12  17
BRANCH  12  18
ATOM     18  O   UNL     1      29.166 -24.276 -17.078  0.00  0.00    -0.372 OA
ATOM     19  H   UNL     1      29.056 -25.239 -17.032  0.00  0.00    +0.211 HD
ENDBRANCH  12  18
ENDBRANCH  10  12
ENDBRANCH   3   9
BRANCH   2  20
ATOM     20  S   UNL     1      36.606 -21.310 -19.517  0.00  0.00    +0.027 S 
ATOM     21  O   UNL     1      37.284 -22.380 -20.238  0.00  0.00    -0.164 OA
ATOM     22  O   UNL     1      37.294 -20.620 -18.434  0.00  0.00    -0.164 OA
BRANCH  20  23
ATOM     23  C   UNL     1      36.203 -20.107 -20.755  0.00  0.00    +0.110 C 
ATOM     24  C   UNL     1      37.167 -19.196 -21.143  0.00  0.00    +0.019 C 
ATOM     25  C   UNL     1      34.934 -20.106 -21.302  0.00  0.00    +0.019 C 
ATOM     26  C   UNL     1      35.575 -18.229 -22.682  0.00  0.00    +0.054 C 
ATOM     27  C   UNL     1      36.850 -18.248 -22.116  0.00  0.00    +0.006 C 
ATOM     28  C   UNL     1      34.618 -19.158 -22.276  0.00  0.00    +0.006 C 
BRANCH  26  31
ATOM     29  O   UNL     1      35.265 -17.620 -24.875  0.00  0.00    -0.270 OA
ATOM     30  N   UNL     1      34.941 -15.928 -23.296  0.00  0.00    -0.273 N 
ATOM     31  C   UNL     1      35.245 -17.241 -23.697  0.00  0.00    +0.249 C 
ATOM     32  C   UNL     1      34.931 -15.526 -21.891  0.00  0.00    +0.115 C 
ATOM     33  C   UNL     1      34.617 -14.880 -24.254  0.00  0.00    +0.115 C 
ENDBRANCH  26  31
ENDBRANCH  20  23
ENDBRANCH   2  20
TORSDOF 7
ENDMDL
