MODEL 1
REMARK VINA RESULT:     -11.7      0.000      0.000
REMARK  Name = 9911830
REMARK  5 active torsions:
REMARK  status: ('A' for Active; 'I' for Inactive)
REMARK    1  A    between atoms: C_2  and  O_20
REMARK    2  A    between atoms: C_3  and  N_10
REMARK    3  A    between atoms: O_20  and  C_24
REMARK    4  A    between atoms: C_26  and  O_31
REMARK    5  A    between atoms: C_28  and  O_33
REMARK                            x       y       z     vdW  Elec       q    Type
REMARK                         _______ _______ _______ _____ _____    ______ ____
ROOT
ATOM      1 CL   UNL     1      37.837 -18.937 -21.418  0.00  0.00    -0.081 Cl
ATOM      2  C   UNL     1      35.319 -21.605 -19.886  0.00  0.00    +0.146 C 
ATOM      3  C   UNL     1      35.129 -19.269 -21.357  0.00  0.00    +0.062 C 
ATOM      4  C   UNL     1      36.476 -20.935 -20.241  0.00  0.00    +0.050 C 
ATOM      5  C   UNL     1      34.069 -21.135 -20.249  0.00  0.00    +0.039 C 
ATOM      6  C   UNL     1      36.381 -19.758 -20.983  0.00  0.00    +0.074 C 
ATOM      7  C   UNL     1      33.974 -19.959 -20.991  0.00  0.00    +0.019 C 
ENDROOT
BRANCH   3  10
ATOM      8  O   UNL     1      33.803 -15.825 -27.125  0.00  0.00    -0.357 OA
ATOM      9  O   UNL     1      34.397 -18.879 -24.226  0.00  0.00    -0.252 OA
ATOM     10  N   UNL     1      34.999 -18.094 -22.103  0.00  0.00    -0.267 N 
ATOM     11  N   UNL     1      34.632 -16.590 -23.814  0.00  0.00    -0.251 N 
ATOM     12  N   UNL     1      34.016 -16.754 -26.115  0.00  0.00    -0.062 NA
ATOM     13  C   UNL     1      34.647 -17.950 -23.466  0.00  0.00    +0.309 C 
ATOM     14  C   UNL     1      34.332 -16.015 -25.072  0.00  0.00    +0.177 C 
ATOM     15  C   UNL     1      34.346 -14.651 -25.310  0.00  0.00    +0.073 C 
ATOM     16  C   UNL     1      34.002 -14.575 -26.633  0.00  0.00    +0.156 C 
ATOM     17  C   UNL     1      33.817 -13.463 -27.574  0.00  0.00    +0.075 C 
ATOM     18  H   UNL     1      35.172 -17.257 -21.616  0.00  0.00    +0.156 HD
ATOM     19  H   UNL     1      34.856 -15.957 -23.093  0.00  0.00    +0.158 HD
ENDBRANCH   3  10
BRANCH   2  20
ATOM     20  O   UNL     1      35.412 -22.772 -19.148  0.00  0.00    -0.453 OA
BRANCH  20  24
ATOM     21  N   UNL     1      32.811 -23.180 -15.944  0.00  0.00    -0.244 NA
ATOM     22  C   UNL     1      35.069 -23.120 -16.783  0.00  0.00    +0.055 C 
ATOM     23  C   UNL     1      34.139 -23.252 -15.732  0.00  0.00    +0.087 C 
ATOM     24  C   UNL     1      34.576 -22.909 -18.078  0.00  0.00    +0.148 C 
ATOM     25  C   UNL     1      36.449 -23.200 -16.525  0.00  0.00    +0.045 C 
ATOM     26  C   UNL     1      36.911 -23.410 -15.229  0.00  0.00    +0.173 C 
ATOM     27  C   UNL     1      34.629 -23.461 -14.445  0.00  0.00    +0.059 C 
ATOM     28  C   UNL     1      36.000 -23.541 -14.189  0.00  0.00    +0.174 C 
ATOM     29  C   UNL     1      33.208 -22.835 -18.300  0.00  0.00    +0.058 C 
ATOM     30  C   UNL     1      32.376 -22.976 -17.208  0.00  0.00    +0.102 C 
BRANCH  26  31
ATOM     31  O   UNL     1      38.251 -23.485 -14.996  0.00  0.00    -0.468 OA
ATOM     32  C   UNL     1      38.837 -24.785 -14.985  0.00  0.00    +0.253 C 
ENDBRANCH  26  31
BRANCH  28  33
ATOM     33  O   UNL     1      36.431 -23.746 -12.912  0.00  0.00    -0.468 OA
ATOM     34  C   UNL     1      35.650 -24.617 -12.096  0.00  0.00    +0.253 C 
ENDBRANCH  28  33
ENDBRANCH  20  24
ENDBRANCH   2  20
TORSDOF 5
ENDMDL
MODEL 2
REMARK VINA RESULT:     -11.6      1.773      2.864
REMARK  Name = 9911830
REMARK  5 active torsions:
REMARK  status: ('A' for Active; 'I' for Inactive)
REMARK    1  A    between atoms: C_2  and  O_20
REMARK    2  A    between atoms: C_3  and  N_10
REMARK    3  A    between atoms: O_20  and  C_24
REMARK    4  A    between atoms: C_26  and  O_31
REMARK    5  A    between atoms: C_28  and  O_33
REMARK                            x       y       z     vdW  Elec       q    Type
REMARK                         _______ _______ _______ _____ _____    ______ ____
ROOT
ATOM      1 CL   UNL     1      37.884 -18.696 -21.893  0.00  0.00    -0.081 Cl
ATOM      2  C   UNL     1      35.524 -21.394 -20.173  0.00  0.00    +0.146 C 
ATOM      3  C   UNL     1      35.195 -19.023 -21.561  0.00  0.00    +0.062 C 
ATOM      4  C   UNL     1      36.641 -20.718 -20.629  0.00  0.00    +0.050 C 
ATOM      5  C   UNL     1      34.245 -20.912 -20.394  0.00  0.00    +0.039 C 
ATOM      6  C   UNL     1      36.476 -19.524 -21.330  0.00  0.00    +0.074 C 
ATOM      7  C   UNL     1      34.080 -19.718 -21.094  0.00  0.00    +0.019 C 
ENDROOT
BRANCH   3  10
ATOM      8  O   UNL     1      33.820 -15.439 -27.232  0.00  0.00    -0.357 OA
ATOM      9  O   UNL     1      34.554 -18.564 -24.442  0.00  0.00    -0.252 OA
ATOM     10  N   UNL     1      34.994 -17.829 -22.261  0.00  0.00    -0.267 N 
ATOM     11  N   UNL     1      34.571 -16.284 -23.921  0.00  0.00    -0.251 N 
ATOM     12  N   UNL     1      34.070 -16.393 -26.254  0.00  0.00    -0.062 NA
ATOM     13  C   UNL     1      34.690 -17.653 -23.632  0.00  0.00    +0.309 C 
ATOM     14  C   UNL     1      34.276 -15.679 -25.166  0.00  0.00    +0.177 C 
ATOM     15  C   UNL     1      34.181 -14.309 -25.345  0.00  0.00    +0.073 C 
ATOM     16  C   UNL     1      33.888 -14.201 -26.678  0.00  0.00    +0.156 C 
ATOM     17  C   UNL     1      33.647 -13.066 -27.578  0.00  0.00    +0.075 C 
ATOM     18  H   UNL     1      35.073 -17.004 -21.731  0.00  0.00    +0.156 HD
ATOM     19  H   UNL     1      34.708 -15.668 -23.164  0.00  0.00    +0.158 HD
ENDBRANCH   3  10
BRANCH   2  20
ATOM     20  O   UNL     1      35.686 -22.578 -19.477  0.00  0.00    -0.453 OA
BRANCH  20  24
ATOM     21  N   UNL     1      36.638 -22.295 -15.450  0.00  0.00    -0.244 NA
ATOM     22  C   UNL     1      35.025 -22.806 -17.165  0.00  0.00    +0.055 C 
ATOM     23  C   UNL     1      35.403 -22.692 -15.812  0.00  0.00    +0.087 C 
ATOM     24  C   UNL     1      35.976 -22.492 -18.145  0.00  0.00    +0.148 C 
ATOM     25  C   UNL     1      33.726 -23.224 -17.507  0.00  0.00    +0.045 C 
ATOM     26  C   UNL     1      32.801 -23.529 -16.513  0.00  0.00    +0.173 C 
ATOM     27  C   UNL     1      34.458 -23.004 -14.838  0.00  0.00    +0.059 C 
ATOM     28  C   UNL     1      33.168 -23.419 -15.178  0.00  0.00    +0.174 C 
ATOM     29  C   UNL     1      37.249 -22.083 -17.776  0.00  0.00    +0.058 C 
ATOM     30  C   UNL     1      37.527 -22.001 -16.427  0.00  0.00    +0.102 C 
BRANCH  26  31
ATOM     31  O   UNL     1      31.548 -23.933 -16.861  0.00  0.00    -0.468 OA
ATOM     32  C   UNL     1      30.516 -22.949 -16.827  0.00  0.00    +0.253 C 
ENDBRANCH  26  31
BRANCH  28  33
ATOM     33  O   UNL     1      32.278 -23.714 -14.188  0.00  0.00    -0.468 OA
ATOM     34  C   UNL     1      32.222 -25.069 -13.750  0.00  0.00    +0.253 C 
ENDBRANCH  28  33
ENDBRANCH  20  24
ENDBRANCH   2  20
TORSDOF 5
ENDMDL
MODEL 3
REMARK VINA RESULT:     -11.6      2.374     11.389
REMARK  Name = 9911830
REMARK  5 active torsions:
REMARK  status: ('A' for Active; 'I' for Inactive)
REMARK    1  A    between atoms: C_2  and  O_20
REMARK    2  A    between atoms: C_3  and  N_10
REMARK    3  A    between atoms: O_20  and  C_24
REMARK    4  A    between atoms: C_26  and  O_31
REMARK    5  A    between atoms: C_28  and  O_33
REMARK                            x       y       z     vdW  Elec       q    Type
REMARK                         _______ _______ _______ _____ _____    ______ ____
ROOT
ATOM      1 CL   UNL     1      33.459 -21.339 -19.971  0.00  0.00    -0.081 Cl
ATOM      2  C   UNL     1      36.210 -18.937 -21.545  0.00  0.00    +0.146 C 
ATOM      3  C   UNL     1      36.152 -20.992 -19.692  0.00  0.00    +0.062 C 
ATOM      4  C   UNL     1      35.004 -19.550 -21.253  0.00  0.00    +0.050 C 
ATOM      5  C   UNL     1      37.388 -19.328 -20.931  0.00  0.00    +0.039 C 
ATOM      6  C   UNL     1      34.974 -20.586 -20.320  0.00  0.00    +0.074 C 
ATOM      7  C   UNL     1      37.358 -20.364 -19.998  0.00  0.00    +0.019 C 
ENDROOT
BRANCH   3  10
ATOM      8  O   UNL     1      38.038 -23.826 -13.750  0.00  0.00    -0.357 OA
ATOM      9  O   UNL     1      37.524 -21.188 -17.046  0.00  0.00    -0.252 OA
ATOM     10  N   UNL     1      36.157 -22.029 -18.753  0.00  0.00    -0.267 N 
ATOM     11  N   UNL     1      36.558 -23.311 -16.878  0.00  0.00    -0.251 N 
ATOM     12  N   UNL     1      37.814 -23.030 -14.866  0.00  0.00    -0.062 NA
ATOM     13  C   UNL     1      36.822 -22.083 -17.505  0.00  0.00    +0.309 C 
ATOM     14  C   UNL     1      37.027 -23.767 -15.623  0.00  0.00    +0.177 C 
ATOM     15  C   UNL     1      36.705 -25.006 -15.093  0.00  0.00    +0.073 C 
ATOM     16  C   UNL     1      37.372 -25.001 -13.896  0.00  0.00    +0.156 C 
ATOM     17  C   UNL     1      37.499 -25.968 -12.799  0.00  0.00    +0.075 C 
ATOM     18  H   UNL     1      35.628 -22.823 -18.991  0.00  0.00    +0.156 HD
ATOM     19  H   UNL     1      35.974 -23.932 -17.372  0.00  0.00    +0.158 HD
ENDBRANCH   3  10
BRANCH   2  20
ATOM     20  O   UNL     1      36.240 -17.908 -22.469  0.00  0.00    -0.453 OA
BRANCH  20  24
ATOM     21  N   UNL     1      33.967 -18.424 -25.899  0.00  0.00    -0.244 NA
ATOM     22  C   UNL     1      34.913 -16.950 -24.244  0.00  0.00    +0.055 C 
ATOM     23  C   UNL     1      34.151 -17.184 -25.407  0.00  0.00    +0.087 C 
ATOM     24  C   UNL     1      35.488 -18.053 -23.599  0.00  0.00    +0.148 C 
ATOM     25  C   UNL     1      35.084 -15.642 -23.758  0.00  0.00    +0.045 C 
ATOM     26  C   UNL     1      34.502 -14.564 -24.419  0.00  0.00    +0.173 C 
ATOM     27  C   UNL     1      33.580 -16.088 -26.048  0.00  0.00    +0.059 C 
ATOM     28  C   UNL     1      33.749 -14.788 -25.565  0.00  0.00    +0.174 C 
ATOM     29  C   UNL     1      35.301 -19.332 -24.103  0.00  0.00    +0.058 C 
ATOM     30  C   UNL     1      34.539 -19.462 -25.246  0.00  0.00    +0.102 C 
BRANCH  26  31
ATOM     31  O   UNL     1      34.677 -13.303 -23.936  0.00  0.00    -0.468 OA
ATOM     32  C   UNL     1      33.693 -12.813 -23.027  0.00  0.00    +0.253 C 
ENDBRANCH  26  31
BRANCH  28  33
ATOM     33  O   UNL     1      33.171 -13.747 -26.229  0.00  0.00    -0.468 OA
ATOM     34  C   UNL     1      33.751 -13.371 -27.476  0.00  0.00    +0.253 C 
ENDBRANCH  28  33
ENDBRANCH  20  24
ENDBRANCH   2  20
TORSDOF 5
ENDMDL
MODEL 4
REMARK VINA RESULT:     -11.3      1.526      1.693
REMARK  Name = 9911830
REMARK  5 active torsions:
REMARK  status: ('A' for Active; 'I' for Inactive)
REMARK    1  A    between atoms: C_2  and  O_20
REMARK    2  A    between atoms: C_3  and  N_10
REMARK    3  A    between atoms: O_20  and  C_24
REMARK    4  A    between atoms: C_26  and  O_31
REMARK    5  A    between atoms: C_28  and  O_33
REMARK                            x       y       z     vdW  Elec       q    Type
REMARK                         _______ _______ _______ _____ _____    ______ ____
ROOT
ATOM      1 CL   UNL     1      37.878 -18.976 -21.508  0.00  0.00    -0.081 Cl
ATOM      2  C   UNL     1      35.511 -21.638 -19.742  0.00  0.00    +0.146 C 
ATOM      3  C   UNL     1      35.202 -19.514 -21.490  0.00  0.00    +0.062 C 
ATOM      4  C   UNL     1      36.626 -20.923 -20.140  0.00  0.00    +0.050 C 
ATOM      5  C   UNL     1      34.244 -21.315 -20.197  0.00  0.00    +0.039 C 
ATOM      6  C   UNL     1      36.472 -19.854 -21.022  0.00  0.00    +0.074 C 
ATOM      7  C   UNL     1      34.089 -20.246 -21.079  0.00  0.00    +0.019 C 
ENDROOT
BRANCH   3  10
ATOM      8  O   UNL     1      34.612 -12.857 -22.980  0.00  0.00    -0.357 OA
ATOM      9  O   UNL     1      35.111 -16.574 -20.975  0.00  0.00    -0.252 OA
ATOM     10  N   UNL     1      35.013 -18.449 -22.376  0.00  0.00    -0.267 N 
ATOM     11  N   UNL     1      34.764 -16.339 -23.275  0.00  0.00    -0.251 N 
ATOM     12  N   UNL     1      34.766 -14.114 -22.409  0.00  0.00    -0.062 NA
ATOM     13  C   UNL     1      34.977 -17.063 -22.092  0.00  0.00    +0.309 C 
ATOM     14  C   UNL     1      34.663 -14.937 -23.433  0.00  0.00    +0.177 C 
ATOM     15  C   UNL     1      34.449 -14.319 -24.654  0.00  0.00    +0.073 C 
ATOM     16  C   UNL     1      34.424 -12.992 -24.318  0.00  0.00    +0.156 C 
ATOM     17  C   UNL     1      34.242 -11.752 -25.084  0.00  0.00    +0.075 C 
ATOM     18  H   UNL     1      34.890 -18.695 -23.321  0.00  0.00    +0.156 HD
ATOM     19  H   UNL     1      34.674 -16.873 -24.099  0.00  0.00    +0.158 HD
ENDBRANCH   3  10
BRANCH   2  20
ATOM     20  O   UNL     1      35.663 -22.698 -18.867  0.00  0.00    -0.453 OA
BRANCH  20  24
ATOM     21  N   UNL     1      32.746 -23.148 -15.954  0.00  0.00    -0.244 NA
ATOM     22  C   UNL     1      35.078 -23.077 -16.555  0.00  0.00    +0.055 C 
ATOM     23  C   UNL     1      34.045 -23.223 -15.607  0.00  0.00    +0.087 C 
ATOM     24  C   UNL     1      34.720 -22.849 -17.891  0.00  0.00    +0.148 C 
ATOM     25  C   UNL     1      36.424 -23.162 -16.157  0.00  0.00    +0.045 C 
ATOM     26  C   UNL     1      36.751 -23.388 -14.824  0.00  0.00    +0.173 C 
ATOM     27  C   UNL     1      34.400 -23.449 -14.279  0.00  0.00    +0.059 C 
ATOM     28  C   UNL     1      35.738 -23.533 -13.884  0.00  0.00    +0.174 C 
ATOM     29  C   UNL     1      33.383 -22.772 -18.251  0.00  0.00    +0.058 C 
ATOM     30  C   UNL     1      32.443 -22.927 -17.253  0.00  0.00    +0.102 C 
BRANCH  26  31
ATOM     31  O   UNL     1      38.060 -23.467 -14.455  0.00  0.00    -0.468 OA
ATOM     32  C   UNL     1      38.719 -24.714 -14.662  0.00  0.00    +0.253 C 
ENDBRANCH  26  31
BRANCH  28  33
ATOM     33  O   UNL     1      36.035 -23.755 -12.573  0.00  0.00    -0.468 OA
ATOM     34  C   UNL     1      35.699 -25.034 -12.039  0.00  0.00    +0.253 C 
ENDBRANCH  28  33
ENDBRANCH  20  24
ENDBRANCH   2  20
TORSDOF 5
ENDMDL
MODEL 5
REMARK VINA RESULT:     -10.9      2.164      2.954
REMARK  Name = 9911830
REMARK  5 active torsions:
REMARK  status: ('A' for Active; 'I' for Inactive)
REMARK    1  A    between atoms: C_2  and  O_20
REMARK    2  A    between atoms: C_3  and  N_10
REMARK    3  A    between atoms: O_20  and  C_24
REMARK    4  A    between atoms: C_26  and  O_31
REMARK    5  A    between atoms: C_28  and  O_33
REMARK                            x       y       z     vdW  Elec       q    Type
REMARK                         _______ _______ _______ _____ _____    ______ ____
ROOT
ATOM      1 CL   UNL     1      37.684 -19.303 -21.373  0.00  0.00    -0.081 Cl
ATOM      2  C   UNL     1      35.125 -21.737 -19.546  0.00  0.00    +0.146 C 
ATOM      3  C   UNL     1      34.974 -19.629 -21.333  0.00  0.00    +0.062 C 
ATOM      4  C   UNL     1      36.291 -21.120 -19.962  0.00  0.00    +0.050 C 
ATOM      5  C   UNL     1      33.884 -21.324 -20.001  0.00  0.00    +0.039 C 
ATOM      6  C   UNL     1      36.216 -20.059 -20.864  0.00  0.00    +0.074 C 
ATOM      7  C   UNL     1      33.809 -20.262 -20.902  0.00  0.00    +0.019 C 
ENDROOT
BRANCH   3  10
ATOM      8  O   UNL     1      34.680 -12.974 -22.921  0.00  0.00    -0.357 OA
ATOM      9  O   UNL     1      34.956 -16.681 -20.854  0.00  0.00    -0.252 OA
ATOM     10  N   UNL     1      34.864 -18.569 -22.238  0.00  0.00    -0.267 N 
ATOM     11  N   UNL     1      34.730 -16.463 -23.171  0.00  0.00    -0.251 N 
ATOM     12  N   UNL     1      34.764 -14.228 -22.330  0.00  0.00    -0.062 NA
ATOM     13  C   UNL     1      34.861 -17.179 -21.971  0.00  0.00    +0.309 C 
ATOM     14  C   UNL     1      34.684 -15.060 -23.348  0.00  0.00    +0.177 C 
ATOM     15  C   UNL     1      34.551 -14.451 -24.585  0.00  0.00    +0.073 C 
ATOM     16  C   UNL     1      34.554 -13.120 -24.265  0.00  0.00    +0.156 C 
ATOM     17  C   UNL     1      34.451 -11.884 -25.052  0.00  0.00    +0.075 C 
ATOM     18  H   UNL     1      34.780 -18.822 -23.185  0.00  0.00    +0.156 HD
ATOM     19  H   UNL     1      34.663 -17.004 -23.992  0.00  0.00    +0.158 HD
ENDBRANCH   3  10
BRANCH   2  20
ATOM     20  O   UNL     1      35.198 -22.789 -18.651  0.00  0.00    -0.453 OA
BRANCH  20  24
ATOM     21  N   UNL     1      37.705 -22.286 -15.386  0.00  0.00    -0.244 NA
ATOM     22  C   UNL     1      35.646 -23.137 -16.303  0.00  0.00    +0.055 C 
ATOM     23  C   UNL     1      36.537 -22.937 -15.229  0.00  0.00    +0.087 C 
ATOM     24  C   UNL     1      36.006 -22.635 -17.562  0.00  0.00    +0.148 C 
ATOM     25  C   UNL     1      34.435 -23.822 -16.103  0.00  0.00    +0.045 C 
ATOM     26  C   UNL     1      34.102 -24.310 -14.843  0.00  0.00    +0.173 C 
ATOM     27  C   UNL     1      36.179 -23.436 -13.979  0.00  0.00    +0.059 C 
ATOM     28  C   UNL     1      34.975 -24.116 -13.781  0.00  0.00    +0.174 C 
ATOM     29  C   UNL     1      37.209 -21.964 -17.727  0.00  0.00    +0.058 C 
ATOM     30  C   UNL     1      38.016 -21.817 -16.617  0.00  0.00    +0.102 C 
BRANCH  26  31
ATOM     31  O   UNL     1      32.924 -24.971 -14.666  0.00  0.00    -0.468 OA
ATOM     32  C   UNL     1      31.746 -24.177 -14.539  0.00  0.00    +0.253 C 
ENDBRANCH  26  31
BRANCH  28  33
ATOM     33  O   UNL     1      34.670 -24.586 -12.538  0.00  0.00    -0.468 OA
ATOM     34  C   UNL     1      35.743 -24.702 -11.607  0.00  0.00    +0.253 C 
ENDBRANCH  28  33
ENDBRANCH  20  24
ENDBRANCH   2  20
TORSDOF 5
ENDMDL
MODEL 6
REMARK VINA RESULT:     -10.9      3.373     10.674
REMARK  Name = 9911830
REMARK  5 active torsions:
REMARK  status: ('A' for Active; 'I' for Inactive)
REMARK    1  A    between atoms: C_2  and  O_20
REMARK    2  A    between atoms: C_3  and  N_10
REMARK    3  A    between atoms: O_20  and  C_24
REMARK    4  A    between atoms: C_26  and  O_31
REMARK    5  A    between atoms: C_28  and  O_33
REMARK                            x       y       z     vdW  Elec       q    Type
REMARK                         _______ _______ _______ _____ _____    ______ ____
ROOT
ATOM      1 CL   UNL     1      37.067 -22.042 -18.370  0.00  0.00    -0.081 Cl
ATOM      2  C   UNL     1      35.729 -19.736 -21.320  0.00  0.00    +0.146 C 
ATOM      3  C   UNL     1      34.642 -21.527 -19.512  0.00  0.00    +0.062 C 
ATOM      4  C   UNL     1      36.560 -20.366 -20.411  0.00  0.00    +0.050 C 
ATOM      5  C   UNL     1      34.367 -19.981 -21.347  0.00  0.00    +0.039 C 
ATOM      6  C   UNL     1      36.013 -21.267 -19.499  0.00  0.00    +0.074 C 
ATOM      7  C   UNL     1      33.819 -20.883 -20.436  0.00  0.00    +0.019 C 
ENDROOT
BRANCH   3  10
ATOM      8  O   UNL     1      29.413 -23.882 -15.769  0.00  0.00    -0.357 OA
ATOM      9  O   UNL     1      31.869 -21.623 -18.406  0.00  0.00    -0.252 OA
ATOM     10  N   UNL     1      34.061 -22.425 -18.611  0.00  0.00    -0.267 N 
ATOM     11  N   UNL     1      32.573 -23.515 -17.226  0.00  0.00    -0.251 N 
ATOM     12  N   UNL     1      30.286 -23.205 -16.612  0.00  0.00    -0.062 NA
ATOM     13  C   UNL     1      32.738 -22.437 -18.110  0.00  0.00    +0.309 C 
ATOM     14  C   UNL     1      31.409 -23.885 -16.510  0.00  0.00    +0.177 C 
ATOM     15  C   UNL     1      31.353 -24.975 -15.657  0.00  0.00    +0.073 C 
ATOM     16  C   UNL     1      30.060 -24.935 -15.206  0.00  0.00    +0.156 C 
ATOM     17  C   UNL     1      29.280 -25.765 -14.281  0.00  0.00    +0.075 C 
ATOM     18  H   UNL     1      34.649 -23.142 -18.283  0.00  0.00    +0.156 HD
ATOM     19  H   UNL     1      33.365 -24.084 -17.086  0.00  0.00    +0.158 HD
ENDBRANCH   3  10
BRANCH   2  20
ATOM     20  O   UNL     1      36.271 -18.842 -22.226  0.00  0.00    -0.453 OA
BRANCH  20  24
ATOM     21  N   UNL     1      34.300 -18.411 -25.849  0.00  0.00    -0.244 NA
ATOM     22  C   UNL     1      35.169 -17.416 -23.834  0.00  0.00    +0.055 C 
ATOM     23  C   UNL     1      34.505 -17.329 -25.074  0.00  0.00    +0.087 C 
ATOM     24  C   UNL     1      35.620 -18.676 -23.414  0.00  0.00    +0.148 C 
ATOM     25  C   UNL     1      35.365 -16.266 -23.050  0.00  0.00    +0.045 C 
ATOM     26  C   UNL     1      34.907 -15.028 -23.491  0.00  0.00    +0.173 C 
ATOM     27  C   UNL     1      34.056 -16.078 -25.491  0.00  0.00    +0.059 C 
ATOM     28  C   UNL     1      34.252 -14.934 -24.712  0.00  0.00    +0.174 C 
ATOM     29  C   UNL     1      35.410 -19.793 -24.210  0.00  0.00    +0.058 C 
ATOM     30  C   UNL     1      34.751 -19.608 -25.408  0.00  0.00    +0.102 C 
BRANCH  26  31
ATOM     31  O   UNL     1      35.106 -13.922 -22.720  0.00  0.00    -0.468 OA
ATOM     32  C   UNL     1      34.625 -13.971 -21.379  0.00  0.00    +0.253 C 
ENDBRANCH  26  31
BRANCH  28  33
ATOM     33  O   UNL     1      33.796 -13.732 -25.164  0.00  0.00    -0.468 OA
ATOM     34  C   UNL     1      33.510 -13.628 -26.557  0.00  0.00    +0.253 C 
ENDBRANCH  28  33
ENDBRANCH  20  24
ENDBRANCH   2  20
TORSDOF 5
ENDMDL
MODEL 7
REMARK VINA RESULT:     -10.4      1.773      2.203
REMARK  Name = 9911830
REMARK  5 active torsions:
REMARK  status: ('A' for Active; 'I' for Inactive)
REMARK    1  A    between atoms: C_2  and  O_20
REMARK    2  A    between atoms: C_3  and  N_10
REMARK    3  A    between atoms: O_20  and  C_24
REMARK    4  A    between atoms: C_26  and  O_31
REMARK    5  A    between atoms: C_28  and  O_33
REMARK                            x       y       z     vdW  Elec       q    Type
REMARK                         _______ _______ _______ _____ _____    ______ ____
ROOT
ATOM      1 CL   UNL     1      32.902 -21.253 -20.700  0.00  0.00    -0.081 Cl
ATOM      2  C   UNL     1      36.194 -21.905 -18.568  0.00  0.00    +0.146 C 
ATOM      3  C   UNL     1      35.531 -20.542 -20.883  0.00  0.00    +0.062 C 
ATOM      4  C   UNL     1      34.882 -21.915 -19.005  0.00  0.00    +0.050 C 
ATOM      5  C   UNL     1      37.183 -21.228 -19.261  0.00  0.00    +0.039 C 
ATOM      6  C   UNL     1      34.547 -21.228 -20.171  0.00  0.00    +0.074 C 
ATOM      7  C   UNL     1      36.848 -20.541 -20.427  0.00  0.00    +0.019 C 
ENDROOT
BRANCH   3  10
ATOM      8  O   UNL     1      34.644 -14.789 -24.491  0.00  0.00    -0.357 OA
ATOM      9  O   UNL     1      35.429 -17.602 -21.399  0.00  0.00    -0.252 OA
ATOM     10  N   UNL     1      35.228 -19.842 -22.056  0.00  0.00    -0.267 N 
ATOM     11  N   UNL     1      34.842 -18.164 -23.591  0.00  0.00    -0.251 N 
ATOM     12  N   UNL     1      34.884 -15.777 -23.544  0.00  0.00    -0.062 NA
ATOM     13  C   UNL     1      35.192 -18.442 -22.260  0.00  0.00    +0.309 C 
ATOM     14  C   UNL     1      34.694 -16.899 -24.208  0.00  0.00    +0.177 C 
ATOM     15  C   UNL     1      34.343 -16.734 -25.537  0.00  0.00    +0.073 C 
ATOM     16  C   UNL     1      34.323 -15.372 -25.675  0.00  0.00    +0.156 C 
ATOM     17  C   UNL     1      34.036 -14.467 -26.795  0.00  0.00    +0.075 C 
ATOM     18  H   UNL     1      35.014 -20.395 -22.841  0.00  0.00    +0.156 HD
ATOM     19  H   UNL     1      34.680 -18.947 -24.168  0.00  0.00    +0.158 HD
ENDBRANCH   3  10
BRANCH   2  20
ATOM     20  O   UNL     1      36.528 -22.587 -17.412  0.00  0.00    -0.453 OA
BRANCH  20  24
ATOM     21  N   UNL     1      33.372 -23.933 -15.084  0.00  0.00    -0.244 NA
ATOM     22  C   UNL     1      35.742 -23.612 -15.371  0.00  0.00    +0.055 C 
ATOM     23  C   UNL     1      34.631 -24.052 -14.623  0.00  0.00    +0.087 C 
ATOM     24  C   UNL     1      35.505 -23.037 -16.628  0.00  0.00    +0.148 C 
ATOM     25  C   UNL     1      37.044 -23.751 -14.859  0.00  0.00    +0.045 C 
ATOM     26  C   UNL     1      37.250 -24.325 -13.608  0.00  0.00    +0.173 C 
ATOM     27  C   UNL     1      34.867 -24.622 -13.375  0.00  0.00    +0.059 C 
ATOM     28  C   UNL     1      36.160 -24.760 -12.866  0.00  0.00    +0.174 C 
ATOM     29  C   UNL     1      34.209 -22.914 -17.106  0.00  0.00    +0.058 C 
ATOM     30  C   UNL     1      33.186 -23.374 -16.301  0.00  0.00    +0.102 C 
BRANCH  26  31
ATOM     31  O   UNL     1      38.518 -24.452 -13.126  0.00  0.00    -0.468 OA
ATOM     32  C   UNL     1      39.234 -25.632 -13.488  0.00  0.00    +0.253 C 
ENDBRANCH  26  31
BRANCH  28  33
ATOM     33  O   UNL     1      36.339 -25.325 -11.638  0.00  0.00    -0.468 OA
ATOM     34  C   UNL     1      35.916 -24.566 -10.507  0.00  0.00    +0.253 C 
ENDBRANCH  28  33
ENDBRANCH  20  24
ENDBRANCH   2  20
TORSDOF 5
ENDMDL
MODEL 8
REMARK VINA RESULT:     -10.4      8.085     15.841
REMARK  Name = 9911830
REMARK  5 active torsions:
REMARK  status: ('A' for Active; 'I' for Inactive)
REMARK    1  A    between atoms: C_2  and  O_20
REMARK    2  A    between atoms: C_3  and  N_10
REMARK    3  A    between atoms: O_20  and  C_24
REMARK    4  A    between atoms: C_26  and  O_31
REMARK    5  A    between atoms: C_28  and  O_33
REMARK                            x       y       z     vdW  Elec       q    Type
REMARK                         _______ _______ _______ _____ _____    ______ ____
ROOT
ATOM      1 CL   UNL     1      36.078 -10.039 -25.517  0.00  0.00    -0.081 Cl
ATOM      2  C   UNL     1      33.853  -7.976 -22.948  0.00  0.00    +0.146 C 
ATOM      3  C   UNL     1      33.831 -10.518 -24.043  0.00  0.00    +0.062 C 
ATOM      4  C   UNL     1      34.842  -8.333 -23.847  0.00  0.00    +0.050 C 
ATOM      5  C   UNL     1      32.852  -8.861 -22.584  0.00  0.00    +0.039 C 
ATOM      6  C   UNL     1      34.832  -9.614 -24.398  0.00  0.00    +0.074 C 
ATOM      7  C   UNL     1      32.842 -10.142 -23.135  0.00  0.00    +0.019 C 
ENDROOT
BRANCH   3  10
ATOM      8  O   UNL     1      35.070 -17.249 -23.807  0.00  0.00    -0.357 OA
ATOM      9  O   UNL     1      34.808 -13.101 -22.905  0.00  0.00    -0.252 OA
ATOM     10  N   UNL     1      33.794 -11.810 -24.577  0.00  0.00    -0.267 N 
ATOM     11  N   UNL     1      34.030 -14.085 -24.878  0.00  0.00    -0.251 N 
ATOM     12  N   UNL     1      34.942 -15.882 -23.596  0.00  0.00    -0.062 NA
ATOM     13  C   UNL     1      34.268 -13.013 -24.003  0.00  0.00    +0.309 C 
ATOM     14  C   UNL     1      34.348 -15.451 -24.690  0.00  0.00    +0.177 C 
ATOM     15  C   UNL     1      34.067 -16.435 -25.624  0.00  0.00    +0.073 C 
ATOM     16  C   UNL     1      34.546 -17.567 -25.019  0.00  0.00    +0.156 C 
ATOM     17  C   UNL     1      34.599 -18.982 -25.405  0.00  0.00    +0.075 C 
ATOM     18  H   UNL     1      33.382 -11.894 -25.466  0.00  0.00    +0.156 HD
ATOM     19  H   UNL     1      33.586 -13.858 -25.728  0.00  0.00    +0.158 HD
ENDBRANCH   3  10
BRANCH   2  20
ATOM     20  O   UNL     1      33.860  -6.706 -22.402  0.00  0.00    -0.453 OA
BRANCH  20  24
ATOM     21  N   UNL     1      30.561  -4.295 -23.110  0.00  0.00    -0.244 NA
ATOM     22  C   UNL     1      32.731  -5.089 -23.795  0.00  0.00    +0.055 C 
ATOM     23  C   UNL     1      31.585  -4.290 -23.985  0.00  0.00    +0.087 C 
ATOM     24  C   UNL     1      32.785  -5.904 -22.656  0.00  0.00    +0.148 C 
ATOM     25  C   UNL     1      33.781  -5.059 -24.729  0.00  0.00    +0.045 C 
ATOM     26  C   UNL     1      33.700  -4.241 -25.852  0.00  0.00    +0.173 C 
ATOM     27  C   UNL     1      31.531  -3.481 -25.117  0.00  0.00    +0.059 C 
ATOM     28  C   UNL     1      32.574  -3.451 -26.046  0.00  0.00    +0.174 C 
ATOM     29  C   UNL     1      31.733  -5.911 -21.752  0.00  0.00    +0.058 C 
ATOM     30  C   UNL     1      30.653  -5.095 -22.023  0.00  0.00    +0.102 C 
BRANCH  26  31
ATOM     31  O   UNL     1      34.726  -4.224 -26.748  0.00  0.00    -0.468 OA
ATOM     32  C   UNL     1      35.712  -5.246 -26.626  0.00  0.00    +0.253 C 
ENDBRANCH  26  31
BRANCH  28  33
ATOM     33  O   UNL     1      32.474  -2.643 -27.139  0.00  0.00    -0.468 OA
ATOM     34  C   UNL     1      31.244  -1.943 -27.317  0.00  0.00    +0.253 C 
ENDBRANCH  28  33
ENDBRANCH  20  24
ENDBRANCH   2  20
TORSDOF 5
ENDMDL
MODEL 9
REMARK VINA RESULT:     -10.4      7.880     15.856
REMARK  Name = 9911830
REMARK  5 active torsions:
REMARK  status: ('A' for Active; 'I' for Inactive)
REMARK    1  A    between atoms: C_2  and  O_20
REMARK    2  A    between atoms: C_3  and  N_10
REMARK    3  A    between atoms: O_20  and  C_24
REMARK    4  A    between atoms: C_26  and  O_31
REMARK    5  A    between atoms: C_28  and  O_33
REMARK                            x       y       z     vdW  Elec       q    Type
REMARK                         _______ _______ _______ _____ _____    ______ ____
ROOT
ATOM      1 CL   UNL     1      31.670 -11.257 -22.499  0.00  0.00    -0.081 Cl
ATOM      2  C   UNL     1      33.985  -8.077 -23.084  0.00  0.00    +0.146 C 
ATOM      3  C   UNL     1      33.870 -10.683 -24.009  0.00  0.00    +0.062 C 
ATOM      4  C   UNL     1      32.985  -8.915 -22.621  0.00  0.00    +0.050 C 
ATOM      5  C   UNL     1      34.929  -8.512 -23.998  0.00  0.00    +0.039 C 
ATOM      6  C   UNL     1      32.927 -10.227 -23.088  0.00  0.00    +0.074 C 
ATOM      7  C   UNL     1      34.870  -9.825 -24.465  0.00  0.00    +0.019 C 
ENDROOT
BRANCH   3  10
ATOM      8  O   UNL     1      35.213 -17.384 -23.580  0.00  0.00    -0.357 OA
ATOM      9  O   UNL     1      34.912 -13.212 -22.810  0.00  0.00    -0.252 OA
ATOM     10  N   UNL     1      33.839 -11.993 -24.498  0.00  0.00    -0.267 N 
ATOM     11  N   UNL     1      34.101 -14.273 -24.730  0.00  0.00    -0.251 N 
ATOM     12  N   UNL     1      35.069 -16.013 -23.411  0.00  0.00    -0.062 NA
ATOM     13  C   UNL     1      34.344 -13.169 -23.897  0.00  0.00    +0.309 C 
ATOM     14  C   UNL     1      34.443 -15.627 -24.504  0.00  0.00    +0.177 C 
ATOM     15  C   UNL     1      34.155 -16.646 -25.398  0.00  0.00    +0.073 C 
ATOM     16  C   UNL     1      34.664 -17.750 -24.767  0.00  0.00    +0.156 C 
ATOM     17  C   UNL     1      34.728 -19.176 -25.107  0.00  0.00    +0.075 C 
ATOM     18  H   UNL     1      33.407 -12.112 -25.374  0.00  0.00    +0.156 HD
ATOM     19  H   UNL     1      33.633 -14.081 -25.575  0.00  0.00    +0.158 HD
ENDBRANCH   3  10
BRANCH   2  20
ATOM     20  O   UNL     1      34.045  -6.775 -22.621  0.00  0.00    -0.453 OA
BRANCH  20  24
ATOM     21  N   UNL     1      30.738  -4.360 -23.275  0.00  0.00    -0.244 NA
ATOM     22  C   UNL     1      32.899  -5.148 -23.990  0.00  0.00    +0.055 C 
ATOM     23  C   UNL     1      31.751  -4.349 -24.161  0.00  0.00    +0.087 C 
ATOM     24  C   UNL     1      32.967  -5.972 -22.857  0.00  0.00    +0.148 C 
ATOM     25  C   UNL     1      33.939  -5.110 -24.935  0.00  0.00    +0.045 C 
ATOM     26  C   UNL     1      33.846  -4.284 -26.051  0.00  0.00    +0.173 C 
ATOM     27  C   UNL     1      31.685  -3.530 -25.286  0.00  0.00    +0.059 C 
ATOM     28  C   UNL     1      32.717  -3.493 -26.226  0.00  0.00    +0.174 C 
ATOM     29  C   UNL     1      31.924  -5.986 -21.942  0.00  0.00    +0.058 C 
ATOM     30  C   UNL     1      30.842  -5.169 -22.195  0.00  0.00    +0.102 C 
BRANCH  26  31
ATOM     31  O   UNL     1      34.862  -4.259 -26.958  0.00  0.00    -0.468 OA
ATOM     32  C   UNL     1      36.009  -5.057 -26.670  0.00  0.00    +0.253 C 
ENDBRANCH  26  31
BRANCH  28  33
ATOM     33  O   UNL     1      32.605  -2.677 -27.311  0.00  0.00    -0.468 OA
ATOM     34  C   UNL     1      31.330  -2.083 -27.547  0.00  0.00    +0.253 C 
ENDBRANCH  28  33
ENDBRANCH  20  24
ENDBRANCH   2  20
TORSDOF 5
ENDMDL
