MODEL 1
REMARK VINA RESULT:     -12.1      0.000      0.000
REMARK  Name = 10407120
REMARK  4 active torsions:
REMARK  status: ('A' for Active; 'I' for Inactive)
REMARK    1  A    between atoms: N_2  and  C_19
REMARK    2  A    between atoms: C_3  and  C_6
REMARK    3  A    between atoms: C_5  and  C_16
REMARK    4  A    between atoms: C_19  and  C_21
REMARK                            x       y       z     vdW  Elec       q    Type
REMARK                         _______ _______ _______ _____ _____    ______ ____
ROOT
ATOM      1  O   UNL     1      33.563 -17.127 -26.216  0.00  0.00    -0.270 OA
ATOM      2  N   UNL     1      34.252 -15.004 -25.566  0.00  0.00    -0.267 N 
ATOM      3  C   UNL     1      34.201 -16.397 -25.456  0.00  0.00    +0.250 C 
ATOM      4  C   UNL     1      33.514 -14.344 -26.635  0.00  0.00    +0.116 C 
ENDROOT
BRANCH   3   6
ATOM      5  C   UNL     1      34.604 -18.204 -23.822  0.00  0.00    +0.006 C 
ATOM      6  C   UNL     1      34.958 -16.995 -24.317  0.00  0.00    +0.058 C 
BRANCH   5  16
ATOM      7  O   UNL     1      37.213 -22.199 -17.775  0.00  0.00    -0.275 OA
ATOM      8  N   UNL     1      37.173 -20.701 -19.515  0.00  0.00    -0.270 N 
ATOM      9  N   UNL     1      37.213 -19.204 -21.346  0.00  0.00    -0.229 NA
ATOM     10  C   UNL     1      34.433 -21.310 -19.909  0.00  0.00    +0.039 C 
ATOM     11  C   UNL     1      35.177 -20.407 -20.843  0.00  0.00    +0.010 C 
ATOM     12  C   UNL     1      35.366 -22.343 -19.296  0.00  0.00    +0.090 C 
ATOM     13  C   UNL     1      36.514 -20.093 -20.602  0.00  0.00    +0.130 C 
ATOM     14  C   UNL     1      34.538 -19.774 -21.910  0.00  0.00    +0.000 C 
ATOM     15  C   UNL     1      36.646 -21.732 -18.762  0.00  0.00    +0.227 C 
ATOM     16  C   UNL     1      35.241 -18.873 -22.702  0.00  0.00    +0.019 C 
ATOM     17  C   UNL     1      36.562 -18.623 -22.379  0.00  0.00    +0.100 C 
ATOM     18  H   UNL     1      38.067 -20.369 -19.277  0.00  0.00    +0.156 HD
ENDBRANCH   5  16
ENDBRANCH   3   6
BRANCH   2  19
ATOM     19  C   UNL     1      34.974 -14.116 -24.657  0.00  0.00    +0.158 C 
BRANCH  19  21
ATOM     20  O   UNL     1      33.291 -12.663 -23.754  0.00  0.00    -0.456 OA
ATOM     21  C   UNL     1      34.124 -13.688 -23.496  0.00  0.00    +0.139 A 
ATOM     22  C   UNL     1      34.027 -14.137 -22.222  0.00  0.00    +0.013 A 
ATOM     23  C   UNL     1      33.039 -13.322 -21.608  0.00  0.00    +0.033 A 
ATOM     24  C   UNL     1      32.619 -12.432 -22.591  0.00  0.00    +0.145 A 
ATOM     25  C   UNL     1      34.783 -15.239 -21.594  0.00  0.00    +0.034 C 
ATOM     26  C   UNL     1      32.456 -13.238 -20.332  0.00  0.00    +0.003 C 
ATOM     27  C   UNL     1      31.647 -11.453 -22.395  0.00  0.00    +0.037 C 
ATOM     28  C   UNL     1      31.476 -12.263 -20.104  0.00  0.00    +0.000 C 
ATOM     29  C   UNL     1      31.081 -11.387 -21.119  0.00  0.00    +0.003 C 
ENDBRANCH  19  21
ENDBRANCH   2  19
TORSDOF 4
ENDMDL
MODEL 2
REMARK VINA RESULT:     -11.9      0.871      1.532
REMARK  Name = 10407120
REMARK  4 active torsions:
REMARK  status: ('A' for Active; 'I' for Inactive)
REMARK    1  A    between atoms: N_2  and  C_19
REMARK    2  A    between atoms: C_3  and  C_6
REMARK    3  A    between atoms: C_5  and  C_16
REMARK    4  A    between atoms: C_19  and  C_21
REMARK                            x       y       z     vdW  Elec       q    Type
REMARK                         _______ _______ _______ _____ _____    ______ ____
ROOT
ATOM      1  O   UNL     1      33.665 -17.652 -26.129  0.00  0.00    -0.270 OA
ATOM      2  N   UNL     1      34.475 -15.547 -25.566  0.00  0.00    -0.267 N 
ATOM      3  C   UNL     1      34.329 -16.926 -25.388  0.00  0.00    +0.250 C 
ATOM      4  C   UNL     1      33.813 -14.898 -26.689  0.00  0.00    +0.116 C 
ENDROOT
BRANCH   3   6
ATOM      5  C   UNL     1      34.542 -18.647 -23.629  0.00  0.00    +0.006 C 
ATOM      6  C   UNL     1      35.012 -17.511 -24.196  0.00  0.00    +0.058 C 
BRANCH   5  16
ATOM      7  O   UNL     1      36.711 -22.490 -17.315  0.00  0.00    -0.275 OA
ATOM      8  N   UNL     1      36.808 -21.059 -19.110  0.00  0.00    -0.270 N 
ATOM      9  N   UNL     1      36.990 -19.636 -20.990  0.00  0.00    -0.229 NA
ATOM     10  C   UNL     1      34.071 -21.593 -19.618  0.00  0.00    +0.039 C 
ATOM     11  C   UNL     1      34.892 -20.750 -20.546  0.00  0.00    +0.010 C 
ATOM     12  C   UNL     1      34.937 -22.631 -18.922  0.00  0.00    +0.090 C 
ATOM     13  C   UNL     1      36.225 -20.472 -20.250  0.00  0.00    +0.130 C 
ATOM     14  C   UNL     1      34.328 -20.138 -21.666  0.00  0.00    +0.000 C 
ATOM     15  C   UNL     1      36.210 -22.042 -18.346  0.00  0.00    +0.227 C 
ATOM     16  C   UNL     1      35.100 -19.292 -22.454  0.00  0.00    +0.019 C 
ATOM     17  C   UNL     1      36.411 -19.074 -22.075  0.00  0.00    +0.100 C 
ATOM     18  H   UNL     1      37.701 -20.747 -18.839  0.00  0.00    +0.156 HD
ENDBRANCH   5  16
ENDBRANCH   3   6
BRANCH   2  19
ATOM     19  C   UNL     1      35.229 -14.661 -24.681  0.00  0.00    +0.158 C 
BRANCH  19  21
ATOM     20  O   UNL     1      33.923 -14.494 -22.674  0.00  0.00    -0.456 OA
ATOM     21  C   UNL     1      34.327 -13.858 -23.789  0.00  0.00    +0.139 A 
ATOM     22  C   UNL     1      33.832 -12.601 -23.886  0.00  0.00    +0.013 A 
ATOM     23  C   UNL     1      33.037 -12.416 -22.723  0.00  0.00    +0.033 A 
ATOM     24  C   UNL     1      33.126 -13.609 -22.012  0.00  0.00    +0.145 A 
ATOM     25  C   UNL     1      34.063 -11.621 -24.966  0.00  0.00    +0.034 C 
ATOM     26  C   UNL     1      32.254 -11.376 -22.195  0.00  0.00    +0.003 C 
ATOM     27  C   UNL     1      32.485 -13.844 -20.798  0.00  0.00    +0.037 C 
ATOM     28  C   UNL     1      31.596 -11.583 -20.975  0.00  0.00    +0.000 C 
ATOM     29  C   UNL     1      31.710 -12.796 -20.291  0.00  0.00    +0.003 C 
ENDBRANCH  19  21
ENDBRANCH   2  19
TORSDOF 4
ENDMDL
MODEL 3
REMARK VINA RESULT:     -11.5      2.470      8.602
REMARK  Name = 10407120
REMARK  4 active torsions:
REMARK  status: ('A' for Active; 'I' for Inactive)
REMARK    1  A    between atoms: N_2  and  C_19
REMARK    2  A    between atoms: C_3  and  C_6
REMARK    3  A    between atoms: C_5  and  C_16
REMARK    4  A    between atoms: C_19  and  C_21
REMARK                            x       y       z     vdW  Elec       q    Type
REMARK                         _______ _______ _______ _____ _____    ______ ____
ROOT
ATOM      1  O   UNL     1      34.926 -16.763 -26.153  0.00  0.00    -0.270 OA
ATOM      2  N   UNL     1      35.213 -17.537 -23.980  0.00  0.00    -0.267 N 
ATOM      3  C   UNL     1      35.002 -16.546 -24.942  0.00  0.00    +0.250 C 
ATOM      4  C   UNL     1      35.356 -18.924 -24.402  0.00  0.00    +0.116 C 
ENDROOT
BRANCH   3   6
ATOM      5  C   UNL     1      33.688 -14.543 -24.342  0.00  0.00    +0.006 C 
ATOM      6  C   UNL     1      34.896 -15.146 -24.433  0.00  0.00    +0.058 C 
BRANCH   5  16
ATOM      7  O   UNL     1      31.997  -7.672 -21.297  0.00  0.00    -0.275 OA
ATOM      8  N   UNL     1      32.879  -9.241 -22.724  0.00  0.00    -0.270 N 
ATOM      9  N   UNL     1      33.880 -10.818 -24.175  0.00  0.00    -0.229 NA
ATOM     10  C   UNL     1      31.472 -11.250 -21.303  0.00  0.00    +0.039 C 
ATOM     11  C   UNL     1      32.433 -11.592 -22.400  0.00  0.00    +0.010 C 
ATOM     12  C   UNL     1      31.885  -9.965 -20.603  0.00  0.00    +0.090 C 
ATOM     13  C   UNL     1      33.081 -10.581 -23.108  0.00  0.00    +0.130 C 
ATOM     14  C   UNL     1      32.628 -12.911 -22.813  0.00  0.00    +0.000 C 
ATOM     15  C   UNL     1      32.220  -8.851 -21.575  0.00  0.00    +0.227 C 
ATOM     16  C   UNL     1      33.461 -13.181 -23.894  0.00  0.00    +0.019 C 
ATOM     17  C   UNL     1      34.055 -12.109 -24.535  0.00  0.00    +0.100 C 
ATOM     18  H   UNL     1      33.231  -8.537 -23.313  0.00  0.00    +0.156 HD
ENDBRANCH   5  16
ENDBRANCH   3   6
BRANCH   2  19
ATOM     19  C   UNL     1      35.341 -17.299 -22.543  0.00  0.00    +0.158 C 
BRANCH  19  21
ATOM     20  O   UNL     1      34.128 -19.069 -21.468  0.00  0.00    -0.456 OA
ATOM     21  C   UNL     1      35.347 -18.580 -21.760  0.00  0.00    +0.139 A 
ATOM     22  C   UNL     1      36.352 -19.353 -21.284  0.00  0.00    +0.013 A 
ATOM     23  C   UNL     1      35.716 -20.438 -20.625  0.00  0.00    +0.033 A 
ATOM     24  C   UNL     1      34.349 -20.216 -20.766  0.00  0.00    +0.145 A 
ATOM     25  C   UNL     1      37.805 -19.125 -21.416  0.00  0.00    +0.034 C 
ATOM     26  C   UNL     1      36.142 -21.580 -19.926  0.00  0.00    +0.003 C 
ATOM     27  C   UNL     1      33.364 -21.060 -20.257  0.00  0.00    +0.037 C 
ATOM     28  C   UNL     1      35.174 -22.447 -19.401  0.00  0.00    +0.000 C 
ATOM     29  C   UNL     1      33.811 -22.189 -19.564  0.00  0.00    +0.003 C 
ENDBRANCH  19  21
ENDBRANCH   2  19
TORSDOF 4
ENDMDL
MODEL 4
REMARK VINA RESULT:     -11.4      1.265      1.638
REMARK  Name = 10407120
REMARK  4 active torsions:
REMARK  status: ('A' for Active; 'I' for Inactive)
REMARK    1  A    between atoms: N_2  and  C_19
REMARK    2  A    between atoms: C_3  and  C_6
REMARK    3  A    between atoms: C_5  and  C_16
REMARK    4  A    between atoms: C_19  and  C_21
REMARK                            x       y       z     vdW  Elec       q    Type
REMARK                         _______ _______ _______ _____ _____    ______ ____
ROOT
ATOM      1  O   UNL     1      33.870 -18.682 -25.767  0.00  0.00    -0.270 OA
ATOM      2  N   UNL     1      34.806 -16.686 -25.027  0.00  0.00    -0.267 N 
ATOM      3  C   UNL     1      34.556 -18.060 -24.953  0.00  0.00    +0.250 C 
ATOM      4  C   UNL     1      34.235 -15.914 -26.122  0.00  0.00    +0.116 C 
ENDROOT
BRANCH   3   6
ATOM      5  C   UNL     1      34.350 -19.349 -22.857  0.00  0.00    +0.006 C 
ATOM      6  C   UNL     1      35.150 -18.775 -23.786  0.00  0.00    +0.058 C 
BRANCH   5  16
ATOM      7  O   UNL     1      35.939 -23.331 -16.457  0.00  0.00    -0.275 OA
ATOM      8  N   UNL     1      36.241 -21.963 -18.277  0.00  0.00    -0.270 N 
ATOM      9  N   UNL     1      36.626 -20.616 -20.183  0.00  0.00    -0.229 NA
ATOM     10  C   UNL     1      33.459 -22.122 -18.794  0.00  0.00    +0.039 C 
ATOM     11  C   UNL     1      34.392 -21.420 -19.732  0.00  0.00    +0.010 C 
ATOM     12  C   UNL     1      34.169 -23.256 -18.073  0.00  0.00    +0.090 C 
ATOM     13  C   UNL     1      35.750 -21.323 -19.432  0.00  0.00    +0.130 C 
ATOM     14  C   UNL     1      33.923 -20.758 -20.868  0.00  0.00    +0.000 C 
ATOM     15  C   UNL     1      35.509 -22.838 -17.500  0.00  0.00    +0.227 C 
ATOM     16  C   UNL     1      34.808 -20.042 -21.666  0.00  0.00    +0.019 C 
ATOM     17  C   UNL     1      36.136 -20.000 -21.282  0.00  0.00    +0.100 C 
ATOM     18  H   UNL     1      37.167 -21.773 -18.006  0.00  0.00    +0.156 HD
ENDBRANCH   5  16
ENDBRANCH   3   6
BRANCH   2  19
ATOM     19  C   UNL     1      35.588 -15.922 -24.057  0.00  0.00    +0.158 C 
BRANCH  19  21
ATOM     20  O   UNL     1      34.034 -14.123 -23.722  0.00  0.00    -0.456 OA
ATOM     21  C   UNL     1      34.712 -15.126 -23.133  0.00  0.00    +0.139 A 
ATOM     22  C   UNL     1      34.463 -15.220 -21.805  0.00  0.00    +0.013 A 
ATOM     23  C   UNL     1      33.541 -14.179 -21.518  0.00  0.00    +0.033 A 
ATOM     24  C   UNL     1      33.310 -13.534 -22.729  0.00  0.00    +0.145 A 
ATOM     25  C   UNL     1      35.026 -16.194 -20.849  0.00  0.00    +0.034 C 
ATOM     26  C   UNL     1      32.877 -13.711 -20.371  0.00  0.00    +0.003 C 
ATOM     27  C   UNL     1      32.456 -12.444 -22.884  0.00  0.00    +0.037 C 
ATOM     28  C   UNL     1      32.012 -12.616 -20.495  0.00  0.00    +0.000 C 
ATOM     29  C   UNL     1      31.807 -11.995 -21.730  0.00  0.00    +0.003 C 
ENDBRANCH  19  21
ENDBRANCH   2  19
TORSDOF 4
ENDMDL
MODEL 5
REMARK VINA RESULT:     -10.6      5.018     11.572
REMARK  Name = 10407120
REMARK  4 active torsions:
REMARK  status: ('A' for Active; 'I' for Inactive)
REMARK    1  A    between atoms: N_2  and  C_19
REMARK    2  A    between atoms: C_3  and  C_6
REMARK    3  A    between atoms: C_5  and  C_16
REMARK    4  A    between atoms: C_19  and  C_21
REMARK                            x       y       z     vdW  Elec       q    Type
REMARK                         _______ _______ _______ _____ _____    ______ ____
ROOT
ATOM      1  O   UNL     1      30.827 -24.576 -16.470  0.00  0.00    -0.270 OA
ATOM      2  N   UNL     1      32.033 -24.149 -14.529  0.00  0.00    -0.267 N 
ATOM      3  C   UNL     1      31.721 -23.967 -15.880  0.00  0.00    +0.250 C 
ATOM      4  C   UNL     1      31.271 -25.111 -13.743  0.00  0.00    +0.116 C 
ENDROOT
BRANCH   3   6
ATOM      5  C   UNL     1      33.373 -23.406 -17.627  0.00  0.00    +0.006 C 
ATOM      6  C   UNL     1      32.566 -22.987 -16.624  0.00  0.00    +0.058 C 
BRANCH   5  16
ATOM      7  O   UNL     1      37.353 -18.635 -22.181  0.00  0.00    -0.275 OA
ATOM      8  N   UNL     1      36.907 -20.183 -20.544  0.00  0.00    -0.270 N 
ATOM      9  N   UNL     1      36.491 -21.715 -18.790  0.00  0.00    -0.229 NA
ATOM     10  C   UNL     1      34.208 -20.241 -21.407  0.00  0.00    +0.039 C 
ATOM     11  C   UNL     1      34.659 -20.992 -20.192  0.00  0.00    +0.010 C 
ATOM     12  C   UNL     1      35.051 -18.994 -21.616  0.00  0.00    +0.090 C 
ATOM     13  C   UNL     1      36.001 -20.977 -19.814  0.00  0.00    +0.130 C 
ATOM     14  C   UNL     1      33.785 -21.805 -19.469  0.00  0.00    +0.000 C 
ATOM     15  C   UNL     1      36.538 -19.267 -21.510  0.00  0.00    +0.227 C 
ATOM     16  C   UNL     1      34.261 -22.556 -18.401  0.00  0.00    +0.019 C 
ATOM     17  C   UNL     1      35.610 -22.478 -18.107  0.00  0.00    +0.100 C 
ATOM     18  H   UNL     1      37.866 -20.288 -20.354  0.00  0.00    +0.156 HD
ENDBRANCH   5  16
ENDBRANCH   3   6
BRANCH   2  19
ATOM     19  C   UNL     1      33.110 -23.464 -13.816  0.00  0.00    +0.158 C 
BRANCH  19  21
ATOM     20  O   UNL     1      34.624 -24.914 -14.983  0.00  0.00    -0.456 OA
ATOM     21  C   UNL     1      34.386 -24.253 -13.835  0.00  0.00    +0.139 A 
ATOM     22  C   UNL     1      35.361 -24.435 -12.913  0.00  0.00    +0.013 A 
ATOM     23  C   UNL     1      36.311 -25.292 -13.529  0.00  0.00    +0.033 A 
ATOM     24  C   UNL     1      35.811 -25.558 -14.800  0.00  0.00    +0.145 A 
ATOM     25  C   UNL     1      35.431 -23.867 -11.552  0.00  0.00    +0.034 C 
ATOM     26  C   UNL     1      37.535 -25.871 -13.153  0.00  0.00    +0.003 C 
ATOM     27  C   UNL     1      36.449 -26.368 -15.737  0.00  0.00    +0.037 C 
ATOM     28  C   UNL     1      38.200 -26.692 -14.074  0.00  0.00    +0.000 C 
ATOM     29  C   UNL     1      37.665 -26.935 -15.342  0.00  0.00    +0.003 C 
ENDBRANCH  19  21
ENDBRANCH   2  19
TORSDOF 4
ENDMDL
MODEL 6
REMARK VINA RESULT:     -10.5      4.674     10.328
REMARK  Name = 10407120
REMARK  4 active torsions:
REMARK  status: ('A' for Active; 'I' for Inactive)
REMARK    1  A    between atoms: N_2  and  C_19
REMARK    2  A    between atoms: C_3  and  C_6
REMARK    3  A    between atoms: C_5  and  C_16
REMARK    4  A    between atoms: C_19  and  C_21
REMARK                            x       y       z     vdW  Elec       q    Type
REMARK                         _______ _______ _______ _____ _____    ______ ____
ROOT
ATOM      1  O   UNL     1      38.153 -22.279 -15.139  0.00  0.00    -0.270 OA
ATOM      2  N   UNL     1      36.918 -24.248 -15.177  0.00  0.00    -0.267 N 
ATOM      3  C   UNL     1      37.279 -22.982 -15.648  0.00  0.00    +0.250 C 
ATOM      4  C   UNL     1      37.599 -24.797 -14.011  0.00  0.00    +0.116 C 
ENDROOT
BRANCH   3   6
ATOM      5  C   UNL     1      37.161 -21.876 -17.853  0.00  0.00    +0.006 C 
ATOM      6  C   UNL     1      36.514 -22.477 -16.827  0.00  0.00    +0.058 C 
BRANCH   5  16
ATOM      7  O   UNL     1      34.563 -18.473 -24.257  0.00  0.00    -0.275 OA
ATOM      8  N   UNL     1      34.597 -19.790 -22.375  0.00  0.00    -0.270 N 
ATOM      9  N   UNL     1      34.606 -21.226 -20.496  0.00  0.00    -0.229 NA
ATOM     10  C   UNL     1      37.161 -18.754 -21.758  0.00  0.00    +0.039 C 
ATOM     11  C   UNL     1      36.542 -19.850 -20.947  0.00  0.00    +0.010 C 
ATOM     12  C   UNL     1      36.688 -18.816 -23.201  0.00  0.00    +0.090 C 
ATOM     13  C   UNL     1      35.262 -20.313 -21.250  0.00  0.00    +0.130 C 
ATOM     14  C   UNL     1      37.173 -20.365 -19.813  0.00  0.00    +0.000 C 
ATOM     15  C   UNL     1      35.186 -18.972 -23.319  0.00  0.00    +0.227 C 
ATOM     16  C   UNL     1      36.527 -21.319 -19.035  0.00  0.00    +0.019 C 
ATOM     17  C   UNL     1      35.256 -21.710 -19.414  0.00  0.00    +0.100 C 
ATOM     18  H   UNL     1      33.649 -20.023 -22.497  0.00  0.00    +0.156 HD
ENDBRANCH   5  16
ENDBRANCH   3   6
BRANCH   2  19
ATOM     19  C   UNL     1      35.863 -25.086 -15.743  0.00  0.00    +0.158 C 
BRANCH  19  21
ATOM     20  O   UNL     1      33.809 -24.194 -16.606  0.00  0.00    -0.456 OA
ATOM     21  C   UNL     1      34.498 -24.514 -15.494  0.00  0.00    +0.139 A 
ATOM     22  C   UNL     1      33.810 -24.253 -14.357  0.00  0.00    +0.013 A 
ATOM     23  C   UNL     1      32.566 -23.715 -14.780  0.00  0.00    +0.033 A 
ATOM     24  C   UNL     1      32.616 -23.699 -16.171  0.00  0.00    +0.145 A 
ATOM     25  C   UNL     1      34.252 -24.476 -12.966  0.00  0.00    +0.034 C 
ATOM     26  C   UNL     1      31.406 -23.241 -14.144  0.00  0.00    +0.003 C 
ATOM     27  C   UNL     1      31.581 -23.241 -16.984  0.00  0.00    +0.037 C 
ATOM     28  C   UNL     1      30.349 -22.773 -14.936  0.00  0.00    +0.000 C 
ATOM     29  C   UNL     1      30.438 -22.773 -16.330  0.00  0.00    +0.003 C 
ENDBRANCH  19  21
ENDBRANCH   2  19
TORSDOF 4
ENDMDL
MODEL 7
REMARK VINA RESULT:     -10.2      5.549     10.961
REMARK  Name = 10407120
REMARK  4 active torsions:
REMARK  status: ('A' for Active; 'I' for Inactive)
REMARK    1  A    between atoms: N_2  and  C_19
REMARK    2  A    between atoms: C_3  and  C_6
REMARK    3  A    between atoms: C_5  and  C_16
REMARK    4  A    between atoms: C_19  and  C_21
REMARK                            x       y       z     vdW  Elec       q    Type
REMARK                         _______ _______ _______ _____ _____    ______ ____
ROOT
ATOM      1  O   UNL     1      39.064 -24.094 -13.393  0.00  0.00    -0.270 OA
ATOM      2  N   UNL     1      37.441 -25.603 -14.096  0.00  0.00    -0.267 N 
ATOM      3  C   UNL     1      38.288 -24.503 -14.259  0.00  0.00    +0.250 C 
ATOM      4  C   UNL     1      37.452 -26.332 -12.835  0.00  0.00    +0.116 C 
ENDROOT
BRANCH   3   6
ATOM      5  C   UNL     1      37.457 -22.662 -15.679  0.00  0.00    +0.006 C 
ATOM      6  C   UNL     1      38.197 -23.790 -15.567  0.00  0.00    +0.058 C 
BRANCH   5  16
ATOM      7  O   UNL     1      35.761 -19.174 -22.335  0.00  0.00    -0.275 OA
ATOM      8  N   UNL     1      36.836 -19.650 -20.362  0.00  0.00    -0.270 N 
ATOM      9  N   UNL     1      37.925 -20.045 -18.300  0.00  0.00    -0.229 NA
ATOM     10  C   UNL     1      35.181 -21.932 -20.070  0.00  0.00    +0.039 C 
ATOM     11  C   UNL     1      36.138 -21.516 -18.997  0.00  0.00    +0.010 C 
ATOM     12  C   UNL     1      34.690 -20.726 -20.855  0.00  0.00    +0.090 C 
ATOM     13  C   UNL     1      36.968 -20.411 -19.184  0.00  0.00    +0.130 C 
ATOM     14  C   UNL     1      36.304 -22.270 -17.834  0.00  0.00    +0.000 C 
ATOM     15  C   UNL     1      35.816 -19.806 -21.280  0.00  0.00    +0.227 C 
ATOM     16  C   UNL     1      37.266 -21.900 -16.901  0.00  0.00    +0.019 C 
ATOM     17  C   UNL     1      38.045 -20.792 -17.180  0.00  0.00    +0.100 C 
ATOM     18  H   UNL     1      37.515 -18.962 -20.543  0.00  0.00    +0.156 HD
ENDBRANCH   5  16
ENDBRANCH   3   6
BRANCH   2  19
ATOM     19  C   UNL     1      36.489 -26.085 -15.095  0.00  0.00    +0.158 C 
BRANCH  19  21
ATOM     20  O   UNL     1      34.843 -24.961 -16.431  0.00  0.00    -0.456 OA
ATOM     21  C   UNL     1      35.273 -25.210 -15.180  0.00  0.00    +0.139 A 
ATOM     22  C   UNL     1      34.510 -24.612 -14.234  0.00  0.00    +0.013 A 
ATOM     23  C   UNL     1      33.498 -23.916 -14.946  0.00  0.00    +0.033 A 
ATOM     24  C   UNL     1      33.748 -24.162 -16.293  0.00  0.00    +0.145 A 
ATOM     25  C   UNL     1      34.686 -24.666 -12.769  0.00  0.00    +0.034 C 
ATOM     26  C   UNL     1      32.402 -23.107 -14.603  0.00  0.00    +0.003 C 
ATOM     27  C   UNL     1      32.974 -23.656 -17.336  0.00  0.00    +0.037 C 
ATOM     28  C   UNL     1      31.606 -22.582 -15.630  0.00  0.00    +0.000 C 
ATOM     29  C   UNL     1      31.889 -22.852 -16.971  0.00  0.00    +0.003 C 
ENDBRANCH  19  21
ENDBRANCH   2  19
TORSDOF 4
ENDMDL
MODEL 8
REMARK VINA RESULT:     -10.2      5.019     11.255
REMARK  Name = 10407120
REMARK  4 active torsions:
REMARK  status: ('A' for Active; 'I' for Inactive)
REMARK    1  A    between atoms: N_2  and  C_19
REMARK    2  A    between atoms: C_3  and  C_6
REMARK    3  A    between atoms: C_5  and  C_16
REMARK    4  A    between atoms: C_19  and  C_21
REMARK                            x       y       z     vdW  Elec       q    Type
REMARK                         _______ _______ _______ _____ _____    ______ ____
ROOT
ATOM      1  O   UNL     1      31.067 -11.508 -21.046  0.00  0.00    -0.270 OA
ATOM      2  N   UNL     1      32.798 -12.564 -22.181  0.00  0.00    -0.267 N 
ATOM      3  C   UNL     1      31.947 -11.490 -21.907  0.00  0.00    +0.250 C 
ATOM      4  C   UNL     1      32.661 -13.797 -21.417  0.00  0.00    +0.116 C 
ENDROOT
BRANCH   3   6
ATOM      5  C   UNL     1      32.079  -9.040 -22.196  0.00  0.00    +0.006 C 
ATOM      6  C   UNL     1      32.130 -10.273 -22.753  0.00  0.00    +0.058 C 
BRANCH   5  16
ATOM      7  O   UNL     1      33.557  -2.711 -26.331  0.00  0.00    -0.275 OA
ATOM      8  N   UNL     1      32.473  -4.158 -24.914  0.00  0.00    -0.270 N 
ATOM      9  N   UNL     1      31.275  -5.642 -23.515  0.00  0.00    -0.229 NA
ATOM     10  C   UNL     1      34.697  -5.907 -25.080  0.00  0.00    +0.039 C 
ATOM     11  C   UNL     1      33.449  -6.293 -24.347  0.00  0.00    +0.010 C 
ATOM     12  C   UNL     1      34.380  -4.961 -26.228  0.00  0.00    +0.090 C 
ATOM     13  C   UNL     1      32.386  -5.396 -24.248  0.00  0.00    +0.130 C 
ATOM     14  C   UNL     1      33.351  -7.503 -23.659  0.00  0.00    +0.000 C 
ATOM     15  C   UNL     1      33.465  -3.825 -25.815  0.00  0.00    +0.227 C 
ATOM     16  C   UNL     1      32.211  -7.787 -22.917  0.00  0.00    +0.019 C 
ATOM     17  C   UNL     1      31.212  -6.831 -22.875  0.00  0.00    +0.100 C 
ATOM     18  H   UNL     1      31.781  -3.485 -24.724  0.00  0.00    +0.156 HD
ENDBRANCH   5  16
ENDBRANCH   3   6
BRANCH   2  19
ATOM     19  C   UNL     1      33.827 -12.578 -23.220  0.00  0.00    +0.158 C 
BRANCH  19  21
ATOM     20  O   UNL     1      34.811 -14.705 -22.708  0.00  0.00    -0.456 OA
ATOM     21  C   UNL     1      34.178 -13.974 -23.644  0.00  0.00    +0.139 A 
ATOM     22  C   UNL     1      33.981 -14.655 -24.798  0.00  0.00    +0.013 A 
ATOM     23  C   UNL     1      34.541 -15.941 -24.579  0.00  0.00    +0.033 A 
ATOM     24  C   UNL     1      35.038 -15.921 -23.280  0.00  0.00    +0.145 A 
ATOM     25  C   UNL     1      33.325 -14.171 -26.029  0.00  0.00    +0.034 C 
ATOM     26  C   UNL     1      34.682 -17.118 -25.334  0.00  0.00    +0.003 C 
ATOM     27  C   UNL     1      35.673 -17.000 -22.669  0.00  0.00    +0.037 C 
ATOM     28  C   UNL     1      35.317 -18.221 -24.747  0.00  0.00    +0.000 C 
ATOM     29  C   UNL     1      35.804 -18.160 -23.438  0.00  0.00    +0.003 C 
ENDBRANCH  19  21
ENDBRANCH   2  19
TORSDOF 4
ENDMDL
MODEL 9
REMARK VINA RESULT:     -10.1      3.742      6.802
REMARK  Name = 10407120
REMARK  4 active torsions:
REMARK  status: ('A' for Active; 'I' for Inactive)
REMARK    1  A    between atoms: N_2  and  C_19
REMARK    2  A    between atoms: C_3  and  C_6
REMARK    3  A    between atoms: C_5  and  C_16
REMARK    4  A    between atoms: C_19  and  C_21
REMARK                            x       y       z     vdW  Elec       q    Type
REMARK                         _______ _______ _______ _____ _____    ______ ____
ROOT
ATOM      1  O   UNL     1      32.573 -22.027 -19.119  0.00  0.00    -0.270 OA
ATOM      2  N   UNL     1      33.962 -20.818 -20.538  0.00  0.00    -0.267 N 
ATOM      3  C   UNL     1      33.703 -21.729 -19.510  0.00  0.00    +0.250 C 
ATOM      4  C   UNL     1      32.847 -20.162 -21.209  0.00  0.00    +0.116 C 
ENDROOT
BRANCH   3   6
ATOM      5  C   UNL     1      34.880 -22.611 -17.526  0.00  0.00    +0.006 C 
ATOM      6  C   UNL     1      34.898 -22.334 -18.852  0.00  0.00    +0.058 C 
BRANCH   5  16
ATOM      7  O   UNL     1      40.205 -26.259 -13.323  0.00  0.00    -0.275 OA
ATOM      8  N   UNL     1      39.223 -24.650 -14.634  0.00  0.00    -0.270 N 
ATOM      9  N   UNL     1      38.287 -23.003 -16.051  0.00  0.00    -0.229 NA
ATOM     10  C   UNL     1      36.777 -26.071 -14.457  0.00  0.00    +0.039 C 
ATOM     11  C   UNL     1      36.920 -24.862 -15.329  0.00  0.00    +0.010 C 
ATOM     12  C   UNL     1      38.101 -26.808 -14.332  0.00  0.00    +0.090 C 
ATOM     13  C   UNL     1      38.124 -24.159 -15.366  0.00  0.00    +0.130 C 
ATOM     14  C   UNL     1      35.838 -24.344 -16.042  0.00  0.00    +0.000 C 
ATOM     15  C   UNL     1      39.259 -25.883 -14.014  0.00  0.00    +0.227 C 
ATOM     16  C   UNL     1      35.987 -23.169 -16.770  0.00  0.00    +0.019 C 
ATOM     17  C   UNL     1      37.219 -22.542 -16.740  0.00  0.00    +0.100 C 
ATOM     18  H   UNL     1      40.018 -24.075 -14.559  0.00  0.00    +0.156 HD
ENDBRANCH   5  16
ENDBRANCH   3   6
BRANCH   2  19
ATOM     19  C   UNL     1      35.293 -20.423 -20.996  0.00  0.00    +0.158 C 
BRANCH  19  21
ATOM     20  O   UNL     1      35.162 -18.029 -21.088  0.00  0.00    -0.456 OA
ATOM     21  C   UNL     1      35.256 -19.162 -21.808  0.00  0.00    +0.139 A 
ATOM     22  C   UNL     1      35.301 -18.933 -23.143  0.00  0.00    +0.013 A 
ATOM     23  C   UNL     1      35.228 -17.523 -23.288  0.00  0.00    +0.033 A 
ATOM     24  C   UNL     1      35.144 -17.014 -21.996  0.00  0.00    +0.145 A 
ATOM     25  C   UNL     1      35.403 -19.933 -24.225  0.00  0.00    +0.034 C 
ATOM     26  C   UNL     1      35.224 -16.622 -24.367  0.00  0.00    +0.003 C 
ATOM     27  C   UNL     1      35.056 -15.656 -21.696  0.00  0.00    +0.037 C 
ATOM     28  C   UNL     1      35.135 -15.250 -24.096  0.00  0.00    +0.000 C 
ATOM     29  C   UNL     1      35.052 -14.778 -22.784  0.00  0.00    +0.003 C 
ENDBRANCH  19  21
ENDBRANCH   2  19
TORSDOF 4
ENDMDL
