MODEL 1
REMARK VINA RESULT:     -11.3      0.000      0.000
REMARK  Name = 10200651
REMARK  5 active torsions:
REMARK  status: ('A' for Active; 'I' for Inactive)
REMARK    1  A    between atoms: C_1  and  C_7
REMARK    2  A    between atoms: C_4  and  C_22
REMARK    3  A    between atoms: C_10  and  C_17
REMARK    4  A    between atoms: N_21  and  C_24
REMARK    5  A    between atoms: C_27  and  C_31
REMARK                            x       y       z     vdW  Elec       q    Type
REMARK                         _______ _______ _______ _____ _____    ______ ____
ROOT
ATOM      1  C   UNL     1      35.176 -19.402 -21.946  0.00  0.00    -0.000 C 
ATOM      2  C   UNL     1      34.023 -20.023 -21.464  0.00  0.00    +0.000 C 
ATOM      3  C   UNL     1      36.417 -19.703 -21.386  0.00  0.00    +0.000 C 
ATOM      4  C   UNL     1      35.352 -21.224 -19.884  0.00  0.00    +0.054 C 
ATOM      5  C   UNL     1      34.112 -20.944 -20.421  0.00  0.00    +0.005 C 
ATOM      6  C   UNL     1      36.505 -20.624 -20.342  0.00  0.00    +0.005 C 
ENDROOT
BRANCH   1   7
ATOM      7  C   UNL     1      35.083 -18.446 -23.028  0.00  0.00    -0.004 C 
ATOM      8  C   UNL     1      35.134 -18.857 -24.362  0.00  0.00    -0.022 C 
ATOM      9  C   UNL     1      34.941 -17.090 -22.725  0.00  0.00    +0.004 C 
ATOM     10  C   UNL     1      34.851 -16.149 -23.751  0.00  0.00    +0.055 C 
ATOM     11  C   UNL     1      35.044 -17.916 -25.387  0.00  0.00    -0.004 C 
ATOM     12  C   UNL     1      34.902 -16.563 -25.082  0.00  0.00    +0.004 C 
ATOM     13  C   UNL     1      35.286 -20.298 -24.727  0.00  0.00    +0.031 C 
BRANCH  10  17
ATOM     14  O   UNL     1      34.509 -13.925 -24.497  0.00  0.00    -0.420 OA
ATOM     15  N   UNL     1      34.734 -14.137 -22.282  0.00  0.00    -0.107 NA
ATOM     16  N   UNL     1      34.543 -12.798 -22.565  0.00  0.00    -0.111 NA
ATOM     17  C   UNL     1      34.705 -14.750 -23.436  0.00  0.00    +0.250 A 
ATOM     18  C   UNL     1      34.418 -12.721 -23.869  0.00  0.00    +0.227 A 
ATOM     19  C   UNL     1      34.197 -11.547 -24.721  0.00  0.00    +0.097 C 
ENDBRANCH  10  17
ENDBRANCH   1   7
BRANCH   4  22
ATOM     20  O   UNL     1      34.757 -23.217 -18.843  0.00  0.00    -0.270 OA
ATOM     21  N   UNL     1      36.346 -21.872 -17.751  0.00  0.00    -0.280 N 
ATOM     22  C   UNL     1      35.446 -22.205 -18.772  0.00  0.00    +0.249 C 
ATOM     23  H   UNL     1      36.819 -21.014 -17.855  0.00  0.00    +0.155 HD
BRANCH  21  24
ATOM     24  C   UNL     1      36.658 -22.607 -16.606  0.00  0.00    +0.051 C 
ATOM     25  C   UNL     1      35.650 -22.969 -15.713  0.00  0.00    +0.025 C 
ATOM     26  C   UNL     1      37.978 -22.981 -16.356  0.00  0.00    +0.015 C 
ATOM     27  C   UNL     1      35.961 -23.704 -14.569  0.00  0.00    +0.070 C 
ATOM     28  C   UNL     1      38.291 -23.715 -15.212  0.00  0.00    +0.002 C 
ATOM     29  C   UNL     1      37.282 -24.076 -14.319  0.00  0.00    +0.010 C 
BRANCH  27  31
ATOM     30  N   UNL     1      34.089 -24.375 -12.910  0.00  0.00    -0.191 NA
ATOM     31  C   UNL     1      34.929 -24.074 -13.654  0.00  0.00    +0.100 C 
ENDBRANCH  27  31
ENDBRANCH  21  24
ENDBRANCH   4  22
TORSDOF 5
ENDMDL
MODEL 2
REMARK VINA RESULT:     -11.3      4.368     12.878
REMARK  Name = 10200651
REMARK  5 active torsions:
REMARK  status: ('A' for Active; 'I' for Inactive)
REMARK    1  A    between atoms: C_1  and  C_7
REMARK    2  A    between atoms: C_4  and  C_22
REMARK    3  A    between atoms: C_10  and  C_17
REMARK    4  A    between atoms: N_21  and  C_24
REMARK    5  A    between atoms: C_27  and  C_31
REMARK                            x       y       z     vdW  Elec       q    Type
REMARK                         _______ _______ _______ _____ _____    ______ ____
ROOT
ATOM      1  C   UNL     1      33.788 -13.510 -23.864  0.00  0.00    -0.000 C 
ATOM      2  C   UNL     1      32.856 -13.348 -22.838  0.00  0.00    +0.000 C 
ATOM      3  C   UNL     1      34.326 -12.394 -24.502  0.00  0.00    +0.000 C 
ATOM      4  C   UNL     1      33.011 -10.979 -23.097  0.00  0.00    +0.054 C 
ATOM      5  C   UNL     1      32.464 -12.067 -22.450  0.00  0.00    +0.005 C 
ATOM      6  C   UNL     1      33.933 -11.113 -24.114  0.00  0.00    +0.005 C 
ENDROOT
BRANCH   1   7
ATOM      7  C   UNL     1      34.195 -14.840 -24.266  0.00  0.00    -0.004 C 
ATOM      8  C   UNL     1      34.017 -15.284 -25.578  0.00  0.00    -0.022 C 
ATOM      9  C   UNL     1      34.776 -15.687 -23.320  0.00  0.00    +0.004 C 
ATOM     10  C   UNL     1      35.175 -16.973 -23.683  0.00  0.00    +0.055 C 
ATOM     11  C   UNL     1      34.416 -16.570 -25.941  0.00  0.00    -0.004 C 
ATOM     12  C   UNL     1      34.996 -17.414 -24.994  0.00  0.00    +0.004 C 
ATOM     13  C   UNL     1      33.399 -14.408 -26.619  0.00  0.00    +0.031 C 
BRANCH  10  17
ATOM     14  O   UNL     1      34.988 -18.862 -22.263  0.00  0.00    -0.420 OA
ATOM     15  N   UNL     1      36.964 -17.817 -22.163  0.00  0.00    -0.107 NA
ATOM     16  N   UNL     1      37.002 -18.888 -21.289  0.00  0.00    -0.111 NA
ATOM     17  C   UNL     1      35.774 -17.846 -22.704  0.00  0.00    +0.250 A 
ATOM     18  C   UNL     1      35.828 -19.468 -21.380  0.00  0.00    +0.227 A 
ATOM     19  C   UNL     1      35.312 -20.649 -20.679  0.00  0.00    +0.097 C 
ENDBRANCH  10  17
ENDBRANCH   1   7
BRANCH   4  22
ATOM     20  O   UNL     1      32.374  -9.420 -21.493  0.00  0.00    -0.270 OA
ATOM     21  N   UNL     1      32.509  -8.672 -23.718  0.00  0.00    -0.280 N 
ATOM     22  C   UNL     1      32.592  -9.614 -22.684  0.00  0.00    +0.249 C 
ATOM     23  H   UNL     1      32.718  -9.003 -24.622  0.00  0.00    +0.155 HD
BRANCH  21  24
ATOM     24  C   UNL     1      32.169  -7.321 -23.626  0.00  0.00    +0.051 C 
ATOM     25  C   UNL     1      32.696  -6.405 -24.534  0.00  0.00    +0.025 C 
ATOM     26  C   UNL     1      31.300  -6.889 -22.624  0.00  0.00    +0.015 C 
ATOM     27  C   UNL     1      32.356  -5.055 -24.442  0.00  0.00    +0.070 C 
ATOM     28  C   UNL     1      30.960  -5.540 -22.530  0.00  0.00    +0.002 C 
ATOM     29  C   UNL     1      31.488  -4.623 -23.439  0.00  0.00    +0.010 C 
BRANCH  27  31
ATOM     30  N   UNL     1      33.336  -3.352 -26.129  0.00  0.00    -0.191 NA
ATOM     31  C   UNL     1      32.897  -4.116 -25.372  0.00  0.00    +0.100 C 
ENDBRANCH  27  31
ENDBRANCH  21  24
ENDBRANCH   4  22
TORSDOF 5
ENDMDL
MODEL 3
REMARK VINA RESULT:     -11.2      1.199      2.052
REMARK  Name = 10200651
REMARK  5 active torsions:
REMARK  status: ('A' for Active; 'I' for Inactive)
REMARK    1  A    between atoms: C_1  and  C_7
REMARK    2  A    between atoms: C_4  and  C_22
REMARK    3  A    between atoms: C_10  and  C_17
REMARK    4  A    between atoms: N_21  and  C_24
REMARK    5  A    between atoms: C_27  and  C_31
REMARK                            x       y       z     vdW  Elec       q    Type
REMARK                         _______ _______ _______ _____ _____    ______ ____
ROOT
ATOM      1  C   UNL     1      35.253 -19.518 -21.831  0.00  0.00    -0.000 C 
ATOM      2  C   UNL     1      36.497 -19.780 -21.256  0.00  0.00    +0.000 C 
ATOM      3  C   UNL     1      34.110 -20.146 -21.337  0.00  0.00    +0.000 C 
ATOM      4  C   UNL     1      35.452 -21.278 -19.717  0.00  0.00    +0.054 C 
ATOM      5  C   UNL     1      36.598 -20.670 -20.187  0.00  0.00    +0.005 C 
ATOM      6  C   UNL     1      34.211 -21.036 -20.268  0.00  0.00    +0.005 C 
ENDROOT
BRANCH   1   7
ATOM      7  C   UNL     1      35.149 -18.595 -22.940  0.00  0.00    -0.004 C 
ATOM      8  C   UNL     1      35.198 -19.044 -24.261  0.00  0.00    -0.022 C 
ATOM      9  C   UNL     1      34.998 -17.232 -22.676  0.00  0.00    +0.004 C 
ATOM     10  C   UNL     1      34.897 -16.322 -23.728  0.00  0.00    +0.055 C 
ATOM     11  C   UNL     1      35.097 -18.135 -25.313  0.00  0.00    -0.004 C 
ATOM     12  C   UNL     1      34.945 -16.774 -25.048  0.00  0.00    +0.004 C 
ATOM     13  C   UNL     1      35.359 -20.494 -24.585  0.00  0.00    +0.031 C 
BRANCH  10  17
ATOM     14  O   UNL     1      34.542 -14.122 -24.539  0.00  0.00    -0.420 OA
ATOM     15  N   UNL     1      34.763 -14.269 -22.318  0.00  0.00    -0.107 NA
ATOM     16  N   UNL     1      34.564 -12.940 -22.640  0.00  0.00    -0.111 NA
ATOM     17  C   UNL     1      34.741 -14.915 -23.454  0.00  0.00    +0.250 A 
ATOM     18  C   UNL     1      34.442 -12.901 -23.946  0.00  0.00    +0.227 A 
ATOM     19  C   UNL     1      34.216 -11.753 -24.831  0.00  0.00    +0.097 C 
ENDBRANCH  10  17
ENDBRANCH   1   7
BRANCH   4  22
ATOM     20  O   UNL     1      34.768 -23.162 -18.538  0.00  0.00    -0.270 OA
ATOM     21  N   UNL     1      36.588 -21.957 -17.666  0.00  0.00    -0.280 N 
ATOM     22  C   UNL     1      35.559 -22.227 -18.579  0.00  0.00    +0.249 C 
ATOM     23  H   UNL     1      37.132 -21.157 -17.854  0.00  0.00    +0.155 HD
BRANCH  21  24
ATOM     24  C   UNL     1      36.940 -22.683 -16.527  0.00  0.00    +0.051 C 
ATOM     25  C   UNL     1      38.193 -23.287 -16.445  0.00  0.00    +0.025 C 
ATOM     26  C   UNL     1      36.036 -22.803 -15.472  0.00  0.00    +0.015 C 
ATOM     27  C   UNL     1      38.544 -24.013 -15.306  0.00  0.00    +0.070 C 
ATOM     28  C   UNL     1      36.386 -23.529 -14.333  0.00  0.00    +0.002 C 
ATOM     29  C   UNL     1      37.640 -24.134 -14.251  0.00  0.00    +0.010 C 
BRANCH  27  31
ATOM     30  N   UNL     1      40.873 -25.137 -15.151  0.00  0.00    -0.191 NA
ATOM     31  C   UNL     1      39.828 -24.633 -15.220  0.00  0.00    +0.100 C 
ENDBRANCH  27  31
ENDBRANCH  21  24
ENDBRANCH   4  22
TORSDOF 5
ENDMDL
MODEL 4
REMARK VINA RESULT:     -11.1      2.256     10.664
REMARK  Name = 10200651
REMARK  5 active torsions:
REMARK  status: ('A' for Active; 'I' for Inactive)
REMARK    1  A    between atoms: C_1  and  C_7
REMARK    2  A    between atoms: C_4  and  C_22
REMARK    3  A    between atoms: C_10  and  C_17
REMARK    4  A    between atoms: N_21  and  C_24
REMARK    5  A    between atoms: C_27  and  C_31
REMARK                            x       y       z     vdW  Elec       q    Type
REMARK                         _______ _______ _______ _____ _____    ______ ____
ROOT
ATOM      1  C   UNL     1      36.022 -22.326 -17.532  0.00  0.00    -0.000 C 
ATOM      2  C   UNL     1      35.085 -22.381 -18.563  0.00  0.00    +0.000 C 
ATOM      3  C   UNL     1      37.119 -21.470 -17.631  0.00  0.00    +0.000 C 
ATOM      4  C   UNL     1      36.337 -20.743 -19.767  0.00  0.00    +0.054 C 
ATOM      5  C   UNL     1      35.244 -21.581 -19.694  0.00  0.00    +0.005 C 
ATOM      6  C   UNL     1      37.278 -20.669 -18.762  0.00  0.00    +0.005 C 
ENDROOT
BRANCH   1   7
ATOM      7  C   UNL     1      35.857 -23.157 -16.359  0.00  0.00    -0.004 C 
ATOM      8  C   UNL     1      36.962 -23.661 -15.669  0.00  0.00    -0.022 C 
ATOM      9  C   UNL     1      34.567 -23.455 -15.915  0.00  0.00    +0.004 C 
ATOM     10  C   UNL     1      34.382 -24.255 -14.788  0.00  0.00    +0.055 C 
ATOM     11  C   UNL     1      36.776 -24.461 -14.542  0.00  0.00    -0.004 C 
ATOM     12  C   UNL     1      35.487 -24.757 -14.100  0.00  0.00    +0.004 C 
ATOM     13  C   UNL     1      38.358 -23.365 -16.112  0.00  0.00    +0.031 C 
BRANCH  10  17
ATOM     14  O   UNL     1      32.082 -24.547 -15.286  0.00  0.00    -0.420 OA
ATOM     15  N   UNL     1      32.613 -24.855 -13.135  0.00  0.00    -0.107 NA
ATOM     16  N   UNL     1      31.252 -25.056 -13.272  0.00  0.00    -0.111 NA
ATOM     17  C   UNL     1      33.049 -24.563 -14.332  0.00  0.00    +0.250 A 
ATOM     18  C   UNL     1      30.987 -24.865 -14.543  0.00  0.00    +0.227 A 
ATOM     19  C   UNL     1      29.706 -24.945 -15.255  0.00  0.00    +0.097 C 
ENDBRANCH  10  17
ENDBRANCH   1   7
BRANCH   4  22
ATOM     20  O   UNL     1      37.650 -19.633 -21.334  0.00  0.00    -0.270 OA
ATOM     21  N   UNL     1      35.318 -19.481 -21.592  0.00  0.00    -0.280 N 
ATOM     22  C   UNL     1      36.507 -19.890 -20.972  0.00  0.00    +0.249 C 
ATOM     23  H   UNL     1      34.483 -19.781 -21.163  0.00  0.00    +0.155 HD
BRANCH  21  24
ATOM     24  C   UNL     1      35.171 -18.705 -22.742  0.00  0.00    +0.051 C 
ATOM     25  C   UNL     1      35.189 -17.314 -22.651  0.00  0.00    +0.025 C 
ATOM     26  C   UNL     1      35.007 -19.321 -23.983  0.00  0.00    +0.015 C 
ATOM     27  C   UNL     1      35.042 -16.537 -23.801  0.00  0.00    +0.070 C 
ATOM     28  C   UNL     1      34.860 -18.546 -25.133  0.00  0.00    +0.002 C 
ATOM     29  C   UNL     1      34.877 -17.154 -25.042  0.00  0.00    +0.010 C 
BRANCH  27  31
ATOM     30  N   UNL     1      35.074 -13.952 -23.633  0.00  0.00    -0.191 NA
ATOM     31  C   UNL     1      35.060 -15.112 -23.709  0.00  0.00    +0.100 C 
ENDBRANCH  27  31
ENDBRANCH  21  24
ENDBRANCH   4  22
TORSDOF 5
ENDMDL
MODEL 5
REMARK VINA RESULT:     -11.0      2.411     11.023
REMARK  Name = 10200651
REMARK  5 active torsions:
REMARK  status: ('A' for Active; 'I' for Inactive)
REMARK    1  A    between atoms: C_1  and  C_7
REMARK    2  A    between atoms: C_4  and  C_22
REMARK    3  A    between atoms: C_10  and  C_17
REMARK    4  A    between atoms: N_21  and  C_24
REMARK    5  A    between atoms: C_27  and  C_31
REMARK                            x       y       z     vdW  Elec       q    Type
REMARK                         _______ _______ _______ _____ _____    ______ ____
ROOT
ATOM      1  C   UNL     1      35.575 -22.455 -17.759  0.00  0.00    -0.000 C 
ATOM      2  C   UNL     1      34.621 -22.363 -18.772  0.00  0.00    +0.000 C 
ATOM      3  C   UNL     1      36.763 -21.730 -17.851  0.00  0.00    +0.000 C 
ATOM      4  C   UNL     1      36.037 -20.839 -19.944  0.00  0.00    +0.054 C 
ATOM      5  C   UNL     1      34.854 -21.545 -19.878  0.00  0.00    +0.005 C 
ATOM      6  C   UNL     1      36.996 -20.913 -18.956  0.00  0.00    +0.005 C 
ENDROOT
BRANCH   1   7
ATOM      7  C   UNL     1      35.333 -23.304 -16.612  0.00  0.00    -0.004 C 
ATOM      8  C   UNL     1      34.035 -23.555 -16.162  0.00  0.00    -0.022 C 
ATOM      9  C   UNL     1      36.421 -23.877 -15.951  0.00  0.00    +0.004 C 
ATOM     10  C   UNL     1      36.213 -24.698 -14.842  0.00  0.00    +0.055 C 
ATOM     11  C   UNL     1      33.827 -24.376 -15.053  0.00  0.00    -0.004 C 
ATOM     12  C   UNL     1      34.915 -24.948 -14.394  0.00  0.00    +0.004 C 
ATOM     13  C   UNL     1      32.845 -22.960 -16.842  0.00  0.00    +0.031 C 
BRANCH  10  17
ATOM     14  O   UNL     1      38.518 -25.248 -14.829  0.00  0.00    -0.420 OA
ATOM     15  N   UNL     1      37.406 -25.866 -12.990  0.00  0.00    -0.107 NA
ATOM     16  N   UNL     1      38.726 -26.250 -12.840  0.00  0.00    -0.111 NA
ATOM     17  C   UNL     1      37.337 -25.289 -14.160  0.00  0.00    +0.250 A 
ATOM     18  C   UNL     1      39.337 -25.871 -13.937  0.00  0.00    +0.227 A 
ATOM     19  C   UNL     1      40.744 -26.020 -14.324  0.00  0.00    +0.097 C 
ENDBRANCH  10  17
ENDBRANCH   1   7
BRANCH   4  22
ATOM     20  O   UNL     1      37.452 -19.749 -21.434  0.00  0.00    -0.270 OA
ATOM     21  N   UNL     1      35.139 -19.499 -21.777  0.00  0.00    -0.280 N 
ATOM     22  C   UNL     1      36.286 -19.968 -21.123  0.00  0.00    +0.249 C 
ATOM     23  H   UNL     1      34.277 -19.775 -21.388  0.00  0.00    +0.155 HD
BRANCH  21  24
ATOM     24  C   UNL     1      35.067 -18.693 -22.914  0.00  0.00    +0.051 C 
ATOM     25  C   UNL     1      35.083 -17.305 -22.787  0.00  0.00    +0.025 C 
ATOM     26  C   UNL     1      34.980 -19.277 -24.178  0.00  0.00    +0.015 C 
ATOM     27  C   UNL     1      35.011 -16.499 -23.924  0.00  0.00    +0.070 C 
ATOM     28  C   UNL     1      34.907 -18.472 -25.315  0.00  0.00    +0.002 C 
ATOM     29  C   UNL     1      34.922 -17.083 -25.187  0.00  0.00    +0.010 C 
BRANCH  27  31
ATOM     30  N   UNL     1      35.038 -13.920 -23.689  0.00  0.00    -0.191 NA
ATOM     31  C   UNL     1      35.026 -15.077 -23.794  0.00  0.00    +0.100 C 
ENDBRANCH  27  31
ENDBRANCH  21  24
ENDBRANCH   4  22
TORSDOF 5
ENDMDL
MODEL 6
REMARK VINA RESULT:     -10.9      0.819      1.307
REMARK  Name = 10200651
REMARK  5 active torsions:
REMARK  status: ('A' for Active; 'I' for Inactive)
REMARK    1  A    between atoms: C_1  and  C_7
REMARK    2  A    between atoms: C_4  and  C_22
REMARK    3  A    between atoms: C_10  and  C_17
REMARK    4  A    between atoms: N_21  and  C_24
REMARK    5  A    between atoms: C_27  and  C_31
REMARK                            x       y       z     vdW  Elec       q    Type
REMARK                         _______ _______ _______ _____ _____    ______ ____
ROOT
ATOM      1  C   UNL     1      34.886 -19.724 -21.811  0.00  0.00    -0.000 C 
ATOM      2  C   UNL     1      36.050 -20.250 -21.252  0.00  0.00    +0.000 C 
ATOM      3  C   UNL     1      33.639 -20.149 -21.355  0.00  0.00    +0.000 C 
ATOM      4  C   UNL     1      34.721 -21.604 -19.802  0.00  0.00    +0.054 C 
ATOM      5  C   UNL     1      35.967 -21.201 -20.236  0.00  0.00    +0.005 C 
ATOM      6  C   UNL     1      33.555 -21.100 -20.339  0.00  0.00    +0.005 C 
ENDROOT
BRANCH   1   7
ATOM      7  C   UNL     1      34.973 -18.737 -22.866  0.00  0.00    -0.004 C 
ATOM      8  C   UNL     1      35.185 -19.115 -24.193  0.00  0.00    -0.022 C 
ATOM      9  C   UNL     1      34.841 -17.385 -22.542  0.00  0.00    +0.004 C 
ATOM     10  C   UNL     1      34.922 -16.415 -23.541  0.00  0.00    +0.055 C 
ATOM     11  C   UNL     1      35.267 -18.145 -25.192  0.00  0.00    -0.004 C 
ATOM     12  C   UNL     1      35.134 -16.795 -24.867  0.00  0.00    +0.004 C 
ATOM     13  C   UNL     1      35.332 -20.551 -24.580  0.00  0.00    +0.031 C 
BRANCH  10  17
ATOM     14  O   UNL     1      34.527 -14.186 -24.245  0.00  0.00    -0.420 OA
ATOM     15  N   UNL     1      34.875 -14.417 -22.048  0.00  0.00    -0.107 NA
ATOM     16  N   UNL     1      34.662 -13.076 -22.308  0.00  0.00    -0.111 NA
ATOM     17  C   UNL     1      34.786 -15.019 -23.205  0.00  0.00    +0.250 A 
ATOM     18  C   UNL     1      34.464 -12.988 -23.602  0.00  0.00    +0.227 A 
ATOM     19  C   UNL     1      34.190 -11.807 -24.428  0.00  0.00    +0.097 C 
ENDBRANCH  10  17
ENDBRANCH   1   7
BRANCH   4  22
ATOM     20  O   UNL     1      33.993 -23.641 -18.946  0.00  0.00    -0.270 OA
ATOM     21  N   UNL     1      35.320 -22.302 -17.541  0.00  0.00    -0.280 N 
ATOM     22  C   UNL     1      34.632 -22.619 -18.720  0.00  0.00    +0.249 C 
ATOM     23  H   UNL     1      35.782 -21.432 -17.532  0.00  0.00    +0.155 HD
BRANCH  21  24
ATOM     24  C   UNL     1      35.433 -23.067 -16.379  0.00  0.00    +0.051 C 
ATOM     25  C   UNL     1      34.287 -23.470 -15.695  0.00  0.00    +0.025 C 
ATOM     26  C   UNL     1      36.693 -23.429 -15.903  0.00  0.00    +0.015 C 
ATOM     27  C   UNL     1      34.400 -24.235 -14.534  0.00  0.00    +0.070 C 
ATOM     28  C   UNL     1      36.807 -24.193 -14.742  0.00  0.00    +0.002 C 
ATOM     29  C   UNL     1      35.661 -24.596 -14.057  0.00  0.00    +0.010 C 
BRANCH  27  31
ATOM     30  N   UNL     1      32.272 -24.984 -13.262  0.00  0.00    -0.191 NA
ATOM     31  C   UNL     1      33.226 -24.648 -13.832  0.00  0.00    +0.100 C 
ENDBRANCH  27  31
ENDBRANCH  21  24
ENDBRANCH   4  22
TORSDOF 5
ENDMDL
MODEL 7
REMARK VINA RESULT:     -10.7      3.895      4.760
REMARK  Name = 10200651
REMARK  5 active torsions:
REMARK  status: ('A' for Active; 'I' for Inactive)
REMARK    1  A    between atoms: C_1  and  C_7
REMARK    2  A    between atoms: C_4  and  C_22
REMARK    3  A    between atoms: C_10  and  C_17
REMARK    4  A    between atoms: N_21  and  C_24
REMARK    5  A    between atoms: C_27  and  C_31
REMARK                            x       y       z     vdW  Elec       q    Type
REMARK                         _______ _______ _______ _____ _____    ______ ____
ROOT
ATOM      1  C   UNL     1      34.908 -20.382 -20.767  0.00  0.00    -0.000 C 
ATOM      2  C   UNL     1      33.528 -20.249 -20.616  0.00  0.00    +0.000 C 
ATOM      3  C   UNL     1      35.599 -21.357 -20.047  0.00  0.00    +0.000 C 
ATOM      4  C   UNL     1      33.544 -22.048 -19.045  0.00  0.00    +0.054 C 
ATOM      5  C   UNL     1      32.838 -21.092 -19.746  0.00  0.00    +0.005 C 
ATOM      6  C   UNL     1      34.908 -22.199 -19.176  0.00  0.00    +0.005 C 
ENDROOT
BRANCH   1   7
ATOM      7  C   UNL     1      35.624 -19.508 -21.671  0.00  0.00    -0.004 C 
ATOM      8  C   UNL     1      36.995 -19.286 -21.527  0.00  0.00    -0.022 C 
ATOM      9  C   UNL     1      34.924 -18.878 -22.702  0.00  0.00    +0.004 C 
ATOM     10  C   UNL     1      35.592 -18.030 -23.586  0.00  0.00    +0.055 C 
ATOM     11  C   UNL     1      37.663 -18.437 -22.410  0.00  0.00    -0.004 C 
ATOM     12  C   UNL     1      36.962 -17.810 -23.440  0.00  0.00    +0.004 C 
ATOM     13  C   UNL     1      37.780 -19.940 -20.436  0.00  0.00    +0.031 C 
BRANCH  10  17
ATOM     14  O   UNL     1      34.734 -16.034 -24.535  0.00  0.00    -0.420 OA
ATOM     15  N   UNL     1      34.308 -17.883 -25.719  0.00  0.00    -0.107 NA
ATOM     16  N   UNL     1      33.751 -16.809 -26.389  0.00  0.00    -0.111 NA
ATOM     17  C   UNL     1      34.867 -17.380 -24.650  0.00  0.00    +0.250 A 
ATOM     18  C   UNL     1      34.024 -15.751 -25.661  0.00  0.00    +0.227 A 
ATOM     19  C   UNL     1      33.678 -14.344 -25.889  0.00  0.00    +0.097 C 
ENDBRANCH  10  17
ENDBRANCH   1   7
BRANCH   4  22
ATOM     20  O   UNL     1      33.325 -24.020 -17.833  0.00  0.00    -0.270 OA
ATOM     21  N   UNL     1      31.589 -22.447 -17.638  0.00  0.00    -0.280 N 
ATOM     22  C   UNL     1      32.808 -22.945 -18.117  0.00  0.00    +0.249 C 
ATOM     23  H   UNL     1      31.325 -21.559 -17.974  0.00  0.00    +0.155 HD
BRANCH  21  24
ATOM     24  C   UNL     1      30.705 -23.051 -16.744  0.00  0.00    +0.051 C 
ATOM     25  C   UNL     1      29.383 -22.615 -16.668  0.00  0.00    +0.025 C 
ATOM     26  C   UNL     1      31.143 -24.092 -15.926  0.00  0.00    +0.015 C 
ATOM     27  C   UNL     1      28.498 -23.219 -15.774  0.00  0.00    +0.070 C 
ATOM     28  C   UNL     1      30.261 -24.697 -15.032  0.00  0.00    +0.002 C 
ATOM     29  C   UNL     1      28.938 -24.259 -14.956  0.00  0.00    +0.010 C 
BRANCH  27  31
ATOM     30  N   UNL     1      26.042 -22.408 -15.632  0.00  0.00    -0.191 NA
ATOM     31  C   UNL     1      27.144 -22.772 -15.696  0.00  0.00    +0.100 C 
ENDBRANCH  27  31
ENDBRANCH  21  24
ENDBRANCH   4  22
TORSDOF 5
ENDMDL
MODEL 8
REMARK VINA RESULT:     -10.6      3.762     12.101
REMARK  Name = 10200651
REMARK  5 active torsions:
REMARK  status: ('A' for Active; 'I' for Inactive)
REMARK    1  A    between atoms: C_1  and  C_7
REMARK    2  A    between atoms: C_4  and  C_22
REMARK    3  A    between atoms: C_10  and  C_17
REMARK    4  A    between atoms: N_21  and  C_24
REMARK    5  A    between atoms: C_27  and  C_31
REMARK                            x       y       z     vdW  Elec       q    Type
REMARK                         _______ _______ _______ _____ _____    ______ ____
ROOT
ATOM      1  C   UNL     1      34.137 -14.423 -23.653  0.00  0.00    -0.000 C 
ATOM      2  C   UNL     1      33.358 -14.110 -22.539  0.00  0.00    +0.000 C 
ATOM      3  C   UNL     1      34.524 -13.419 -24.539  0.00  0.00    +0.000 C 
ATOM      4  C   UNL     1      33.363 -11.816 -23.203  0.00  0.00    +0.054 C 
ATOM      5  C   UNL     1      32.966 -12.791 -22.311  0.00  0.00    +0.005 C 
ATOM      6  C   UNL     1      34.132 -12.100 -24.311  0.00  0.00    +0.005 C 
ENDROOT
BRANCH   1   7
ATOM      7  C   UNL     1      34.543 -15.792 -23.889  0.00  0.00    -0.004 C 
ATOM      8  C   UNL     1      34.344 -16.400 -25.130  0.00  0.00    -0.022 C 
ATOM      9  C   UNL     1      35.143 -16.510 -22.853  0.00  0.00    +0.004 C 
ATOM     10  C   UNL     1      35.542 -17.831 -23.055  0.00  0.00    +0.055 C 
ATOM     11  C   UNL     1      34.743 -17.722 -25.333  0.00  0.00    -0.004 C 
ATOM     12  C   UNL     1      35.343 -18.436 -24.297  0.00  0.00    +0.004 C 
ATOM     13  C   UNL     1      33.706 -15.666 -26.264  0.00  0.00    +0.031 C 
BRANCH  10  17
ATOM     14  O   UNL     1      35.558 -19.742 -21.652  0.00  0.00    -0.420 OA
ATOM     15  N   UNL     1      37.219 -18.294 -21.268  0.00  0.00    -0.107 NA
ATOM     16  N   UNL     1      37.357 -19.347 -20.383  0.00  0.00    -0.111 NA
ATOM     17  C   UNL     1      36.161 -18.571 -21.983  0.00  0.00    +0.250 A 
ATOM     18  C   UNL     1      36.365 -20.166 -20.642  0.00  0.00    +0.227 A 
ATOM     19  C   UNL     1      36.018 -21.444 -20.010  0.00  0.00    +0.097 C 
ENDBRANCH  10  17
ENDBRANCH   1   7
BRANCH   4  22
ATOM     20  O   UNL     1      32.079 -10.210 -22.115  0.00  0.00    -0.270 OA
ATOM     21  N   UNL     1      33.613  -9.444 -23.723  0.00  0.00    -0.280 N 
ATOM     22  C   UNL     1      32.944 -10.410 -22.960  0.00  0.00    +0.249 C 
ATOM     23  H   UNL     1      34.284  -9.784 -24.359  0.00  0.00    +0.155 HD
BRANCH  21  24
ATOM     24  C   UNL     1      33.449  -8.058 -23.690  0.00  0.00    +0.051 C 
ATOM     25  C   UNL     1      32.336  -7.502 -23.060  0.00  0.00    +0.025 C 
ATOM     26  C   UNL     1      34.398  -7.230 -24.288  0.00  0.00    +0.015 C 
ATOM     27  C   UNL     1      32.172  -6.117 -23.028  0.00  0.00    +0.070 C 
ATOM     28  C   UNL     1      34.235  -5.845 -24.257  0.00  0.00    +0.002 C 
ATOM     29  C   UNL     1      33.121  -5.289 -23.627  0.00  0.00    +0.010 C 
BRANCH  27  31
ATOM     30  N   UNL     1      30.105  -5.084 -21.857  0.00  0.00    -0.191 NA
ATOM     31  C   UNL     1      31.032  -5.547 -22.382  0.00  0.00    +0.100 C 
ENDBRANCH  27  31
ENDBRANCH  21  24
ENDBRANCH   4  22
TORSDOF 5
ENDMDL
MODEL 9
REMARK VINA RESULT:     -10.4      1.729      2.432
REMARK  Name = 10200651
REMARK  5 active torsions:
REMARK  status: ('A' for Active; 'I' for Inactive)
REMARK    1  A    between atoms: C_1  and  C_7
REMARK    2  A    between atoms: C_4  and  C_22
REMARK    3  A    between atoms: C_10  and  C_17
REMARK    4  A    between atoms: N_21  and  C_24
REMARK    5  A    between atoms: C_27  and  C_31
REMARK                            x       y       z     vdW  Elec       q    Type
REMARK                         _______ _______ _______ _____ _____    ______ ____
ROOT
ATOM      1  C   UNL     1      34.764 -19.660 -21.754  0.00  0.00    -0.000 C 
ATOM      2  C   UNL     1      33.490 -20.057 -21.346  0.00  0.00    +0.000 C 
ATOM      3  C   UNL     1      35.892 -20.164 -21.108  0.00  0.00    +0.000 C 
ATOM      4  C   UNL     1      34.478 -21.442 -19.670  0.00  0.00    +0.054 C 
ATOM      5  C   UNL     1      33.345 -20.959 -20.292  0.00  0.00    +0.005 C 
ATOM      6  C   UNL     1      35.747 -21.066 -20.054  0.00  0.00    +0.005 C 
ENDROOT
BRANCH   1   7
ATOM      7  C   UNL     1      34.913 -18.725 -22.848  0.00  0.00    -0.004 C 
ATOM      8  C   UNL     1      35.187 -19.167 -24.144  0.00  0.00    -0.022 C 
ATOM      9  C   UNL     1      34.780 -17.358 -22.595  0.00  0.00    +0.004 C 
ATOM     10  C   UNL     1      34.922 -16.436 -23.632  0.00  0.00    +0.055 C 
ATOM     11  C   UNL     1      35.329 -18.245 -25.181  0.00  0.00    -0.004 C 
ATOM     12  C   UNL     1      35.195 -16.881 -24.926  0.00  0.00    +0.004 C 
ATOM     13  C   UNL     1      35.337 -20.620 -24.456  0.00  0.00    +0.031 C 
BRANCH  10  17
ATOM     14  O   UNL     1      34.546 -14.245 -24.454  0.00  0.00    -0.420 OA
ATOM     15  N   UNL     1      34.854 -14.367 -22.241  0.00  0.00    -0.107 NA
ATOM     16  N   UNL     1      34.650 -13.040 -22.571  0.00  0.00    -0.111 NA
ATOM     17  C   UNL     1      34.784 -15.025 -23.368  0.00  0.00    +0.250 A 
ATOM     18  C   UNL     1      34.476 -13.016 -23.872  0.00  0.00    +0.227 A 
ATOM     19  C   UNL     1      34.221 -11.877 -24.761  0.00  0.00    +0.097 C 
ENDBRANCH  10  17
ENDBRANCH   1   7
BRANCH   4  22
ATOM     20  O   UNL     1      35.281 -23.115 -18.268  0.00  0.00    -0.270 OA
ATOM     21  N   UNL     1      33.081 -22.374 -17.898  0.00  0.00    -0.280 N 
ATOM     22  C   UNL     1      34.323 -22.402 -18.546  0.00  0.00    +0.249 C 
ATOM     23  H   UNL     1      32.422 -21.735 -18.256  0.00  0.00    +0.155 HD
BRANCH  21  24
ATOM     24  C   UNL     1      32.664 -23.136 -16.806  0.00  0.00    +0.051 C 
ATOM     25  C   UNL     1      33.526 -23.344 -15.730  0.00  0.00    +0.025 C 
ATOM     26  C   UNL     1      31.384 -23.690 -16.791  0.00  0.00    +0.015 C 
ATOM     27  C   UNL     1      33.109 -24.106 -14.638  0.00  0.00    +0.070 C 
ATOM     28  C   UNL     1      30.966 -24.453 -15.700  0.00  0.00    +0.002 C 
ATOM     29  C   UNL     1      31.829 -24.661 -14.624  0.00  0.00    +0.010 C 
BRANCH  27  31
ATOM     30  N   UNL     1      34.709 -24.493 -12.639  0.00  0.00    -0.191 NA
ATOM     31  C   UNL     1      33.991 -24.319 -13.535  0.00  0.00    +0.100 C 
ENDBRANCH  27  31
ENDBRANCH  21  24
ENDBRANCH   4  22
TORSDOF 5
ENDMDL
