MODEL 1
REMARK VINA RESULT:     -12.4      0.000      0.000
REMARK  Name = 448890
REMARK  6 active torsions:
REMARK  status: ('A' for Active; 'I' for Inactive)
REMARK    1  A    between atoms: C_1  and  C_2
REMARK    2  A    between atoms: C_1  and  C_17
REMARK    3  A    between atoms: C_2  and  C_3
REMARK    4  A    between atoms: C_3  and  N_4
REMARK    5  A    between atoms: C_8  and  C_11
REMARK    6  A    between atoms: C_17  and  N_21
REMARK                            x       y       z     vdW  Elec       q    Type
REMARK                         _______ _______ _______ _____ _____    ______ ____
ROOT
ATOM      1  C   UNL     1      33.547 -14.596 -25.212  0.00  0.00    +0.022 C 
ENDROOT
BRANCH   1   2
ATOM      2  C   UNL     1      34.055 -16.016 -25.484  0.00  0.00    -0.021 C 
BRANCH   2   3
ATOM      3  C   UNL     1      35.521 -16.163 -25.080  0.00  0.00    -0.077 C 
BRANCH   3   4
ATOM      4  N   UNL     1      35.670 -17.231 -24.093  0.00  0.00    +0.390 N 
ATOM      5  C   UNL     1      35.366 -16.749 -22.742  0.00  0.00    -0.072 C 
ATOM      6  C   UNL     1      34.819 -18.380 -24.437  0.00  0.00    -0.051 C 
ATOM      7  C   UNL     1      35.691 -17.842 -21.713  0.00  0.00    +0.003 C 
ATOM      8  C   UNL     1      35.127 -19.193 -22.089  0.00  0.00    -0.031 C 
ATOM      9  C   UNL     1      34.727 -19.422 -23.355  0.00  0.00    -0.053 C 
ATOM     10  H   UNL     1      36.643 -17.536 -24.106  0.00  0.00    -0.079 HD
BRANCH   8  11
ATOM     11  C   UNL     1      35.039 -20.236 -21.039  0.00  0.00    -0.004 C 
ATOM     12  C   UNL     1      36.202 -20.773 -20.484  0.00  0.00    -0.000 C 
ATOM     13  C   UNL     1      33.791 -20.685 -20.600  0.00  0.00    -0.000 C 
ATOM     14  C   UNL     1      36.119 -21.754 -19.496  0.00  0.00    -0.000 C 
ATOM     15  C   UNL     1      33.707 -21.666 -19.612  0.00  0.00    -0.000 C 
ATOM     16  C   UNL     1      34.871 -22.201 -19.060  0.00  0.00    -0.000 C 
ENDBRANCH   8  11
ENDBRANCH   3   4
ENDBRANCH   2   3
ENDBRANCH   1   2
BRANCH   1  17
ATOM     17  C   UNL     1      34.457 -13.819 -24.265  0.00  0.00    +0.110 C 
BRANCH  17  21
ATOM     18  F   UNL     1      31.278 -10.256 -20.404  0.00  0.00    -0.204 F 
ATOM     19  O   UNL     1      34.549 -11.373 -25.657  0.00  0.00    -0.246 OA
ATOM     20  O   UNL     1      32.134  -9.115 -22.496  0.00  0.00    -0.267 OA
ATOM     21  N   UNL     1      33.842 -12.581 -23.793  0.00  0.00    -0.281 N 
ATOM     22  N   UNL     1      33.343 -10.284 -24.059  0.00  0.00    -0.274 N 
ATOM     23  C   UNL     1      33.140 -12.581 -22.548  0.00  0.00    +0.071 A 
ATOM     24  C   UNL     1      33.956 -11.424 -24.576  0.00  0.00    +0.330 A 
ATOM     25  C   UNL     1      32.545 -11.404 -22.079  0.00  0.00    +0.099 A 
ATOM     26  C   UNL     1      33.024 -13.739 -21.759  0.00  0.00    +0.018 C 
ATOM     27  C   UNL     1      32.641 -10.167 -22.872  0.00  0.00    +0.265 A 
ATOM     28  C   UNL     1      31.852 -11.378 -20.860  0.00  0.00    +0.146 C 
ATOM     29  C   UNL     1      32.333 -13.715 -20.544  0.00  0.00    +0.004 C 
ATOM     30  C   UNL     1      31.748 -12.536 -20.095  0.00  0.00    +0.030 C 
ATOM     31  H   UNL     1      33.418  -9.466 -24.603  0.00  0.00    +0.173 HD
ENDBRANCH  17  21
ENDBRANCH   1  17
TORSDOF 6
ENDMDL
MODEL 2
REMARK VINA RESULT:     -12.1      0.275      1.305
REMARK  Name = 448890
REMARK  6 active torsions:
REMARK  status: ('A' for Active; 'I' for Inactive)
REMARK    1  A    between atoms: C_1  and  C_2
REMARK    2  A    between atoms: C_1  and  C_17
REMARK    3  A    between atoms: C_2  and  C_3
REMARK    4  A    between atoms: C_3  and  N_4
REMARK    5  A    between atoms: C_8  and  C_11
REMARK    6  A    between atoms: C_17  and  N_21
REMARK                            x       y       z     vdW  Elec       q    Type
REMARK                         _______ _______ _______ _____ _____    ______ ____
ROOT
ATOM      1  C   UNL     1      33.523 -14.404 -25.371  0.00  0.00    +0.022 C 
ENDROOT
BRANCH   1   2
ATOM      2  C   UNL     1      34.026 -15.804 -25.740  0.00  0.00    -0.021 C 
BRANCH   2   3
ATOM      3  C   UNL     1      35.266 -16.175 -24.927  0.00  0.00    -0.077 C 
BRANCH   3   4
ATOM      4  N   UNL     1      34.924 -17.160 -23.903  0.00  0.00    +0.390 N 
ATOM      5  C   UNL     1      35.203 -18.522 -24.367  0.00  0.00    -0.072 C 
ATOM      6  C   UNL     1      35.644 -16.881 -22.651  0.00  0.00    -0.051 C 
ATOM      7  C   UNL     1      34.681 -19.540 -23.342  0.00  0.00    +0.003 C 
ATOM      8  C   UNL     1      35.092 -19.213 -21.924  0.00  0.00    -0.031 C 
ATOM      9  C   UNL     1      35.537 -17.977 -21.625  0.00  0.00    -0.053 C 
ATOM     10  H   UNL     1      33.923 -17.089 -23.722  0.00  0.00    -0.079 HD
BRANCH   8  11
ATOM     11  C   UNL     1      34.985 -20.277 -20.897  0.00  0.00    -0.004 C 
ATOM     12  C   UNL     1      33.730 -20.735 -20.491  0.00  0.00    -0.000 C 
ATOM     13  C   UNL     1      36.139 -20.825 -20.333  0.00  0.00    -0.000 C 
ATOM     14  C   UNL     1      33.629 -21.736 -19.524  0.00  0.00    -0.000 C 
ATOM     15  C   UNL     1      36.038 -21.826 -19.366  0.00  0.00    -0.000 C 
ATOM     16  C   UNL     1      34.783 -22.282 -18.962  0.00  0.00    -0.000 C 
ENDBRANCH   8  11
ENDBRANCH   3   4
ENDBRANCH   2   3
ENDBRANCH   1   2
BRANCH   1  17
ATOM     17  C   UNL     1      34.399 -13.723 -24.324  0.00  0.00    +0.110 C 
BRANCH  17  21
ATOM     18  F   UNL     1      31.255 -10.515 -20.136  0.00  0.00    -0.204 F 
ATOM     19  O   UNL     1      34.368 -11.193 -25.557  0.00  0.00    -0.246 OA
ATOM     20  O   UNL     1      32.000  -9.218 -22.178  0.00  0.00    -0.267 OA
ATOM     21  N   UNL     1      33.765 -12.538 -23.752  0.00  0.00    -0.281 N 
ATOM     22  N   UNL     1      33.187 -10.246 -23.854  0.00  0.00    -0.274 N 
ATOM     23  C   UNL     1      33.108 -12.640 -22.486  0.00  0.00    +0.071 A 
ATOM     24  C   UNL     1      33.815 -11.331 -24.462  0.00  0.00    +0.330 A 
ATOM     25  C   UNL     1      32.495 -11.514 -21.923  0.00  0.00    +0.099 A 
ATOM     26  C   UNL     1      33.055 -13.848 -21.770  0.00  0.00    +0.018 C 
ATOM     27  C   UNL     1      32.526 -10.227 -22.638  0.00  0.00    +0.265 A 
ATOM     28  C   UNL     1      31.846 -11.588 -20.682  0.00  0.00    +0.146 C 
ATOM     29  C   UNL     1      32.408 -13.923 -20.533  0.00  0.00    +0.004 C 
ATOM     30  C   UNL     1      31.804 -12.794 -19.990  0.00  0.00    +0.030 C 
ATOM     31  H   UNL     1      33.218  -9.394 -24.345  0.00  0.00    +0.173 HD
ENDBRANCH  17  21
ENDBRANCH   1  17
TORSDOF 6
ENDMDL
MODEL 3
REMARK VINA RESULT:     -11.4      7.888     12.418
REMARK  Name = 448890
REMARK  6 active torsions:
REMARK  status: ('A' for Active; 'I' for Inactive)
REMARK    1  A    between atoms: C_1  and  C_2
REMARK    2  A    between atoms: C_1  and  C_17
REMARK    3  A    between atoms: C_2  and  C_3
REMARK    4  A    between atoms: C_3  and  N_4
REMARK    5  A    between atoms: C_8  and  C_11
REMARK    6  A    between atoms: C_17  and  N_21
REMARK                            x       y       z     vdW  Elec       q    Type
REMARK                         _______ _______ _______ _____ _____    ______ ____
ROOT
ATOM      1  C   UNL     1      33.585 -23.601 -16.287  0.00  0.00    +0.022 C 
ENDROOT
BRANCH   1   2
ATOM      2  C   UNL     1      33.601 -23.066 -17.723  0.00  0.00    -0.021 C 
BRANCH   2   3
ATOM      3  C   UNL     1      35.031 -22.817 -18.201  0.00  0.00    -0.077 C 
BRANCH   3   4
ATOM      4  N   UNL     1      35.076 -21.643 -19.072  0.00  0.00    +0.390 N 
ATOM      5  C   UNL     1      36.265 -21.667 -19.929  0.00  0.00    -0.072 C 
ATOM      6  C   UNL     1      33.853 -21.549 -19.883  0.00  0.00    -0.051 C 
ATOM      7  C   UNL     1      36.373 -20.347 -20.708  0.00  0.00    +0.003 C 
ATOM      8  C   UNL     1      35.074 -19.944 -21.368  0.00  0.00    -0.031 C 
ATOM      9  C   UNL     1      33.918 -20.513 -20.973  0.00  0.00    -0.053 C 
ATOM     10  H   UNL     1      35.133 -20.815 -18.479  0.00  0.00    -0.079 HD
BRANCH   8  11
ATOM     11  C   UNL     1      35.117 -18.917 -22.437  0.00  0.00    -0.004 C 
ATOM     12  C   UNL     1      35.550 -17.622 -22.148  0.00  0.00    -0.000 C 
ATOM     13  C   UNL     1      34.724 -19.243 -23.737  0.00  0.00    -0.000 C 
ATOM     14  C   UNL     1      35.591 -16.656 -23.154  0.00  0.00    -0.000 C 
ATOM     15  C   UNL     1      34.764 -18.277 -24.743  0.00  0.00    -0.000 C 
ATOM     16  C   UNL     1      35.197 -16.984 -24.452  0.00  0.00    -0.000 C 
ENDBRANCH   8  11
ENDBRANCH   3   4
ENDBRANCH   2   3
ENDBRANCH   1   2
BRANCH   1  17
ATOM     17  C   UNL     1      34.559 -22.861 -15.375  0.00  0.00    +0.110 C 
BRANCH  17  21
ATOM     18  F   UNL     1      39.230 -26.105 -13.059  0.00  0.00    -0.204 F 
ATOM     19  O   UNL     1      33.305 -24.001 -13.127  0.00  0.00    -0.246 OA
ATOM     20  O   UNL     1      37.054 -26.247 -11.775  0.00  0.00    -0.267 OA
ATOM     21  N   UNL     1      35.222 -23.754 -14.429  0.00  0.00    -0.281 N 
ATOM     22  N   UNL     1      35.193 -25.104 -12.487  0.00  0.00    -0.274 N 
ATOM     23  C   UNL     1      36.597 -24.090 -14.632  0.00  0.00    +0.071 A 
ATOM     24  C   UNL     1      34.492 -24.260 -13.344  0.00  0.00    +0.330 A 
ATOM     25  C   UNL     1      37.250 -24.944 -13.735  0.00  0.00    +0.099 A 
ATOM     26  C   UNL     1      37.334 -23.585 -15.717  0.00  0.00    +0.018 C 
ATOM     27  C   UNL     1      36.517 -25.497 -12.583  0.00  0.00    +0.265 A 
ATOM     28  C   UNL     1      38.597 -25.287 -13.912  0.00  0.00    +0.146 C 
ATOM     29  C   UNL     1      38.677 -23.927 -15.896  0.00  0.00    +0.004 C 
ATOM     30  C   UNL     1      39.309 -24.777 -14.995  0.00  0.00    +0.030 C 
ATOM     31  H   UNL     1      34.688 -25.464 -11.721  0.00  0.00    +0.173 HD
ENDBRANCH  17  21
ENDBRANCH   1  17
TORSDOF 6
ENDMDL
MODEL 4
REMARK VINA RESULT:     -11.4      3.277      9.639
REMARK  Name = 448890
REMARK  6 active torsions:
REMARK  status: ('A' for Active; 'I' for Inactive)
REMARK    1  A    between atoms: C_1  and  C_2
REMARK    2  A    between atoms: C_1  and  C_17
REMARK    3  A    between atoms: C_2  and  C_3
REMARK    4  A    between atoms: C_3  and  N_4
REMARK    5  A    between atoms: C_8  and  C_11
REMARK    6  A    between atoms: C_17  and  N_21
REMARK                            x       y       z     vdW  Elec       q    Type
REMARK                         _______ _______ _______ _____ _____    ______ ____
ROOT
ATOM      1  C   UNL     1      33.638 -14.166 -20.649  0.00  0.00    +0.022 C 
ENDROOT
BRANCH   1   2
ATOM      2  C   UNL     1      32.309 -13.484 -20.993  0.00  0.00    -0.021 C 
BRANCH   2   3
ATOM      3  C   UNL     1      32.049 -12.291 -20.073  0.00  0.00    -0.077 C 
BRANCH   3   4
ATOM      4  N   UNL     1      32.327 -11.040 -20.775  0.00  0.00    +0.390 N 
ATOM      5  C   UNL     1      31.418 -10.859 -21.912  0.00  0.00    -0.072 C 
ATOM      6  C   UNL     1      32.240  -9.896 -19.855  0.00  0.00    -0.051 C 
ATOM      7  C   UNL     1      31.841  -9.626 -22.725  0.00  0.00    +0.003 C 
ATOM      8  C   UNL     1      32.094  -8.409 -21.864  0.00  0.00    -0.031 C 
ATOM      9  C   UNL     1      32.275  -8.555 -20.537  0.00  0.00    -0.053 C 
ATOM     10  H   UNL     1      33.279 -11.089 -21.139  0.00  0.00    -0.079 HD
BRANCH   8  11
ATOM     11  C   UNL     1      32.142  -7.081 -22.520  0.00  0.00    -0.004 C 
ATOM     12  C   UNL     1      31.199  -6.104 -22.195  0.00  0.00    -0.000 C 
ATOM     13  C   UNL     1      33.133  -6.801 -23.465  0.00  0.00    -0.000 C 
ATOM     14  C   UNL     1      31.245  -4.854 -22.813  0.00  0.00    -0.000 C 
ATOM     15  C   UNL     1      33.178  -5.551 -24.082  0.00  0.00    -0.000 C 
ATOM     16  C   UNL     1      32.234  -4.577 -23.756  0.00  0.00    -0.000 C 
ENDBRANCH   8  11
ENDBRANCH   3   4
ENDBRANCH   2   3
ENDBRANCH   1   2
BRANCH   1  17
ATOM     17  C   UNL     1      34.754 -13.800 -21.622  0.00  0.00    +0.110 C 
BRANCH  17  21
ATOM     18  F   UNL     1      34.829 -18.277 -25.824  0.00  0.00    -0.204 F 
ATOM     19  O   UNL     1      33.771 -12.399 -23.858  0.00  0.00    -0.246 OA
ATOM     20  O   UNL     1      34.001 -16.027 -26.634  0.00  0.00    -0.267 OA
ATOM     21  N   UNL     1      34.557 -14.393 -22.942  0.00  0.00    -0.281 N 
ATOM     22  N   UNL     1      33.901 -14.230 -25.209  0.00  0.00    -0.274 N 
ATOM     23  C   UNL     1      34.877 -15.772 -23.142  0.00  0.00    +0.071 A 
ATOM     24  C   UNL     1      34.060 -13.593 -23.980  0.00  0.00    +0.330 A 
ATOM     25  C   UNL     1      34.695 -16.358 -24.400  0.00  0.00    +0.099 A 
ATOM     26  C   UNL     1      35.375 -16.579 -22.105  0.00  0.00    +0.018 C 
ATOM     27  C   UNL     1      34.175 -15.551 -25.518  0.00  0.00    +0.265 A 
ATOM     28  C   UNL     1      35.000 -17.708 -24.622  0.00  0.00    +0.146 C 
ATOM     29  C   UNL     1      35.680 -17.925 -22.323  0.00  0.00    +0.004 C 
ATOM     30  C   UNL     1      35.493 -18.490 -23.581  0.00  0.00    +0.030 C 
ATOM     31  H   UNL     1      33.552 -13.675 -25.944  0.00  0.00    +0.173 HD
ENDBRANCH  17  21
ENDBRANCH   1  17
TORSDOF 6
ENDMDL
MODEL 5
REMARK VINA RESULT:     -11.4      1.812      2.695
REMARK  Name = 448890
REMARK  6 active torsions:
REMARK  status: ('A' for Active; 'I' for Inactive)
REMARK    1  A    between atoms: C_1  and  C_2
REMARK    2  A    between atoms: C_1  and  C_17
REMARK    3  A    between atoms: C_2  and  C_3
REMARK    4  A    between atoms: C_3  and  N_4
REMARK    5  A    between atoms: C_8  and  C_11
REMARK    6  A    between atoms: C_17  and  N_21
REMARK                            x       y       z     vdW  Elec       q    Type
REMARK                         _______ _______ _______ _____ _____    ______ ____
ROOT
ATOM      1  C   UNL     1      34.091 -13.654 -23.622  0.00  0.00    +0.022 C 
ENDROOT
BRANCH   1   2
ATOM      2  C   UNL     1      34.107 -14.975 -24.399  0.00  0.00    -0.021 C 
BRANCH   2   3
ATOM      3  C   UNL     1      35.528 -15.524 -24.523  0.00  0.00    -0.077 C 
BRANCH   3   4
ATOM      4  N   UNL     1      35.700 -16.685 -23.653  0.00  0.00    +0.390 N 
ATOM      5  C   UNL     1      35.248 -16.395 -22.289  0.00  0.00    -0.072 C 
ATOM      6  C   UNL     1      34.991 -17.853 -24.197  0.00  0.00    -0.051 C 
ATOM      7  C   UNL     1      35.594 -17.572 -21.364  0.00  0.00    +0.003 C 
ATOM      8  C   UNL     1      35.191 -18.912 -21.937  0.00  0.00    -0.031 C 
ATOM      9  C   UNL     1      34.914 -19.021 -23.251  0.00  0.00    -0.053 C 
ATOM     10  H   UNL     1      36.696 -16.903 -23.614  0.00  0.00    -0.079 HD
BRANCH   8  11
ATOM     11  C   UNL     1      35.121 -20.076 -21.022  0.00  0.00    -0.004 C 
ATOM     12  C   UNL     1      36.291 -20.627 -20.496  0.00  0.00    -0.000 C 
ATOM     13  C   UNL     1      33.882 -20.625 -20.681  0.00  0.00    -0.000 C 
ATOM     14  C   UNL     1      36.225 -21.722 -19.635  0.00  0.00    -0.000 C 
ATOM     15  C   UNL     1      33.816 -21.720 -19.819  0.00  0.00    -0.000 C 
ATOM     16  C   UNL     1      34.987 -22.270 -19.297  0.00  0.00    -0.000 C 
ENDBRANCH   8  11
ENDBRANCH   3   4
ENDBRANCH   2   3
ENDBRANCH   1   2
BRANCH   1  17
ATOM     17  C   UNL     1      32.689 -13.068 -23.491  0.00  0.00    +0.110 C 
BRANCH  17  21
ATOM     18  F   UNL     1      32.136  -8.106 -19.915  0.00  0.00    -0.204 F 
ATOM     19  O   UNL     1      32.348 -14.299 -20.982  0.00  0.00    -0.246 OA
ATOM     20  O   UNL     1      31.990 -10.336 -18.726  0.00  0.00    -0.267 OA
ATOM     21  N   UNL     1      32.505 -12.341 -22.237  0.00  0.00    -0.281 N 
ATOM     22  N   UNL     1      32.175 -12.304 -19.895  0.00  0.00    -0.274 N 
ATOM     23  C   UNL     1      32.494 -10.912 -22.254  0.00  0.00    +0.071 A 
ATOM     24  C   UNL     1      32.345 -13.067 -21.048  0.00  0.00    +0.330 A 
ATOM     25  C   UNL     1      32.319 -10.198 -21.062  0.00  0.00    +0.099 A 
ATOM     26  C   UNL     1      32.654 -10.180 -23.443  0.00  0.00    +0.018 C 
ATOM     27  C   UNL     1      32.147 -10.924 -19.791  0.00  0.00    +0.265 A 
ATOM     28  C   UNL     1      32.303  -8.797 -21.052  0.00  0.00    +0.146 C 
ATOM     29  C   UNL     1      32.639  -8.783 -23.435  0.00  0.00    +0.004 C 
ATOM     30  C   UNL     1      32.464  -8.091 -22.241  0.00  0.00    +0.030 C 
ATOM     31  H   UNL     1      32.062 -12.805 -19.055  0.00  0.00    +0.173 HD
ENDBRANCH  17  21
ENDBRANCH   1  17
TORSDOF 6
ENDMDL
MODEL 6
REMARK VINA RESULT:     -11.1      3.915      9.584
REMARK  Name = 448890
REMARK  6 active torsions:
REMARK  status: ('A' for Active; 'I' for Inactive)
REMARK    1  A    between atoms: C_1  and  C_2
REMARK    2  A    between atoms: C_1  and  C_17
REMARK    3  A    between atoms: C_2  and  C_3
REMARK    4  A    between atoms: C_3  and  N_4
REMARK    5  A    between atoms: C_8  and  C_11
REMARK    6  A    between atoms: C_17  and  N_21
REMARK                            x       y       z     vdW  Elec       q    Type
REMARK                         _______ _______ _______ _____ _____    ______ ____
ROOT
ATOM      1  C   UNL     1      33.469 -14.409 -20.589  0.00  0.00    +0.022 C 
ENDROOT
BRANCH   1   2
ATOM      2  C   UNL     1      32.277 -13.546 -21.018  0.00  0.00    -0.021 C 
BRANCH   2   3
ATOM      3  C   UNL     1      32.092 -12.357 -20.076  0.00  0.00    -0.077 C 
BRANCH   3   4
ATOM      4  N   UNL     1      32.379 -11.107 -20.777  0.00  0.00    +0.390 N 
ATOM      5  C   UNL     1      31.509 -10.945 -21.946  0.00  0.00    -0.072 C 
ATOM      6  C   UNL     1      32.246  -9.958 -19.869  0.00  0.00    -0.051 C 
ATOM      7  C   UNL     1      31.944  -9.712 -22.753  0.00  0.00    +0.003 C 
ATOM      8  C   UNL     1      32.152  -8.487 -21.893  0.00  0.00    -0.031 C 
ATOM      9  C   UNL     1      32.288  -8.621 -20.559  0.00  0.00    -0.053 C 
ATOM     10  H   UNL     1      33.344 -11.146 -21.107  0.00  0.00    -0.079 HD
BRANCH   8  11
ATOM     11  C   UNL     1      32.206  -7.162 -22.556  0.00  0.00    -0.004 C 
ATOM     12  C   UNL     1      33.278  -6.839 -23.391  0.00  0.00    -0.000 C 
ATOM     13  C   UNL     1      31.184  -6.232 -22.349  0.00  0.00    -0.000 C 
ATOM     14  C   UNL     1      33.329  -5.593 -24.015  0.00  0.00    -0.000 C 
ATOM     15  C   UNL     1      31.235  -4.986 -22.974  0.00  0.00    -0.000 C 
ATOM     16  C   UNL     1      32.307  -4.666 -23.807  0.00  0.00    -0.000 C 
ENDBRANCH   8  11
ENDBRANCH   3   4
ENDBRANCH   2   3
ENDBRANCH   1   2
BRANCH   1  17
ATOM     17  C   UNL     1      34.720 -14.133 -21.418  0.00  0.00    +0.110 C 
BRANCH  17  21
ATOM     18  F   UNL     1      34.007 -14.821 -27.479  0.00  0.00    -0.204 F 
ATOM     19  O   UNL     1      35.366 -16.860 -21.688  0.00  0.00    -0.246 OA
ATOM     20  O   UNL     1      34.715 -16.897 -26.216  0.00  0.00    -0.267 OA
ATOM     21  N   UNL     1      34.717 -14.857 -22.687  0.00  0.00    -0.281 N 
ATOM     22  N   UNL     1      35.031 -16.838 -23.942  0.00  0.00    -0.274 N 
ATOM     23  C   UNL     1      34.366 -14.162 -23.886  0.00  0.00    +0.071 A 
ATOM     24  C   UNL     1      35.058 -16.217 -22.695  0.00  0.00    +0.330 A 
ATOM     25  C   UNL     1      34.357 -14.839 -25.112  0.00  0.00    +0.099 A 
ATOM     26  C   UNL     1      34.024 -12.799 -23.884  0.00  0.00    +0.018 C 
ATOM     27  C   UNL     1      34.709 -16.269 -25.162  0.00  0.00    +0.265 A 
ATOM     28  C   UNL     1      34.018 -14.180 -26.301  0.00  0.00    +0.146 C 
ATOM     29  C   UNL     1      33.685 -12.140 -25.068  0.00  0.00    +0.004 C 
ATOM     30  C   UNL     1      33.681 -12.830 -26.276  0.00  0.00    +0.030 C 
ATOM     31  H   UNL     1      35.270 -17.793 -23.957  0.00  0.00    +0.173 HD
ENDBRANCH  17  21
ENDBRANCH   1  17
TORSDOF 6
ENDMDL
MODEL 7
REMARK VINA RESULT:     -10.8      4.056      6.798
REMARK  Name = 448890
REMARK  6 active torsions:
REMARK  status: ('A' for Active; 'I' for Inactive)
REMARK    1  A    between atoms: C_1  and  C_2
REMARK    2  A    between atoms: C_1  and  C_17
REMARK    3  A    between atoms: C_2  and  C_3
REMARK    4  A    between atoms: C_3  and  N_4
REMARK    5  A    between atoms: C_8  and  C_11
REMARK    6  A    between atoms: C_17  and  N_21
REMARK                            x       y       z     vdW  Elec       q    Type
REMARK                         _______ _______ _______ _____ _____    ______ ____
ROOT
ATOM      1  C   UNL     1      34.260 -19.914 -21.346  0.00  0.00    +0.022 C 
ENDROOT
BRANCH   1   2
ATOM      2  C   UNL     1      34.554 -20.957 -20.263  0.00  0.00    -0.021 C 
BRANCH   2   3
ATOM      3  C   UNL     1      36.058 -21.109 -20.039  0.00  0.00    -0.077 C 
BRANCH   3   4
ATOM      4  N   UNL     1      36.313 -21.956 -18.875  0.00  0.00    +0.390 N 
ATOM      5  C   UNL     1      37.188 -21.281 -17.912  0.00  0.00    -0.072 C 
ATOM      6  C   UNL     1      35.051 -22.359 -18.237  0.00  0.00    -0.051 C 
ATOM      7  C   UNL     1      37.572 -22.253 -16.786  0.00  0.00    +0.003 C 
ATOM      8  C   UNL     1      36.384 -22.994 -16.214  0.00  0.00    -0.031 C 
ATOM      9  C   UNL     1      35.226 -23.030 -16.901  0.00  0.00    -0.053 C 
ATOM     10  H   UNL     1      36.792 -22.797 -19.199  0.00  0.00    -0.079 HD
BRANCH   8  11
ATOM     11  C   UNL     1      36.540 -23.669 -14.904  0.00  0.00    -0.004 C 
ATOM     12  C   UNL     1      35.428 -23.877 -14.085  0.00  0.00    -0.000 C 
ATOM     13  C   UNL     1      37.800 -24.102 -14.484  0.00  0.00    -0.000 C 
ATOM     14  C   UNL     1      35.575 -24.513 -12.853  0.00  0.00    -0.000 C 
ATOM     15  C   UNL     1      37.947 -24.738 -13.251  0.00  0.00    -0.000 C 
ATOM     16  C   UNL     1      36.835 -24.944 -12.435  0.00  0.00    -0.000 C 
ENDBRANCH   8  11
ENDBRANCH   3   4
ENDBRANCH   2   3
ENDBRANCH   1   2
BRANCH   1  17
ATOM     17  C   UNL     1      35.499 -19.116 -21.742  0.00  0.00    +0.110 C 
BRANCH  17  21
ATOM     18  F   UNL     1      34.439 -13.884 -24.778  0.00  0.00    -0.204 F 
ATOM     19  O   UNL     1      35.412 -20.084 -24.384  0.00  0.00    -0.246 OA
ATOM     20  O   UNL     1      34.628 -15.963 -26.210  0.00  0.00    -0.267 OA
ATOM     21  N   UNL     1      35.268 -18.279 -22.917  0.00  0.00    -0.281 N 
ATOM     22  N   UNL     1      35.022 -18.014 -25.255  0.00  0.00    -0.274 N 
ATOM     23  C   UNL     1      35.070 -16.874 -22.745  0.00  0.00    +0.071 A 
ATOM     24  C   UNL     1      35.247 -18.877 -24.184  0.00  0.00    +0.330 A 
ATOM     25  C   UNL     1      34.848 -16.055 -23.859  0.00  0.00    +0.099 A 
ATOM     26  C   UNL     1      35.091 -16.269 -21.477  0.00  0.00    +0.018 C 
ATOM     27  C   UNL     1      34.819 -16.646 -25.209  0.00  0.00    +0.265 A 
ATOM     28  C   UNL     1      34.653 -14.675 -23.717  0.00  0.00    +0.146 C 
ATOM     29  C   UNL     1      34.895 -14.892 -21.332  0.00  0.00    +0.004 C 
ATOM     30  C   UNL     1      34.676 -14.096 -22.451  0.00  0.00    +0.030 C 
ATOM     31  H   UNL     1      35.006 -18.426 -26.150  0.00  0.00    +0.173 HD
ENDBRANCH  17  21
ENDBRANCH   1  17
TORSDOF 6
ENDMDL
MODEL 8
REMARK VINA RESULT:     -10.8      2.005      3.430
REMARK  Name = 448890
REMARK  6 active torsions:
REMARK  status: ('A' for Active; 'I' for Inactive)
REMARK    1  A    between atoms: C_1  and  C_2
REMARK    2  A    between atoms: C_1  and  C_17
REMARK    3  A    between atoms: C_2  and  C_3
REMARK    4  A    between atoms: C_3  and  N_4
REMARK    5  A    between atoms: C_8  and  C_11
REMARK    6  A    between atoms: C_17  and  N_21
REMARK                            x       y       z     vdW  Elec       q    Type
REMARK                         _______ _______ _______ _____ _____    ______ ____
ROOT
ATOM      1  C   UNL     1      34.257 -18.071 -25.406  0.00  0.00    +0.022 C 
ENDROOT
BRANCH   1   2
ATOM      2  C   UNL     1      34.551 -19.297 -24.536  0.00  0.00    -0.021 C 
BRANCH   2   3
ATOM      3  C   UNL     1      35.548 -18.959 -23.428  0.00  0.00    -0.077 C 
BRANCH   3   4
ATOM      4  N   UNL     1      35.481 -19.960 -22.364  0.00  0.00    +0.390 N 
ATOM      5  C   UNL     1      36.474 -19.688 -21.320  0.00  0.00    -0.072 C 
ATOM      6  C   UNL     1      34.128 -20.020 -21.791  0.00  0.00    -0.051 C 
ATOM      7  C   UNL     1      36.494 -20.842 -20.307  0.00  0.00    +0.003 C 
ATOM      8  C   UNL     1      35.112 -21.239 -19.837  0.00  0.00    -0.031 C 
ATOM      9  C   UNL     1      34.030 -20.847 -20.537  0.00  0.00    -0.053 C 
ATOM     10  H   UNL     1      35.697 -20.869 -22.775  0.00  0.00    -0.079 HD
BRANCH   8  11
ATOM     11  C   UNL     1      34.996 -22.062 -18.609  0.00  0.00    -0.004 C 
ATOM     12  C   UNL     1      33.809 -22.743 -18.332  0.00  0.00    -0.000 C 
ATOM     13  C   UNL     1      36.074 -22.159 -17.726  0.00  0.00    -0.000 C 
ATOM     14  C   UNL     1      33.700 -23.517 -17.177  0.00  0.00    -0.000 C 
ATOM     15  C   UNL     1      35.964 -22.934 -16.571  0.00  0.00    -0.000 C 
ATOM     16  C   UNL     1      34.777 -23.613 -16.296  0.00  0.00    -0.000 C 
ENDBRANCH   8  11
ENDBRANCH   3   4
ENDBRANCH   2   3
ENDBRANCH   1   2
BRANCH   1  17
ATOM     17  C   UNL     1      35.232 -16.924 -25.152  0.00  0.00    +0.110 C 
BRANCH  17  21
ATOM     18  F   UNL     1      33.190 -12.716 -21.173  0.00  0.00    -0.204 F 
ATOM     19  O   UNL     1      33.972 -15.136 -26.924  0.00  0.00    -0.246 OA
ATOM     20  O   UNL     1      32.654 -12.274 -23.607  0.00  0.00    -0.267 OA
ATOM     21  N   UNL     1      34.553 -15.699 -24.738  0.00  0.00    -0.281 N 
ATOM     22  N   UNL     1      33.333 -13.736 -25.243  0.00  0.00    -0.274 N 
ATOM     23  C   UNL     1      34.508 -15.361 -23.350  0.00  0.00    +0.071 A 
ATOM     24  C   UNL     1      33.962 -14.886 -25.715  0.00  0.00    +0.330 A 
ATOM     25  C   UNL     1      33.863 -14.190 -22.934  0.00  0.00    +0.099 A 
ATOM     26  C   UNL     1      35.100 -16.171 -22.367  0.00  0.00    +0.018 C 
ATOM     27  C   UNL     1      33.228 -13.309 -23.931  0.00  0.00    +0.265 A 
ATOM     28  C   UNL     1      33.806 -13.835 -21.580  0.00  0.00    +0.146 C 
ATOM     29  C   UNL     1      35.045 -15.820 -21.015  0.00  0.00    +0.004 C 
ATOM     30  C   UNL     1      34.398 -14.653 -20.621  0.00  0.00    +0.030 C 
ATOM     31  H   UNL     1      32.915 -13.158 -25.923  0.00  0.00    +0.173 HD
ENDBRANCH  17  21
ENDBRANCH   1  17
TORSDOF 6
ENDMDL
MODEL 9
REMARK VINA RESULT:     -10.7      3.703      6.405
REMARK  Name = 448890
REMARK  6 active torsions:
REMARK  status: ('A' for Active; 'I' for Inactive)
REMARK    1  A    between atoms: C_1  and  C_2
REMARK    2  A    between atoms: C_1  and  C_17
REMARK    3  A    between atoms: C_2  and  C_3
REMARK    4  A    between atoms: C_3  and  N_4
REMARK    5  A    between atoms: C_8  and  C_11
REMARK    6  A    between atoms: C_17  and  N_21
REMARK                            x       y       z     vdW  Elec       q    Type
REMARK                         _______ _______ _______ _____ _____    ______ ____
ROOT
ATOM      1  C   UNL     1      34.814 -19.316 -21.356  0.00  0.00    +0.022 C 
ENDROOT
BRANCH   1   2
ATOM      2  C   UNL     1      35.144 -20.812 -21.352  0.00  0.00    -0.021 C 
BRANCH   2   3
ATOM      3  C   UNL     1      36.011 -21.181 -20.149  0.00  0.00    -0.077 C 
BRANCH   3   4
ATOM      4  N   UNL     1      35.171 -21.575 -19.020  0.00  0.00    +0.390 N 
ATOM      5  C   UNL     1      34.079 -22.452 -19.455  0.00  0.00    -0.072 C 
ATOM      6  C   UNL     1      35.974 -22.226 -17.975  0.00  0.00    -0.051 C 
ATOM      7  C   UNL     1      33.121 -22.712 -18.282  0.00  0.00    +0.003 C 
ATOM      8  C   UNL     1      33.837 -23.106 -17.011  0.00  0.00    -0.031 C 
ATOM      9  C   UNL     1      35.159 -22.874 -16.888  0.00  0.00    -0.053 C 
ATOM     10  H   UNL     1      34.757 -20.729 -18.628  0.00  0.00    -0.079 HD
BRANCH   8  11
ATOM     11  C   UNL     1      33.049 -23.737 -15.925  0.00  0.00    -0.004 C 
ATOM     12  C   UNL     1      33.693 -24.246 -14.796  0.00  0.00    -0.000 C 
ATOM     13  C   UNL     1      31.658 -23.822 -16.028  0.00  0.00    -0.000 C 
ATOM     14  C   UNL     1      32.951 -24.840 -13.775  0.00  0.00    -0.000 C 
ATOM     15  C   UNL     1      30.916 -24.415 -15.006  0.00  0.00    -0.000 C 
ATOM     16  C   UNL     1      31.562 -24.924 -13.880  0.00  0.00    -0.000 C 
ENDBRANCH   8  11
ENDBRANCH   3   4
ENDBRANCH   2   3
ENDBRANCH   1   2
BRANCH   1  17
ATOM     17  C   UNL     1      35.872 -18.485 -22.076  0.00  0.00    +0.110 C 
BRANCH  17  21
ATOM     18  F   UNL     1      33.715 -13.754 -25.345  0.00  0.00    -0.204 F 
ATOM     19  O   UNL     1      35.405 -19.758 -24.543  0.00  0.00    -0.246 OA
ATOM     20  O   UNL     1      33.860 -15.962 -26.575  0.00  0.00    -0.267 OA
ATOM     21  N   UNL     1      35.341 -17.813 -23.260  0.00  0.00    -0.281 N 
ATOM     22  N   UNL     1      34.641 -17.845 -25.519  0.00  0.00    -0.274 N 
ATOM     23  C   UNL     1      35.028 -16.420 -23.191  0.00  0.00    +0.071 A 
ATOM     24  C   UNL     1      35.151 -18.555 -24.434  0.00  0.00    +0.330 A 
ATOM     25  C   UNL     1      34.518 -15.760 -24.315  0.00  0.00    +0.099 A 
ATOM     26  C   UNL     1      35.216 -15.672 -22.016  0.00  0.00    +0.018 C 
ATOM     27  C   UNL     1      34.304 -16.504 -25.568  0.00  0.00    +0.265 A 
ATOM     28  C   UNL     1      34.204 -14.394 -24.273  0.00  0.00    +0.146 C 
ATOM     29  C   UNL     1      34.904 -14.311 -21.972  0.00  0.00    +0.004 C 
ATOM     30  C   UNL     1      34.398 -13.672 -23.099  0.00  0.00    +0.030 C 
ATOM     31  H   UNL     1      34.505 -18.358 -26.349  0.00  0.00    +0.173 HD
ENDBRANCH  17  21
ENDBRANCH   1  17
TORSDOF 6
ENDMDL
