MODEL 1
REMARK VINA RESULT:     -11.3      0.000      0.000
REMARK  Name = 56832738
REMARK  10 active torsions:
REMARK  status: ('A' for Active; 'I' for Inactive)
REMARK    1  A    between atoms: C_2  and  C_11
REMARK    2  A    between atoms: C_5  and  C_25
REMARK    3  A    between atoms: C_10  and  C_22
REMARK    4  A    between atoms: C_12  and  O_16
REMARK    5  A    between atoms: C_13  and  O_18
REMARK    6  A    between atoms: C_14  and  O_20
REMARK    7  A    between atoms: C_22  and  O_23
REMARK    8  A    between atoms: C_25  and  C_27
REMARK    9  A    between atoms: C_32  and  O_33
REMARK   10  A    between atoms: O_33  and  C_34
REMARK                            x       y       z     vdW  Elec       q    Type
REMARK                         _______ _______ _______ _____ _____    ______ ____
ROOT
ATOM      1 CL   UNL     1      30.920 -22.638 -17.369  0.00  0.00    -0.083 Cl
ATOM      2  C   UNL     1      34.608 -23.852 -15.064  0.00  0.00    +0.031 C 
ATOM      3  C   UNL     1      34.605 -23.949 -16.455  0.00  0.00    -0.003 C 
ATOM      4  C   UNL     1      33.479 -23.380 -14.395  0.00  0.00    +0.001 C 
ATOM      5  C   UNL     1      33.471 -23.577 -17.177  0.00  0.00    -0.007 C 
ATOM      6  C   UNL     1      32.345 -23.008 -15.117  0.00  0.00    +0.011 C 
ATOM      7  C   UNL     1      32.341 -23.105 -16.509  0.00  0.00    +0.054 C 
ENDROOT
BRANCH   2  11
ATOM      8  O   UNL     1      35.513 -24.701 -12.949  0.00  0.00    -0.326 OA
ATOM      9  O   UNL     1      36.725 -23.121 -14.143  0.00  0.00    -0.326 OA
ATOM     10  C   UNL     1      36.735 -24.475 -12.235  0.00  0.00    +0.176 C 
ATOM     11  C   UNL     1      35.840 -24.256 -14.279  0.00  0.00    +0.235 C 
ATOM     12  C   UNL     1      37.730 -25.593 -12.644  0.00  0.00    +0.169 C 
ATOM     13  C   UNL     1      36.636 -25.399 -14.952  0.00  0.00    +0.196 C 
ATOM     14  C   UNL     1      37.928 -25.713 -14.170  0.00  0.00    +0.172 C 
ATOM     15  C   UNL     1      37.110 -23.098 -12.762  0.00  0.00    +0.177 C 
BRANCH  12  16
ATOM     16  O   UNL     1      37.224 -26.841 -12.162  0.00  0.00    -0.379 OA
ATOM     17  H   UNL     1      36.461 -27.110 -12.697  0.00  0.00    +0.211 HD
ENDBRANCH  12  16
BRANCH  13  18
ATOM     18  O   UNL     1      35.833 -26.577 -15.006  0.00  0.00    -0.377 OA
ATOM     19  H   UNL     1      35.233 -26.594 -14.244  0.00  0.00    +0.211 HD
ENDBRANCH  13  18
BRANCH  14  20
ATOM     20  O   UNL     1      38.939 -24.794 -14.587  0.00  0.00    -0.379 OA
ATOM     21  H   UNL     1      39.809 -25.129 -14.321  0.00  0.00    +0.211 HD
ENDBRANCH  14  20
BRANCH  10  22
ATOM     22  C   UNL     1      36.456 -24.463 -10.738  0.00  0.00    +0.169 C 
BRANCH  22  23
ATOM     23  O   UNL     1      35.417 -25.387 -10.465  0.00  0.00    -0.379 OA
ATOM     24  H   UNL     1      34.873 -25.055  -9.733  0.00  0.00    +0.211 HD
ENDBRANCH  22  23
ENDBRANCH  10  22
ENDBRANCH   2  11
BRANCH   5  25
ATOM     25  C   UNL     1      33.506 -23.698 -18.667  0.00  0.00    +0.054 C 
BRANCH  25  27
ATOM     26  F   UNL     1      37.097 -20.795 -20.261  0.00  0.00    -0.201 F 
ATOM     27  C   UNL     1      33.981 -22.444 -19.371  0.00  0.00    -0.015 C 
ATOM     28  C   UNL     1      35.347 -22.189 -19.496  0.00  0.00    +0.029 C 
ATOM     29  C   UNL     1      33.053 -21.544 -19.894  0.00  0.00    -0.001 C 
ATOM     30  C   UNL     1      35.784 -21.035 -20.144  0.00  0.00    +0.174 C 
ATOM     31  C   UNL     1      33.490 -20.390 -20.542  0.00  0.00    +0.039 C 
ATOM     32  C   UNL     1      34.856 -20.134 -20.667  0.00  0.00    +0.166 C 
BRANCH  32  33
ATOM     33  O   UNL     1      35.281 -19.006 -21.300  0.00  0.00    -0.473 OA
BRANCH  33  34
ATOM     34  C   UNL     1      35.492 -19.094 -22.709  0.00  0.00    +0.206 C 
ATOM     35  C   UNL     1      36.905 -18.650 -23.023  0.00  0.00    +0.051 C 
ENDBRANCH  33  34
ENDBRANCH  32  33
ENDBRANCH  25  27
ENDBRANCH   5  25
TORSDOF 10
ENDMDL
MODEL 2
REMARK VINA RESULT:     -10.4      0.946      2.418
REMARK  Name = 56832738
REMARK  10 active torsions:
REMARK  status: ('A' for Active; 'I' for Inactive)
REMARK    1  A    between atoms: C_2  and  C_11
REMARK    2  A    between atoms: C_5  and  C_25
REMARK    3  A    between atoms: C_10  and  C_22
REMARK    4  A    between atoms: C_12  and  O_16
REMARK    5  A    between atoms: C_13  and  O_18
REMARK    6  A    between atoms: C_14  and  O_20
REMARK    7  A    between atoms: C_22  and  O_23
REMARK    8  A    between atoms: C_25  and  C_27
REMARK    9  A    between atoms: C_32  and  O_33
REMARK   10  A    between atoms: O_33  and  C_34
REMARK                            x       y       z     vdW  Elec       q    Type
REMARK                         _______ _______ _______ _____ _____    ______ ____
ROOT
ATOM      1 CL   UNL     1      31.272 -22.550 -17.129  0.00  0.00    -0.083 Cl
ATOM      2  C   UNL     1      34.923 -24.277 -15.111  0.00  0.00    +0.031 C 
ATOM      3  C   UNL     1      34.826 -24.311 -16.502  0.00  0.00    -0.003 C 
ATOM      4  C   UNL     1      33.898 -23.710 -14.354  0.00  0.00    +0.001 C 
ATOM      5  C   UNL     1      33.702 -23.780 -17.136  0.00  0.00    -0.007 C 
ATOM      6  C   UNL     1      32.774 -23.179 -14.988  0.00  0.00    +0.011 C 
ATOM      7  C   UNL     1      32.676 -23.214 -16.380  0.00  0.00    +0.054 C 
ENDROOT
BRANCH   2  11
ATOM      8  O   UNL     1      37.356 -24.182 -14.818  0.00  0.00    -0.326 OA
ATOM      9  O   UNL     1      36.291 -26.246 -14.779  0.00  0.00    -0.326 OA
ATOM     10  C   UNL     1      38.359 -25.173 -14.558  0.00  0.00    +0.176 C 
ATOM     11  C   UNL     1      36.144 -24.853 -14.422  0.00  0.00    +0.235 C 
ATOM     12  C   UNL     1      38.580 -25.224 -13.023  0.00  0.00    +0.169 C 
ATOM     13  C   UNL     1      36.064 -24.765 -12.881  0.00  0.00    +0.196 C 
ATOM     14  C   UNL     1      37.280 -25.446 -12.221  0.00  0.00    +0.172 C 
ATOM     15  C   UNL     1      37.675 -26.410 -15.119  0.00  0.00    +0.177 C 
BRANCH  12  16
ATOM     16  O   UNL     1      39.149 -23.977 -12.612  0.00  0.00    -0.379 OA
ATOM     17  H   UNL     1      40.115 -24.062 -12.566  0.00  0.00    +0.211 HD
ENDBRANCH  12  16
BRANCH  13  18
ATOM     18  O   UNL     1      36.029 -23.396 -12.478  0.00  0.00    -0.377 OA
ATOM     19  H   UNL     1      36.713 -23.238 -11.809  0.00  0.00    +0.211 HD
ENDBRANCH  13  18
BRANCH  14  20
ATOM     20  O   UNL     1      37.016 -26.847 -12.131  0.00  0.00    -0.379 OA
ATOM     21  H   UNL     1      37.130 -27.253 -13.004  0.00  0.00    +0.211 HD
ENDBRANCH  14  20
BRANCH  10  22
ATOM     22  C   UNL     1      39.631 -24.822 -15.319  0.00  0.00    +0.169 C 
BRANCH  22  23
ATOM     23  O   UNL     1      40.198 -26.018 -15.825  0.00  0.00    -0.379 OA
ATOM     24  H   UNL     1      40.875 -26.341 -15.209  0.00  0.00    +0.211 HD
ENDBRANCH  22  23
ENDBRANCH  10  22
ENDBRANCH   2  11
BRANCH   5  25
ATOM     25  C   UNL     1      33.635 -23.838 -18.628  0.00  0.00    +0.054 C 
BRANCH  25  27
ATOM     26  F   UNL     1      37.126 -20.760 -20.113  0.00  0.00    -0.201 F 
ATOM     27  C   UNL     1      34.069 -22.557 -19.310  0.00  0.00    -0.015 C 
ATOM     28  C   UNL     1      35.424 -22.239 -19.401  0.00  0.00    +0.029 C 
ATOM     29  C   UNL     1      33.113 -21.694 -19.846  0.00  0.00    -0.001 C 
ATOM     30  C   UNL     1      35.823 -21.060 -20.029  0.00  0.00    +0.174 C 
ATOM     31  C   UNL     1      33.511 -20.515 -20.473  0.00  0.00    +0.039 C 
ATOM     32  C   UNL     1      34.866 -20.197 -20.564  0.00  0.00    +0.166 C 
BRANCH  32  33
ATOM     33  O   UNL     1      35.254 -19.045 -21.177  0.00  0.00    -0.473 OA
BRANCH  33  34
ATOM     34  C   UNL     1      35.635 -19.136 -22.549  0.00  0.00    +0.206 C 
ATOM     35  C   UNL     1      37.054 -18.633 -22.701  0.00  0.00    +0.051 C 
ENDBRANCH  33  34
ENDBRANCH  32  33
ENDBRANCH  25  27
ENDBRANCH   5  25
TORSDOF 10
ENDMDL
MODEL 3
REMARK VINA RESULT:      -9.9      3.172      4.938
REMARK  Name = 56832738
REMARK  10 active torsions:
REMARK  status: ('A' for Active; 'I' for Inactive)
REMARK    1  A    between atoms: C_2  and  C_11
REMARK    2  A    between atoms: C_5  and  C_25
REMARK    3  A    between atoms: C_10  and  C_22
REMARK    4  A    between atoms: C_12  and  O_16
REMARK    5  A    between atoms: C_13  and  O_18
REMARK    6  A    between atoms: C_14  and  O_20
REMARK    7  A    between atoms: C_22  and  O_23
REMARK    8  A    between atoms: C_25  and  C_27
REMARK    9  A    between atoms: C_32  and  O_33
REMARK   10  A    between atoms: O_33  and  C_34
REMARK                            x       y       z     vdW  Elec       q    Type
REMARK                         _______ _______ _______ _____ _____    ______ ____
ROOT
ATOM      1 CL   UNL     1      37.414 -21.985 -17.922  0.00  0.00    -0.083 Cl
ATOM      2  C   UNL     1      33.522 -23.221 -15.995  0.00  0.00    +0.031 C 
ATOM      3  C   UNL     1      33.645 -23.263 -17.384  0.00  0.00    -0.003 C 
ATOM      4  C   UNL     1      34.597 -22.801 -15.212  0.00  0.00    +0.001 C 
ATOM      5  C   UNL     1      34.843 -22.884 -17.989  0.00  0.00    -0.007 C 
ATOM      6  C   UNL     1      35.795 -22.422 -15.818  0.00  0.00    +0.011 C 
ATOM      7  C   UNL     1      35.919 -22.464 -17.207  0.00  0.00    +0.054 C 
ENDROOT
BRANCH   2  11
ATOM      8  O   UNL     1      31.337 -24.304 -16.257  0.00  0.00    -0.326 OA
ATOM      9  O   UNL     1      31.526 -22.460 -14.857  0.00  0.00    -0.326 OA
ATOM     10  C   UNL     1      30.050 -24.085 -15.666  0.00  0.00    +0.176 C 
ATOM     11  C   UNL     1      32.221 -23.633 -15.337  0.00  0.00    +0.235 C 
ATOM     12  C   UNL     1      29.925 -25.036 -14.448  0.00  0.00    +0.169 C 
ATOM     13  C   UNL     1      32.427 -24.585 -14.136  0.00  0.00    +0.196 C 
ATOM     14  C   UNL     1      31.088 -24.903 -13.441  0.00  0.00    +0.172 C 
ATOM     15  C   UNL     1      30.167 -22.616 -15.289  0.00  0.00    +0.177 C 
BRANCH  12  16
ATOM     16  O   UNL     1      29.907 -26.383 -14.930  0.00  0.00    -0.379 OA
ATOM     17  H   UNL     1      30.046 -26.384 -15.890  0.00  0.00    +0.211 HD
ENDBRANCH  12  16
BRANCH  13  18
ATOM     18  O   UNL     1      33.012 -25.806 -14.586  0.00  0.00    -0.377 OA
ATOM     19  H   UNL     1      33.552 -26.187 -13.876  0.00  0.00    +0.211 HD
ENDBRANCH  13  18
BRANCH  14  20
ATOM     20  O   UNL     1      30.797 -23.847 -12.524  0.00  0.00    -0.379 OA
ATOM     21  H   UNL     1      30.522 -24.223 -11.674  0.00  0.00    +0.211 HD
ENDBRANCH  14  20
BRANCH  10  22
ATOM     22  C   UNL     1      28.964 -24.328 -16.708  0.00  0.00    +0.169 C 
BRANCH  22  23
ATOM     23  O   UNL     1      28.850 -23.171 -17.518  0.00  0.00    -0.379 OA
ATOM     24  H   UNL     1      27.915 -23.012 -17.724  0.00  0.00    +0.211 HD
ENDBRANCH  22  23
ENDBRANCH  10  22
ENDBRANCH   2  11
BRANCH   5  25
ATOM     25  C   UNL     1      34.934 -22.941 -19.481  0.00  0.00    +0.054 C 
BRANCH  25  27
ATOM     26  F   UNL     1      37.593 -19.241 -21.243  0.00  0.00    -0.201 F 
ATOM     27  C   UNL     1      35.039 -21.582 -20.140  0.00  0.00    -0.015 C 
ATOM     28  C   UNL     1      36.291 -21.024 -20.394  0.00  0.00    +0.029 C 
ATOM     29  C   UNL     1      33.881 -20.887 -20.492  0.00  0.00    -0.001 C 
ATOM     30  C   UNL     1      36.387 -19.772 -21.001  0.00  0.00    +0.174 C 
ATOM     31  C   UNL     1      33.977 -19.636 -21.098  0.00  0.00    +0.039 C 
ATOM     32  C   UNL     1      35.229 -19.078 -21.353  0.00  0.00    +0.166 C 
BRANCH  32  33
ATOM     33  O   UNL     1      35.321 -17.855 -21.945  0.00  0.00    -0.473 OA
BRANCH  33  34
ATOM     34  C   UNL     1      35.412 -17.830 -23.369  0.00  0.00    +0.206 C 
ATOM     35  C   UNL     1      35.316 -16.395 -23.842  0.00  0.00    +0.051 C 
ENDBRANCH  33  34
ENDBRANCH  32  33
ENDBRANCH  25  27
ENDBRANCH   5  25
TORSDOF 10
ENDMDL
MODEL 4
REMARK VINA RESULT:      -9.8      3.156      5.147
REMARK  Name = 56832738
REMARK  10 active torsions:
REMARK  status: ('A' for Active; 'I' for Inactive)
REMARK    1  A    between atoms: C_2  and  C_11
REMARK    2  A    between atoms: C_5  and  C_25
REMARK    3  A    between atoms: C_10  and  C_22
REMARK    4  A    between atoms: C_12  and  O_16
REMARK    5  A    between atoms: C_13  and  O_18
REMARK    6  A    between atoms: C_14  and  O_20
REMARK    7  A    between atoms: C_22  and  O_23
REMARK    8  A    between atoms: C_25  and  C_27
REMARK    9  A    between atoms: C_32  and  O_33
REMARK   10  A    between atoms: O_33  and  C_34
REMARK                            x       y       z     vdW  Elec       q    Type
REMARK                         _______ _______ _______ _____ _____    ______ ____
ROOT
ATOM      1 CL   UNL     1      35.983 -20.921 -19.895  0.00  0.00    -0.083 Cl
ATOM      2  C   UNL     1      37.000 -23.081 -16.063  0.00  0.00    +0.031 C 
ATOM      3  C   UNL     1      35.735 -23.241 -16.627  0.00  0.00    -0.003 C 
ATOM      4  C   UNL     1      37.942 -22.261 -16.684  0.00  0.00    +0.001 C 
ATOM      5  C   UNL     1      35.410 -22.579 -17.811  0.00  0.00    -0.007 C 
ATOM      6  C   UNL     1      37.617 -21.599 -17.868  0.00  0.00    +0.011 C 
ATOM      7  C   UNL     1      36.351 -21.758 -18.432  0.00  0.00    +0.054 C 
ENDROOT
BRANCH   2  11
ATOM      8  O   UNL     1      36.201 -24.408 -14.162  0.00  0.00    -0.326 OA
ATOM      9  O   UNL     1      37.898 -22.859 -13.826  0.00  0.00    -0.326 OA
ATOM     10  C   UNL     1      36.594 -24.501 -12.787  0.00  0.00    +0.176 C 
ATOM     11  C   UNL     1      37.354 -23.801 -14.777  0.00  0.00    +0.235 C 
ATOM     12  C   UNL     1      37.601 -25.675 -12.665  0.00  0.00    +0.169 C 
ATOM     13  C   UNL     1      38.397 -24.924 -14.980  0.00  0.00    +0.196 C 
ATOM     14  C   UNL     1      38.796 -25.564 -13.636  0.00  0.00    +0.172 C 
ATOM     15  C   UNL     1      37.225 -23.131 -12.589  0.00  0.00    +0.177 C 
BRANCH  12  16
ATOM     16  O   UNL     1      36.905 -26.892 -12.953  0.00  0.00    -0.379 OA
ATOM     17  H   UNL     1      37.248 -27.602 -12.388  0.00  0.00    +0.211 HD
ENDBRANCH  12  16
BRANCH  13  18
ATOM     18  O   UNL     1      37.856 -25.935 -15.830  0.00  0.00    -0.377 OA
ATOM     19  H   UNL     1      38.148 -25.781 -16.742  0.00  0.00    +0.211 HD
ENDBRANCH  13  18
BRANCH  14  20
ATOM     20  O   UNL     1      39.813 -24.759 -13.039  0.00  0.00    -0.379 OA
ATOM     21  H   UNL     1      40.328 -25.296 -12.417  0.00  0.00    +0.211 HD
ENDBRANCH  14  20
BRANCH  10  22
ATOM     22  C   UNL     1      35.360 -24.699 -11.916  0.00  0.00    +0.169 C 
BRANCH  22  23
ATOM     23  O   UNL     1      35.735 -25.431 -10.762  0.00  0.00    -0.379 OA
ATOM     24  H   UNL     1      36.700 -25.534 -10.744  0.00  0.00    +0.211 HD
ENDBRANCH  22  23
ENDBRANCH  10  22
ENDBRANCH   2  11
BRANCH   5  25
ATOM     25  C   UNL     1      34.043 -22.775 -18.382  0.00  0.00    +0.054 C 
BRANCH  25  27
ATOM     26  F   UNL     1      29.409 -22.443 -16.871  0.00  0.00    -0.201 F 
ATOM     27  C   UNL     1      32.971 -23.005 -17.337  0.00  0.00    -0.015 C 
ATOM     28  C   UNL     1      31.656 -22.611 -17.587  0.00  0.00    +0.029 C 
ATOM     29  C   UNL     1      33.299 -23.608 -16.123  0.00  0.00    -0.001 C 
ATOM     30  C   UNL     1      30.670 -22.823 -16.625  0.00  0.00    +0.174 C 
ATOM     31  C   UNL     1      32.313 -23.820 -15.161  0.00  0.00    +0.039 C 
ATOM     32  C   UNL     1      30.998 -23.427 -15.411  0.00  0.00    +0.166 C 
BRANCH  32  33
ATOM     33  O   UNL     1      30.036 -23.634 -14.470  0.00  0.00    -0.473 OA
BRANCH  33  34
ATOM     34  C   UNL     1      29.918 -24.955 -13.942  0.00  0.00    +0.206 C 
ATOM     35  C   UNL     1      29.400 -25.873 -15.028  0.00  0.00    +0.051 C 
ENDBRANCH  33  34
ENDBRANCH  32  33
ENDBRANCH  25  27
ENDBRANCH   5  25
TORSDOF 10
ENDMDL
MODEL 5
REMARK VINA RESULT:      -8.7      3.796      7.448
REMARK  Name = 56832738
REMARK  10 active torsions:
REMARK  status: ('A' for Active; 'I' for Inactive)
REMARK    1  A    between atoms: C_2  and  C_11
REMARK    2  A    between atoms: C_5  and  C_25
REMARK    3  A    between atoms: C_10  and  C_22
REMARK    4  A    between atoms: C_12  and  O_16
REMARK    5  A    between atoms: C_13  and  O_18
REMARK    6  A    between atoms: C_14  and  O_20
REMARK    7  A    between atoms: C_22  and  O_23
REMARK    8  A    between atoms: C_25  and  C_27
REMARK    9  A    between atoms: C_32  and  O_33
REMARK   10  A    between atoms: O_33  and  C_34
REMARK                            x       y       z     vdW  Elec       q    Type
REMARK                         _______ _______ _______ _____ _____    ______ ____
ROOT
ATOM      1 CL   UNL     1      37.018 -21.926 -18.431  0.00  0.00    -0.083 Cl
ATOM      2  C   UNL     1      33.333 -23.248 -16.181  0.00  0.00    +0.031 C 
ATOM      3  C   UNL     1      34.477 -22.883 -15.472  0.00  0.00    -0.003 C 
ATOM      4  C   UNL     1      33.332 -23.201 -17.575  0.00  0.00    +0.001 C 
ATOM      5  C   UNL     1      35.621 -22.473 -16.156  0.00  0.00    -0.007 C 
ATOM      6  C   UNL     1      34.476 -22.791 -18.260  0.00  0.00    +0.011 C 
ATOM      7  C   UNL     1      35.621 -22.426 -17.550  0.00  0.00    +0.054 C 
ENDROOT
BRANCH   2  11
ATOM      8  O   UNL     1      31.169 -24.396 -16.294  0.00  0.00    -0.326 OA
ATOM      9  O   UNL     1      31.393 -22.539 -14.919  0.00  0.00    -0.326 OA
ATOM     10  C   UNL     1      29.916 -24.212 -15.622  0.00  0.00    +0.176 C 
ATOM     11  C   UNL     1      32.090 -23.694 -15.437  0.00  0.00    +0.235 C 
ATOM     12  C   UNL     1      29.900 -25.158 -14.394  0.00  0.00    +0.169 C 
ATOM     13  C   UNL     1      32.402 -24.632 -14.248  0.00  0.00    +0.196 C 
ATOM     14  C   UNL     1      31.121 -24.984 -13.465  0.00  0.00    +0.172 C 
ATOM     15  C   UNL     1      30.014 -22.738 -15.260  0.00  0.00    +0.177 C 
BRANCH  12  16
ATOM     16  O   UNL     1      29.890 -26.508 -14.868  0.00  0.00    -0.379 OA
ATOM     17  H   UNL     1      30.761 -26.728 -15.234  0.00  0.00    +0.211 HD
ENDBRANCH  12  16
BRANCH  13  18
ATOM     18  O   UNL     1      32.993 -25.838 -14.729  0.00  0.00    -0.377 OA
ATOM     19  H   UNL     1      33.247 -26.396 -13.977  0.00  0.00    +0.211 HD
ENDBRANCH  13  18
BRANCH  14  20
ATOM     20  O   UNL     1      30.859 -23.931 -12.536  0.00  0.00    -0.379 OA
ATOM     21  H   UNL     1      31.404 -23.160 -12.759  0.00  0.00    +0.211 HD
ENDBRANCH  14  20
BRANCH  10  22
ATOM     22  C   UNL     1      28.773 -24.493 -16.590  0.00  0.00    +0.169 C 
BRANCH  22  23
ATOM     23  O   UNL     1      28.281 -23.257 -17.077  0.00  0.00    -0.379 OA
ATOM     24  H   UNL     1      27.609 -23.422 -17.757  0.00  0.00    +0.211 HD
ENDBRANCH  22  23
ENDBRANCH  10  22
ENDBRANCH   2  11
BRANCH   5  25
ATOM     25  C   UNL     1      36.827 -22.091 -15.360  0.00  0.00    +0.054 C 
BRANCH  25  27
ATOM     26  F   UNL     1      38.179 -25.318 -11.950  0.00  0.00    -0.201 F 
ATOM     27  C   UNL     1      37.662 -23.272 -14.911  0.00  0.00    -0.015 C 
ATOM     28  C   UNL     1      37.536 -23.764 -13.612  0.00  0.00    +0.029 C 
ATOM     29  C   UNL     1      38.559 -23.868 -15.798  0.00  0.00    -0.001 C 
ATOM     30  C   UNL     1      38.305 -24.851 -13.200  0.00  0.00    +0.174 C 
ATOM     31  C   UNL     1      39.328 -24.955 -15.386  0.00  0.00    +0.039 C 
ATOM     32  C   UNL     1      39.202 -25.447 -14.086  0.00  0.00    +0.166 C 
BRANCH  32  33
ATOM     33  O   UNL     1      39.954 -26.508 -13.685  0.00  0.00    -0.473 OA
BRANCH  33  34
ATOM     34  C   UNL     1      41.170 -26.745 -14.393  0.00  0.00    +0.206 C 
ATOM     35  C   UNL     1      42.016 -27.723 -13.604  0.00  0.00    +0.051 C 
ENDBRANCH  33  34
ENDBRANCH  32  33
ENDBRANCH  25  27
ENDBRANCH   5  25
TORSDOF 10
ENDMDL
MODEL 6
REMARK VINA RESULT:      -8.7      3.143      5.658
REMARK  Name = 56832738
REMARK  10 active torsions:
REMARK  status: ('A' for Active; 'I' for Inactive)
REMARK    1  A    between atoms: C_2  and  C_11
REMARK    2  A    between atoms: C_5  and  C_25
REMARK    3  A    between atoms: C_10  and  C_22
REMARK    4  A    between atoms: C_12  and  O_16
REMARK    5  A    between atoms: C_13  and  O_18
REMARK    6  A    between atoms: C_14  and  O_20
REMARK    7  A    between atoms: C_22  and  O_23
REMARK    8  A    between atoms: C_25  and  C_27
REMARK    9  A    between atoms: C_32  and  O_33
REMARK   10  A    between atoms: O_33  and  C_34
REMARK                            x       y       z     vdW  Elec       q    Type
REMARK                         _______ _______ _______ _____ _____    ______ ____
ROOT
ATOM      1 CL   UNL     1      35.879 -20.773 -19.864  0.00  0.00    -0.083 Cl
ATOM      2  C   UNL     1      37.012 -23.266 -16.274  0.00  0.00    +0.031 C 
ATOM      3  C   UNL     1      35.723 -23.362 -16.798  0.00  0.00    -0.003 C 
ATOM      4  C   UNL     1      37.940 -22.407 -16.860  0.00  0.00    +0.001 C 
ATOM      5  C   UNL     1      35.362 -22.596 -17.907  0.00  0.00    -0.007 C 
ATOM      6  C   UNL     1      37.580 -21.641 -17.969  0.00  0.00    +0.011 C 
ATOM      7  C   UNL     1      36.290 -21.736 -18.493  0.00  0.00    +0.054 C 
ENDROOT
BRANCH   2  11
ATOM      8  O   UNL     1      38.834 -24.173 -14.905  0.00  0.00    -0.326 OA
ATOM      9  O   UNL     1      36.923 -25.451 -15.235  0.00  0.00    -0.326 OA
ATOM     10  C   UNL     1      38.998 -25.383 -14.156  0.00  0.00    +0.176 C 
ATOM     11  C   UNL     1      37.404 -24.098 -15.069  0.00  0.00    +0.235 C 
ATOM     12  C   UNL     1      38.584 -25.088 -12.691  0.00  0.00    +0.169 C 
ATOM     13  C   UNL     1      36.827 -23.550 -13.743  0.00  0.00    +0.196 C 
ATOM     14  C   UNL     1      37.172 -24.477 -12.561  0.00  0.00    +0.172 C 
ATOM     15  C   UNL     1      38.030 -26.296 -14.893  0.00  0.00    +0.177 C 
BRANCH  12  16
ATOM     16  O   UNL     1      39.523 -24.159 -12.139  0.00  0.00    -0.379 OA
ATOM     17  H   UNL     1      39.725 -24.408 -11.224  0.00  0.00    +0.211 HD
ENDBRANCH  12  16
BRANCH  13  18
ATOM     18  O   UNL     1      37.366 -22.254 -13.485  0.00  0.00    -0.377 OA
ATOM     19  H   UNL     1      38.233 -22.173 -13.913  0.00  0.00    +0.211 HD
ENDBRANCH  13  18
BRANCH  14  20
ATOM     20  O   UNL     1      36.207 -25.528 -12.519  0.00  0.00    -0.379 OA
ATOM     21  H   UNL     1      36.499 -26.258 -13.086  0.00  0.00    +0.211 HD
ENDBRANCH  14  20
BRANCH  10  22
ATOM     22  C   UNL     1      40.440 -25.861 -14.269  0.00  0.00    +0.169 C 
BRANCH  22  23
ATOM     23  O   UNL     1      41.207 -24.839 -14.882  0.00  0.00    -0.379 OA
ATOM     24  H   UNL     1      42.122 -24.887 -14.564  0.00  0.00    +0.211 HD
ENDBRANCH  22  23
ENDBRANCH  10  22
ENDBRANCH   2  11
BRANCH   5  25
ATOM     25  C   UNL     1      33.970 -22.726 -18.437  0.00  0.00    +0.054 C 
BRANCH  25  27
ATOM     26  F   UNL     1      29.362 -22.495 -16.832  0.00  0.00    -0.201 F 
ATOM     27  C   UNL     1      32.928 -22.967 -17.366  0.00  0.00    -0.015 C 
ATOM     28  C   UNL     1      31.598 -22.614 -17.594  0.00  0.00    +0.029 C 
ATOM     29  C   UNL     1      33.298 -23.542 -16.150  0.00  0.00    -0.001 C 
ATOM     30  C   UNL     1      30.639 -22.836 -16.607  0.00  0.00    +0.174 C 
ATOM     31  C   UNL     1      32.339 -23.764 -15.163  0.00  0.00    +0.039 C 
ATOM     32  C   UNL     1      31.009 -23.410 -15.391  0.00  0.00    +0.166 C 
BRANCH  32  33
ATOM     33  O   UNL     1      30.073 -23.627 -14.426  0.00  0.00    -0.473 OA
BRANCH  33  34
ATOM     34  C   UNL     1      29.979 -24.950 -13.899  0.00  0.00    +0.206 C 
ATOM     35  C   UNL     1      29.417 -25.866 -14.966  0.00  0.00    +0.051 C 
ENDBRANCH  33  34
ENDBRANCH  32  33
ENDBRANCH  25  27
ENDBRANCH   5  25
TORSDOF 10
ENDMDL
MODEL 7
REMARK VINA RESULT:      -8.6      3.448      7.300
REMARK  Name = 56832738
REMARK  10 active torsions:
REMARK  status: ('A' for Active; 'I' for Inactive)
REMARK    1  A    between atoms: C_2  and  C_11
REMARK    2  A    between atoms: C_5  and  C_25
REMARK    3  A    between atoms: C_10  and  C_22
REMARK    4  A    between atoms: C_12  and  O_16
REMARK    5  A    between atoms: C_13  and  O_18
REMARK    6  A    between atoms: C_14  and  O_20
REMARK    7  A    between atoms: C_22  and  O_23
REMARK    8  A    between atoms: C_25  and  C_27
REMARK    9  A    between atoms: C_32  and  O_33
REMARK   10  A    between atoms: O_33  and  C_34
REMARK                            x       y       z     vdW  Elec       q    Type
REMARK                         _______ _______ _______ _____ _____    ______ ____
ROOT
ATOM      1 CL   UNL     1      36.433 -21.850 -19.637  0.00  0.00    -0.083 Cl
ATOM      2  C   UNL     1      33.208 -23.141 -16.753  0.00  0.00    +0.031 C 
ATOM      3  C   UNL     1      34.539 -23.132 -16.336  0.00  0.00    -0.003 C 
ATOM      4  C   UNL     1      32.881 -22.751 -18.052  0.00  0.00    +0.001 C 
ATOM      5  C   UNL     1      35.543 -22.734 -17.219  0.00  0.00    -0.007 C 
ATOM      6  C   UNL     1      33.886 -22.354 -18.934  0.00  0.00    +0.011 C 
ATOM      7  C   UNL     1      35.217 -22.345 -18.518  0.00  0.00    +0.054 C 
ENDROOT
BRANCH   2  11
ATOM      8  O   UNL     1      31.095 -24.348 -16.450  0.00  0.00    -0.326 OA
ATOM      9  O   UNL     1      31.472 -22.406 -15.235  0.00  0.00    -0.326 OA
ATOM     10  C   UNL     1      29.961 -24.155 -15.596  0.00  0.00    +0.176 C 
ATOM     11  C   UNL     1      32.116 -23.572 -15.794  0.00  0.00    +0.235 C 
ATOM     12  C   UNL     1      30.174 -25.025 -14.330  0.00  0.00    +0.169 C 
ATOM     13  C   UNL     1      32.647 -24.428 -14.621  0.00  0.00    +0.196 C 
ATOM     14  C   UNL     1      31.521 -24.765 -13.623  0.00  0.00    +0.172 C 
ATOM     15  C   UNL     1      30.064 -22.660 -15.336  0.00  0.00    +0.177 C 
BRANCH  12  16
ATOM     16  O   UNL     1      30.135 -26.401 -14.721  0.00  0.00    -0.379 OA
ATOM     17  H   UNL     1      29.743 -26.476 -15.605  0.00  0.00    +0.211 HD
ENDBRANCH  12  16
BRANCH  13  18
ATOM     18  O   UNL     1      33.195 -25.647 -15.124  0.00  0.00    -0.377 OA
ATOM     19  H   UNL     1      33.090 -26.346 -14.460  0.00  0.00    +0.211 HD
ENDBRANCH  13  18
BRANCH  14  20
ATOM     20  O   UNL     1      31.375 -23.664 -12.724  0.00  0.00    -0.379 OA
ATOM     21  H   UNL     1      30.634 -23.108 -13.011  0.00  0.00    +0.211 HD
ENDBRANCH  14  20
BRANCH  10  22
ATOM     22  C   UNL     1      28.688 -24.523 -16.348  0.00  0.00    +0.169 C 
BRANCH  22  23
ATOM     23  O   UNL     1      28.495 -23.586 -17.393  0.00  0.00    -0.379 OA
ATOM     24  H   UNL     1      27.616 -23.183 -17.308  0.00  0.00    +0.211 HD
ENDBRANCH  22  23
ENDBRANCH  10  22
ENDBRANCH   2  11
BRANCH   5  25
ATOM     25  C   UNL     1      36.957 -22.740 -16.734  0.00  0.00    +0.054 C 
BRANCH  25  27
ATOM     26  F   UNL     1      37.323 -26.679 -13.868  0.00  0.00    -0.201 F 
ATOM     27  C   UNL     1      37.134 -23.373 -15.370  0.00  0.00    -0.015 C 
ATOM     28  C   UNL     1      37.148 -24.762 -15.241  0.00  0.00    +0.029 C 
ATOM     29  C   UNL     1      37.280 -22.567 -14.241  0.00  0.00    -0.001 C 
ATOM     30  C   UNL     1      37.311 -25.344 -13.985  0.00  0.00    +0.174 C 
ATOM     31  C   UNL     1      37.443 -23.148 -12.985  0.00  0.00    +0.039 C 
ATOM     32  C   UNL     1      37.457 -24.537 -12.856  0.00  0.00    +0.166 C 
BRANCH  32  33
ATOM     33  O   UNL     1      37.615 -25.105 -11.629  0.00  0.00    -0.473 OA
BRANCH  33  34
ATOM     34  C   UNL     1      36.932 -24.488 -10.537  0.00  0.00    +0.206 C 
ATOM     35  C   UNL     1      35.448 -24.750 -10.675  0.00  0.00    +0.051 C 
ENDBRANCH  33  34
ENDBRANCH  32  33
ENDBRANCH  25  27
ENDBRANCH   5  25
TORSDOF 10
ENDMDL
