MODEL 1
REMARK VINA RESULT:     -11.9      0.000      0.000
REMARK  Name = 25101874
REMARK  5 active torsions:
REMARK  status: ('A' for Active; 'I' for Inactive)
REMARK    1  A    between atoms: N_1  and  C_22
REMARK    2  A    between atoms: C_2  and  N_8
REMARK    3  A    between atoms: N_8  and  C_11
REMARK    4  A    between atoms: C_11  and  C_14
REMARK    5  A    between atoms: C_22  and  C_28
REMARK                            x       y       z     vdW  Elec       q    Type
REMARK                         _______ _______ _______ _____ _____    ______ ____
ROOT
ATOM      1  N   UNL     1      36.332 -19.041 -22.752  0.00  0.00    +0.388 N 
ATOM      2  C   UNL     1      35.890 -20.468 -20.236  0.00  0.00    -0.066 C 
ATOM      3  C   UNL     1      34.974 -19.424 -22.342  0.00  0.00    -0.079 C 
ATOM      4  C   UNL     1      37.185 -18.773 -21.585  0.00  0.00    -0.079 C 
ATOM      5  C   UNL     1      34.995 -20.676 -21.461  0.00  0.00    -0.044 C 
ATOM      6  C   UNL     1      37.281 -20.003 -20.678  0.00  0.00    -0.044 C 
ATOM      7  H   UNL     1      36.738 -19.824 -23.264  0.00  0.00    -0.080 HD
ENDROOT
BRANCH   2   8
ATOM      8  N   UNL     1      35.975 -21.702 -19.458  0.00  0.00    +0.389 N 
ATOM      9  H   UNL     1      36.174 -21.470 -18.484  0.00  0.00    -0.084 HD
ATOM     10  H   UNL     1      36.722 -22.281 -19.844  0.00  0.00    -0.084 HD
BRANCH   8  11
ATOM     11  C   UNL     1      34.726 -22.444 -19.527  0.00  0.00    -0.034 C 
BRANCH  11  14
ATOM     12  O   UNL     1      33.031 -23.844 -14.383  0.00  0.00    -0.474 OA
ATOM     13  N   UNL     1      35.150 -23.149 -17.239  0.00  0.00    -0.247 NA
ATOM     14  C   UNL     1      34.218 -22.817 -18.159  0.00  0.00    +0.037 C 
ATOM     15  C   UNL     1      32.854 -22.805 -17.916  0.00  0.00    +0.011 C 
ATOM     16  C   UNL     1      32.406 -23.161 -16.642  0.00  0.00    +0.015 C 
ATOM     17  C   UNL     1      30.938 -23.164 -16.328  0.00  0.00    +0.033 C 
ATOM     18  C   UNL     1      33.347 -23.484 -15.663  0.00  0.00    +0.154 C 
ATOM     19  C   UNL     1      30.674 -23.948 -15.049  0.00  0.00    +0.052 C 
ATOM     20  C   UNL     1      34.690 -23.477 -16.010  0.00  0.00    +0.135 C 
ATOM     21  C   UNL     1      31.688 -23.538 -13.991  0.00  0.00    +0.206 C 
ENDBRANCH  11  14
ENDBRANCH   8  11
ENDBRANCH   2   8
BRANCH   1  22
ATOM     22  C   UNL     1      36.291 -17.875 -23.634  0.00  0.00    -0.055 C 
BRANCH  22  28
ATOM     23  O   UNL     1      35.154 -16.400 -20.797  0.00  0.00    -0.273 OA
ATOM     24  O   UNL     1      33.809 -15.162 -27.473  0.00  0.00    -0.270 OA
ATOM     25  N   UNL     1      34.772 -15.996 -23.065  0.00  0.00    -0.261 N 
ATOM     26  N   UNL     1      34.301 -15.551 -25.238  0.00  0.00    -0.255 N 
ATOM     27  N   UNL     1      34.462 -13.292 -22.387  0.00  0.00    -0.262 NA
ATOM     28  C   UNL     1      34.878 -17.311 -23.728  0.00  0.00    +0.076 C 
ATOM     29  C   UNL     1      34.473 -17.010 -25.197  0.00  0.00    +0.113 C 
ATOM     30  C   UNL     1      34.462 -15.047 -23.984  0.00  0.00    +0.196 C 
ATOM     31  C   UNL     1      34.319 -13.763 -23.666  0.00  0.00    +0.092 C 
ATOM     32  C   UNL     1      34.911 -15.666 -21.742  0.00  0.00    +0.252 C 
ATOM     33  C   UNL     1      33.977 -14.761 -26.324  0.00  0.00    +0.251 C 
ATOM     34  C   UNL     1      33.989 -12.850 -24.739  0.00  0.00    +0.022 C 
ATOM     35  C   UNL     1      34.737 -14.180 -21.475  0.00  0.00    +0.210 C 
ATOM     36  C   UNL     1      33.827 -13.296 -25.999  0.00  0.00    +0.059 C 
ENDBRANCH  22  28
ENDBRANCH   1  22
TORSDOF 5
ENDMDL
MODEL 2
REMARK VINA RESULT:     -11.7      2.855      4.503
REMARK  Name = 25101874
REMARK  5 active torsions:
REMARK  status: ('A' for Active; 'I' for Inactive)
REMARK    1  A    between atoms: N_1  and  C_22
REMARK    2  A    between atoms: C_2  and  N_8
REMARK    3  A    between atoms: N_8  and  C_11
REMARK    4  A    between atoms: C_11  and  C_14
REMARK    5  A    between atoms: C_22  and  C_28
REMARK                            x       y       z     vdW  Elec       q    Type
REMARK                         _______ _______ _______ _____ _____    ______ ____
ROOT
ATOM      1  N   UNL     1      34.598 -15.177 -22.888  0.00  0.00    +0.388 N 
ATOM      2  C   UNL     1      35.860 -17.817 -22.876  0.00  0.00    -0.066 C 
ATOM      3  C   UNL     1      35.308 -15.657 -21.695  0.00  0.00    -0.079 C 
ATOM      4  C   UNL     1      35.192 -15.723 -24.117  0.00  0.00    -0.079 C 
ATOM      5  C   UNL     1      35.276 -17.185 -21.610  0.00  0.00    -0.044 C 
ATOM      6  C   UNL     1      35.155 -17.254 -24.113  0.00  0.00    -0.044 C 
ATOM      7  H   UNL     1      33.635 -15.504 -22.832  0.00  0.00    -0.080 HD
ENDROOT
BRANCH   2   8
ATOM      8  N   UNL     1      35.734 -19.271 -22.820  0.00  0.00    +0.389 N 
ATOM      9  H   UNL     1      36.548 -19.660 -22.343  0.00  0.00    -0.084 HD
ATOM     10  H   UNL     1      35.675 -19.631 -23.773  0.00  0.00    -0.084 HD
BRANCH   8  11
ATOM     11  C   UNL     1      34.530 -19.658 -22.100  0.00  0.00    -0.034 C 
BRANCH  11  14
ATOM     12  O   UNL     1      35.891 -22.714 -17.617  0.00  0.00    -0.474 OA
ATOM     13  N   UNL     1      36.145 -20.578 -20.532  0.00  0.00    -0.247 NA
ATOM     14  C   UNL     1      34.844 -20.496 -20.889  0.00  0.00    +0.037 C 
ATOM     15  C   UNL     1      33.811 -21.130 -20.216  0.00  0.00    +0.011 C 
ATOM     16  C   UNL     1      34.128 -21.906 -19.100  0.00  0.00    +0.015 C 
ATOM     17  C   UNL     1      33.045 -22.613 -18.337  0.00  0.00    +0.033 C 
ATOM     18  C   UNL     1      35.461 -21.989 -18.692  0.00  0.00    +0.154 C 
ATOM     19  C   UNL     1      33.647 -23.686 -17.439  0.00  0.00    +0.052 C 
ATOM     20  C   UNL     1      36.422 -21.326 -19.441  0.00  0.00    +0.135 C 
ATOM     21  C   UNL     1      34.854 -23.112 -16.712  0.00  0.00    +0.206 C 
ENDBRANCH  11  14
ENDBRANCH   8  11
ENDBRANCH   2   8
BRANCH   1  22
ATOM     22  C   UNL     1      34.595 -13.714 -22.928  0.00  0.00    -0.055 C 
BRANCH  22  28
ATOM     23  O   UNL     1      32.601 -14.698 -20.363  0.00  0.00    -0.273 OA
ATOM     24  O   UNL     1      32.677  -8.914 -24.163  0.00  0.00    -0.270 OA
ATOM     25  N   UNL     1      32.701 -12.749 -21.646  0.00  0.00    -0.261 N 
ATOM     26  N   UNL     1      32.688 -10.835 -22.862  0.00  0.00    -0.255 N 
ATOM     27  N   UNL     1      31.808 -11.375 -19.370  0.00  0.00    -0.262 NA
ATOM     28  C   UNL     1      33.172 -13.172 -22.980  0.00  0.00    +0.076 C 
ATOM     29  C   UNL     1      33.080 -11.873 -23.826  0.00  0.00    +0.113 C 
ATOM     30  C   UNL     1      32.466 -11.413 -21.649  0.00  0.00    +0.196 C 
ATOM     31  C   UNL     1      32.046 -10.757 -20.570  0.00  0.00    +0.092 C 
ATOM     32  C   UNL     1      32.471 -13.494 -20.518  0.00  0.00    +0.252 C 
ATOM     33  C   UNL     1      32.504  -9.485 -23.090  0.00  0.00    +0.251 C 
ATOM     34  C   UNL     1      31.834  -9.333 -20.704  0.00  0.00    +0.022 C 
ATOM     35  C   UNL     1      32.001 -12.661 -19.337  0.00  0.00    +0.210 C 
ATOM     36  C   UNL     1      32.046  -8.711 -21.879  0.00  0.00    +0.059 C 
ENDBRANCH  22  28
ENDBRANCH   1  22
TORSDOF 5
ENDMDL
MODEL 3
REMARK VINA RESULT:     -11.6      2.115     11.058
REMARK  Name = 25101874
REMARK  5 active torsions:
REMARK  status: ('A' for Active; 'I' for Inactive)
REMARK    1  A    between atoms: N_1  and  C_22
REMARK    2  A    between atoms: C_2  and  N_8
REMARK    3  A    between atoms: N_8  and  C_11
REMARK    4  A    between atoms: C_11  and  C_14
REMARK    5  A    between atoms: C_22  and  C_28
REMARK                            x       y       z     vdW  Elec       q    Type
REMARK                         _______ _______ _______ _____ _____    ______ ____
ROOT
ATOM      1  N   UNL     1      34.414 -22.664 -19.395  0.00  0.00    +0.388 N 
ATOM      2  C   UNL     1      34.854 -20.128 -20.786  0.00  0.00    -0.066 C 
ATOM      3  C   UNL     1      35.748 -22.047 -19.413  0.00  0.00    -0.079 C 
ATOM      4  C   UNL     1      33.355 -21.646 -19.438  0.00  0.00    -0.079 C 
ATOM      5  C   UNL     1      35.945 -21.196 -20.671  0.00  0.00    -0.044 C 
ATOM      6  C   UNL     1      33.472 -20.782 -20.696  0.00  0.00    -0.044 C 
ATOM      7  H   UNL     1      34.326 -23.244 -20.228  0.00  0.00    -0.080 HD
ENDROOT
BRANCH   2   8
ATOM      8  N   UNL     1      35.001 -19.389 -22.038  0.00  0.00    +0.389 N 
ATOM      9  H   UNL     1      34.091 -19.029 -22.323  0.00  0.00    -0.084 HD
ATOM     10  H   UNL     1      35.372 -20.021 -22.749  0.00  0.00    -0.084 HD
BRANCH   8  11
ATOM     11  C   UNL     1      35.925 -18.277 -21.876  0.00  0.00    -0.034 C 
BRANCH  11  14
ATOM     12  O   UNL     1      33.939 -13.472 -23.939  0.00  0.00    -0.474 OA
ATOM     13  N   UNL     1      35.159 -15.982 -21.629  0.00  0.00    -0.247 NA
ATOM     14  C   UNL     1      35.386 -17.007 -22.480  0.00  0.00    +0.037 C 
ATOM     15  C   UNL     1      35.154 -16.951 -23.846  0.00  0.00    +0.011 C 
ATOM     16  C   UNL     1      34.649 -15.765 -24.382  0.00  0.00    +0.015 C 
ATOM     17  C   UNL     1      34.379 -15.654 -25.855  0.00  0.00    +0.033 C 
ATOM     18  C   UNL     1      34.426 -14.681 -23.531  0.00  0.00    +0.154 C 
ATOM     19  C   UNL     1      33.483 -14.455 -26.137  0.00  0.00    +0.052 C 
ATOM     20  C   UNL     1      34.681 -14.842 -22.176  0.00  0.00    +0.135 C 
ATOM     21  C   UNL     1      33.989 -13.253 -25.354  0.00  0.00    +0.206 C 
ENDBRANCH  11  14
ENDBRANCH   8  11
ENDBRANCH   2   8
BRANCH   1  22
ATOM     22  C   UNL     1      34.261 -23.514 -18.214  0.00  0.00    -0.055 C 
BRANCH  22  28
ATOM     23  O   UNL     1      31.376 -23.102 -16.474  0.00  0.00    -0.273 OA
ATOM     24  O   UNL     1      37.969 -23.494 -14.406  0.00  0.00    -0.270 OA
ATOM     25  N   UNL     1      33.612 -23.286 -15.828  0.00  0.00    -0.261 N 
ATOM     26  N   UNL     1      35.757 -23.411 -15.102  0.00  0.00    -0.255 N 
ATOM     27  N   UNL     1      32.686 -24.500 -13.476  0.00  0.00    -0.262 NA
ATOM     28  C   UNL     1      34.397 -22.699 -16.933  0.00  0.00    +0.076 C 
ATOM     29  C   UNL     1      35.852 -22.713 -16.392  0.00  0.00    +0.113 C 
ATOM     30  C   UNL     1      34.449 -23.684 -14.837  0.00  0.00    +0.196 C 
ATOM     31  C   UNL     1      34.014 -24.264 -13.722  0.00  0.00    +0.092 C 
ATOM     32  C   UNL     1      32.256 -23.434 -15.696  0.00  0.00    +0.252 C 
ATOM     33  C   UNL     1      36.777 -23.725 -14.225  0.00  0.00    +0.251 C 
ATOM     34  C   UNL     1      35.008 -24.642 -12.742  0.00  0.00    +0.022 C 
ATOM     35  C   UNL     1      31.852 -24.111 -14.396  0.00  0.00    +0.210 C 
ATOM     36  C   UNL     1      36.315 -24.402 -12.958  0.00  0.00    +0.059 C 
ENDBRANCH  22  28
ENDBRANCH   1  22
TORSDOF 5
ENDMDL
MODEL 4
REMARK VINA RESULT:     -11.5      1.803     10.718
REMARK  Name = 25101874
REMARK  5 active torsions:
REMARK  status: ('A' for Active; 'I' for Inactive)
REMARK    1  A    between atoms: N_1  and  C_22
REMARK    2  A    between atoms: C_2  and  N_8
REMARK    3  A    between atoms: N_8  and  C_11
REMARK    4  A    between atoms: C_11  and  C_14
REMARK    5  A    between atoms: C_22  and  C_28
REMARK                            x       y       z     vdW  Elec       q    Type
REMARK                         _______ _______ _______ _____ _____    ______ ____
ROOT
ATOM      1  N   UNL     1      35.112 -21.968 -19.222  0.00  0.00    +0.388 N 
ATOM      2  C   UNL     1      34.932 -19.975 -21.357  0.00  0.00    -0.066 C 
ATOM      3  C   UNL     1      36.280 -21.151 -19.578  0.00  0.00    -0.079 C 
ATOM      4  C   UNL     1      33.859 -21.235 -19.452  0.00  0.00    -0.079 C 
ATOM      5  C   UNL     1      36.230 -20.725 -21.047  0.00  0.00    -0.044 C 
ATOM      6  C   UNL     1      33.728 -20.812 -20.917  0.00  0.00    -0.044 C 
ATOM      7  H   UNL     1      35.110 -22.790 -19.826  0.00  0.00    -0.080 HD
ENDROOT
BRANCH   2   8
ATOM      8  N   UNL     1      34.857 -19.661 -22.782  0.00  0.00    +0.389 N 
ATOM      9  H   UNL     1      33.962 -19.214 -22.979  0.00  0.00    -0.084 HD
ATOM     10  H   UNL     1      34.946 -20.528 -23.312  0.00  0.00    -0.084 HD
BRANCH   8  11
ATOM     11  C   UNL     1      35.935 -18.763 -23.170  0.00  0.00    -0.034 C 
BRANCH  11  14
ATOM     12  O   UNL     1      34.120 -13.540 -24.013  0.00  0.00    -0.474 OA
ATOM     13  N   UNL     1      35.421 -16.513 -22.404  0.00  0.00    -0.247 NA
ATOM     14  C   UNL     1      35.433 -17.371 -23.448  0.00  0.00    +0.037 C 
ATOM     15  C   UNL     1      35.016 -17.043 -24.729  0.00  0.00    +0.011 C 
ATOM     16  C   UNL     1      34.549 -15.748 -24.961  0.00  0.00    +0.015 C 
ATOM     17  C   UNL     1      34.085 -15.344 -26.330  0.00  0.00    +0.033 C 
ATOM     18  C   UNL     1      34.549 -14.832 -23.906  0.00  0.00    +0.154 C 
ATOM     19  C   UNL     1      33.271 -14.059 -26.253  0.00  0.00    +0.052 C 
ATOM     20  C   UNL     1      34.977 -15.263 -22.659  0.00  0.00    +0.135 C 
ATOM     21  C   UNL     1      33.990 -13.061 -25.357  0.00  0.00    +0.206 C 
ENDBRANCH  11  14
ENDBRANCH   8  11
ENDBRANCH   2   8
BRANCH   1  22
ATOM     22  C   UNL     1      35.200 -22.409 -17.830  0.00  0.00    -0.055 C 
BRANCH  22  28
ATOM     23  O   UNL     1      36.330 -24.711 -15.607  0.00  0.00    -0.273 OA
ATOM     24  O   UNL     1      29.934 -22.541 -17.120  0.00  0.00    -0.270 OA
ATOM     25  N   UNL     1      34.199 -23.910 -16.125  0.00  0.00    -0.261 N 
ATOM     26  N   UNL     1      32.085 -23.229 -16.584  0.00  0.00    -0.255 N 
ATOM     27  N   UNL     1      33.528 -24.368 -13.441  0.00  0.00    -0.262 NA
ATOM     28  C   UNL     1      34.240 -23.562 -17.560  0.00  0.00    +0.076 C 
ATOM     29  C   UNL     1      32.771 -23.177 -17.883  0.00  0.00    +0.113 C 
ATOM     30  C   UNL     1      32.954 -23.678 -15.637  0.00  0.00    +0.196 C 
ATOM     31  C   UNL     1      32.634 -23.890 -14.364  0.00  0.00    +0.092 C 
ATOM     32  C   UNL     1      35.181 -24.420 -15.316  0.00  0.00    +0.252 C 
ATOM     33  C   UNL     1      30.763 -22.937 -16.306  0.00  0.00    +0.251 C 
ATOM     34  C   UNL     1      31.273 -23.603 -13.968  0.00  0.00    +0.022 C 
ATOM     35  C   UNL     1      34.726 -24.623 -13.880  0.00  0.00    +0.210 C 
ATOM     36  C   UNL     1      30.375 -23.149 -14.864  0.00  0.00    +0.059 C 
ENDBRANCH  22  28
ENDBRANCH   1  22
TORSDOF 5
ENDMDL
MODEL 5
REMARK VINA RESULT:     -11.3      1.429      2.227
REMARK  Name = 25101874
REMARK  5 active torsions:
REMARK  status: ('A' for Active; 'I' for Inactive)
REMARK    1  A    between atoms: N_1  and  C_22
REMARK    2  A    between atoms: C_2  and  N_8
REMARK    3  A    between atoms: N_8  and  C_11
REMARK    4  A    between atoms: C_11  and  C_14
REMARK    5  A    between atoms: C_22  and  C_28
REMARK                            x       y       z     vdW  Elec       q    Type
REMARK                         _______ _______ _______ _____ _____    ______ ____
ROOT
ATOM      1  N   UNL     1      36.320 -19.061 -22.718  0.00  0.00    +0.388 N 
ATOM      2  C   UNL     1      35.801 -20.607 -20.289  0.00  0.00    -0.066 C 
ATOM      3  C   UNL     1      34.953 -19.486 -22.384  0.00  0.00    -0.079 C 
ATOM      4  C   UNL     1      37.118 -18.831 -21.505  0.00  0.00    -0.079 C 
ATOM      5  C   UNL     1      34.962 -20.775 -21.558  0.00  0.00    -0.044 C 
ATOM      6  C   UNL     1      37.199 -20.098 -20.650  0.00  0.00    -0.044 C 
ATOM      7  H   UNL     1      36.761 -19.813 -23.246  0.00  0.00    -0.080 HD
ENDROOT
BRANCH   2   8
ATOM      8  N   UNL     1      35.878 -21.873 -19.563  0.00  0.00    +0.389 N 
ATOM      9  H   UNL     1      36.205 -22.603 -20.195  0.00  0.00    -0.084 HD
ATOM     10  H   UNL     1      34.949 -22.102 -19.206  0.00  0.00    -0.084 HD
BRANCH   8  11
ATOM     11  C   UNL     1      36.795 -21.769 -18.438  0.00  0.00    -0.034 C 
BRANCH  11  14
ATOM     12  O   UNL     1      34.603 -24.306 -13.961  0.00  0.00    -0.474 OA
ATOM     13  N   UNL     1      34.994 -22.929 -17.289  0.00  0.00    -0.247 NA
ATOM     14  C   UNL     1      36.250 -22.439 -17.204  0.00  0.00    +0.037 C 
ATOM     15  C   UNL     1      37.041 -22.517 -16.069  0.00  0.00    +0.011 C 
ATOM     16  C   UNL     1      36.511 -23.137 -14.936  0.00  0.00    +0.015 C 
ATOM     17  C   UNL     1      37.328 -23.246 -13.681  0.00  0.00    +0.033 C 
ATOM     18  C   UNL     1      35.225 -23.675 -15.001  0.00  0.00    +0.154 C 
ATOM     19  C   UNL     1      36.431 -23.583 -12.497  0.00  0.00    +0.052 C 
ATOM     20  C   UNL     1      34.510 -23.535 -16.182  0.00  0.00    +0.135 C 
ATOM     21  C   UNL     1      35.474 -24.697 -12.893  0.00  0.00    +0.206 C 
ENDBRANCH  11  14
ENDBRANCH   8  11
ENDBRANCH   2   8
BRANCH   1  22
ATOM     22  C   UNL     1      36.292 -17.857 -23.549  0.00  0.00    -0.055 C 
BRANCH  22  28
ATOM     23  O   UNL     1      35.142 -16.339 -20.740  0.00  0.00    -0.273 OA
ATOM     24  O   UNL     1      33.813 -15.216 -27.439  0.00  0.00    -0.270 OA
ATOM     25  N   UNL     1      34.765 -15.974 -23.015  0.00  0.00    -0.261 N 
ATOM     26  N   UNL     1      34.300 -15.567 -25.197  0.00  0.00    -0.255 N 
ATOM     27  N   UNL     1      34.444 -13.261 -22.383  0.00  0.00    -0.262 NA
ATOM     28  C   UNL     1      34.878 -17.300 -23.656  0.00  0.00    +0.076 C 
ATOM     29  C   UNL     1      34.476 -17.025 -25.131  0.00  0.00    +0.113 C 
ATOM     30  C   UNL     1      34.455 -15.041 -23.950  0.00  0.00    +0.196 C 
ATOM     31  C   UNL     1      34.306 -13.753 -23.655  0.00  0.00    +0.092 C 
ATOM     32  C   UNL     1      34.899 -15.622 -21.697  0.00  0.00    +0.252 C 
ATOM     33  C   UNL     1      33.976 -14.796 -26.297  0.00  0.00    +0.251 C 
ATOM     34  C   UNL     1      33.977 -12.859 -24.743  0.00  0.00    +0.022 C 
ATOM     35  C   UNL     1      34.720 -14.132 -21.456  0.00  0.00    +0.210 C 
ATOM     36  C   UNL     1      33.820 -13.326 -25.996  0.00  0.00    +0.059 C 
ENDBRANCH  22  28
ENDBRANCH   1  22
TORSDOF 5
ENDMDL
MODEL 6
REMARK VINA RESULT:     -11.3      2.160     10.573
REMARK  Name = 25101874
REMARK  5 active torsions:
REMARK  status: ('A' for Active; 'I' for Inactive)
REMARK    1  A    between atoms: N_1  and  C_22
REMARK    2  A    between atoms: C_2  and  N_8
REMARK    3  A    between atoms: N_8  and  C_11
REMARK    4  A    between atoms: C_11  and  C_14
REMARK    5  A    between atoms: C_22  and  C_28
REMARK                            x       y       z     vdW  Elec       q    Type
REMARK                         _______ _______ _______ _____ _____    ______ ____
ROOT
ATOM      1  N   UNL     1      34.806 -22.199 -19.993  0.00  0.00    +0.388 N 
ATOM      2  C   UNL     1      35.097 -19.531 -21.157  0.00  0.00    -0.066 C 
ATOM      3  C   UNL     1      36.085 -21.482 -19.901  0.00  0.00    -0.079 C 
ATOM      4  C   UNL     1      33.672 -21.265 -20.004  0.00  0.00    -0.079 C 
ATOM      5  C   UNL     1      36.264 -20.517 -21.076  0.00  0.00    -0.044 C 
ATOM      6  C   UNL     1      33.769 -20.293 -21.183  0.00  0.00    -0.044 C 
ATOM      7  H   UNL     1      34.798 -22.714 -20.873  0.00  0.00    -0.080 HD
ENDROOT
BRANCH   2   8
ATOM      8  N   UNL     1      35.234 -18.682 -22.338  0.00  0.00    +0.389 N 
ATOM      9  H   UNL     1      34.308 -18.382 -22.645  0.00  0.00    -0.084 HD
ATOM     10  H   UNL     1      35.696 -19.217 -23.074  0.00  0.00    -0.084 HD
BRANCH   8  11
ATOM     11  C   UNL     1      36.041 -17.508 -22.041  0.00  0.00    -0.034 C 
BRANCH  11  14
ATOM     12  O   UNL     1      33.246 -12.754 -22.977  0.00  0.00    -0.474 OA
ATOM     13  N   UNL     1      35.448 -15.597 -23.421  0.00  0.00    -0.247 NA
ATOM     14  C   UNL     1      35.269 -16.230 -22.242  0.00  0.00    +0.037 C 
ATOM     15  C   UNL     1      34.435 -15.775 -21.232  0.00  0.00    +0.011 C 
ATOM     16  C   UNL     1      33.735 -14.585 -21.439  0.00  0.00    +0.015 C 
ATOM     17  C   UNL     1      32.820 -14.050 -20.376  0.00  0.00    +0.033 C 
ATOM     18  C   UNL     1      33.881 -13.921 -22.659  0.00  0.00    +0.154 C 
ATOM     19  C   UNL     1      32.493 -12.588 -20.650  0.00  0.00    +0.052 C 
ATOM     20  C   UNL     1      34.749 -14.454 -23.601  0.00  0.00    +0.135 C 
ATOM     21  C   UNL     1      32.147 -12.419 -22.122  0.00  0.00    +0.206 C 
ENDBRANCH  11  14
ENDBRANCH   8  11
ENDBRANCH   2   8
BRANCH   1  22
ATOM     22  C   UNL     1      34.674 -23.152 -18.891  0.00  0.00    -0.055 C 
BRANCH  22  28
ATOM     23  O   UNL     1      31.660 -22.718 -17.392  0.00  0.00    -0.273 OA
ATOM     24  O   UNL     1      38.005 -23.606 -14.774  0.00  0.00    -0.270 OA
ATOM     25  N   UNL     1      33.815 -23.066 -16.564  0.00  0.00    -0.261 N 
ATOM     26  N   UNL     1      35.874 -23.356 -15.658  0.00  0.00    -0.255 N 
ATOM     27  N   UNL     1      32.617 -24.398 -14.405  0.00  0.00    -0.262 NA
ATOM     28  C   UNL     1      34.726 -22.442 -17.544  0.00  0.00    +0.076 C 
ATOM     29  C   UNL     1      36.122 -22.572 -16.876  0.00  0.00    +0.113 C 
ATOM     30  C   UNL     1      34.536 -23.578 -15.535  0.00  0.00    +0.196 C 
ATOM     31  C   UNL     1      33.972 -24.214 -14.512  0.00  0.00    +0.092 C 
ATOM     32  C   UNL     1      32.447 -23.151 -16.566  0.00  0.00    +0.252 C 
ATOM     33  C   UNL     1      36.792 -23.787 -14.720  0.00  0.00    +0.251 C 
ATOM     34  C   UNL     1      34.852 -24.715 -13.479  0.00  0.00    +0.022 C 
ATOM     35  C   UNL     1      31.892 -23.899 -15.364  0.00  0.00    +0.210 C 
ATOM     36  C   UNL     1      36.183 -24.529 -13.557  0.00  0.00    +0.059 C 
ENDBRANCH  22  28
ENDBRANCH   1  22
TORSDOF 5
ENDMDL
MODEL 7
REMARK VINA RESULT:     -11.2      3.444      5.704
REMARK  Name = 25101874
REMARK  5 active torsions:
REMARK  status: ('A' for Active; 'I' for Inactive)
REMARK    1  A    between atoms: N_1  and  C_22
REMARK    2  A    between atoms: C_2  and  N_8
REMARK    3  A    between atoms: N_8  and  C_11
REMARK    4  A    between atoms: C_11  and  C_14
REMARK    5  A    between atoms: C_22  and  C_28
REMARK                            x       y       z     vdW  Elec       q    Type
REMARK                         _______ _______ _______ _____ _____    ______ ____
ROOT
ATOM      1  N   UNL     1      34.279 -13.890 -23.411  0.00  0.00    +0.388 N 
ATOM      2  C   UNL     1      35.248 -16.640 -23.647  0.00  0.00    -0.066 C 
ATOM      3  C   UNL     1      35.167 -14.457 -22.386  0.00  0.00    -0.079 C 
ATOM      4  C   UNL     1      34.551 -14.471 -24.733  0.00  0.00    -0.079 C 
ATOM      5  C   UNL     1      35.001 -15.976 -22.291  0.00  0.00    -0.044 C 
ATOM      6  C   UNL     1      34.365 -15.991 -24.716  0.00  0.00    -0.044 C 
ATOM      7  H   UNL     1      33.319 -14.123 -23.157  0.00  0.00    -0.080 HD
ENDROOT
BRANCH   2   8
ATOM      8  N   UNL     1      34.993 -18.076 -23.561  0.00  0.00    +0.389 N 
ATOM      9  H   UNL     1      35.108 -18.493 -24.484  0.00  0.00    -0.084 HD
ATOM     10  H   UNL     1      34.041 -18.219 -23.223  0.00  0.00    -0.084 HD
BRANCH   8  11
ATOM     11  C   UNL     1      35.916 -18.711 -22.632  0.00  0.00    -0.034 C 
BRANCH  11  14
ATOM     12  O   UNL     1      33.115 -22.155 -19.228  0.00  0.00    -0.474 OA
ATOM     13  N   UNL     1      33.865 -19.724 -21.808  0.00  0.00    -0.247 NA
ATOM     14  C   UNL     1      35.209 -19.649 -21.690  0.00  0.00    +0.037 C 
ATOM     15  C   UNL     1      35.950 -20.371 -20.768  0.00  0.00    +0.011 C 
ATOM     16  C   UNL     1      35.272 -21.229 -19.901  0.00  0.00    +0.015 C 
ATOM     17  C   UNL     1      36.030 -22.033 -18.883  0.00  0.00    +0.033 C 
ATOM     18  C   UNL     1      33.885 -21.347 -20.016  0.00  0.00    +0.154 C 
ATOM     19  C   UNL     1      35.079 -22.568 -17.821  0.00  0.00    +0.052 C 
ATOM     20  C   UNL     1      33.235 -20.572 -20.966  0.00  0.00    +0.135 C 
ATOM     21  C   UNL     1      33.845 -23.147 -18.496  0.00  0.00    +0.206 C 
ENDBRANCH  11  14
ENDBRANCH   8  11
ENDBRANCH   2   8
BRANCH   1  22
ATOM     22  C   UNL     1      34.412 -12.434 -23.454  0.00  0.00    -0.055 C 
BRANCH  22  28
ATOM     23  O   UNL     1      32.192 -13.883 -21.336  0.00  0.00    -0.273 OA
ATOM     24  O   UNL     1      33.000  -7.311 -23.348  0.00  0.00    -0.270 OA
ATOM     25  N   UNL     1      32.539 -11.676 -22.013  0.00  0.00    -0.261 N 
ATOM     26  N   UNL     1      32.765  -9.509 -22.641  0.00  0.00    -0.255 N 
ATOM     27  N   UNL     1      31.637 -10.904 -19.472  0.00  0.00    -0.262 NA
ATOM     28  C   UNL     1      33.048 -11.758 -23.397  0.00  0.00    +0.076 C 
ATOM     29  C   UNL     1      33.120 -10.273 -23.845  0.00  0.00    +0.113 C 
ATOM     30  C   UNL     1      32.423 -10.374 -21.647  0.00  0.00    +0.196 C 
ATOM     31  C   UNL     1      31.999 -10.004 -20.442  0.00  0.00    +0.092 C 
ATOM     32  C   UNL     1      32.178 -12.677 -21.149  0.00  0.00    +0.252 C 
ATOM     33  C   UNL     1      32.714  -8.137 -22.486  0.00  0.00    +0.251 C 
ATOM     34  C   UNL     1      31.921  -8.585 -20.176  0.00  0.00    +0.022 C 
ATOM     35  C   UNL     1      31.714 -12.162 -19.797  0.00  0.00    +0.210 C 
ATOM     36  C   UNL     1      32.256  -7.687 -21.121  0.00  0.00    +0.059 C 
ENDBRANCH  22  28
ENDBRANCH   1  22
TORSDOF 5
ENDMDL
MODEL 8
REMARK VINA RESULT:     -11.1      3.205     11.547
REMARK  Name = 25101874
REMARK  5 active torsions:
REMARK  status: ('A' for Active; 'I' for Inactive)
REMARK    1  A    between atoms: N_1  and  C_22
REMARK    2  A    between atoms: C_2  and  N_8
REMARK    3  A    between atoms: N_8  and  C_11
REMARK    4  A    between atoms: C_11  and  C_14
REMARK    5  A    between atoms: C_22  and  C_28
REMARK                            x       y       z     vdW  Elec       q    Type
REMARK                         _______ _______ _______ _____ _____    ______ ____
ROOT
ATOM      1  N   UNL     1      34.825 -22.704 -17.176  0.00  0.00    +0.388 N 
ATOM      2  C   UNL     1      34.745 -21.788 -19.954  0.00  0.00    -0.066 C 
ATOM      3  C   UNL     1      33.742 -23.134 -18.072  0.00  0.00    -0.079 C 
ATOM      4  C   UNL     1      36.071 -22.476 -17.921  0.00  0.00    -0.079 C 
ATOM      5  C   UNL     1      33.473 -22.089 -19.157  0.00  0.00    -0.044 C 
ATOM      6  C   UNL     1      35.881 -21.408 -19.001  0.00  0.00    -0.044 C 
ATOM      7  H   UNL     1      34.547 -21.820 -16.751  0.00  0.00    -0.080 HD
ENDROOT
BRANCH   2   8
ATOM      8  N   UNL     1      34.495 -20.721 -20.920  0.00  0.00    +0.389 N 
ATOM      9  H   UNL     1      33.906 -20.009 -20.488  0.00  0.00    -0.084 HD
ATOM     10  H   UNL     1      34.029 -21.120 -21.735  0.00  0.00    -0.084 HD
BRANCH   8  11
ATOM     11  C   UNL     1      35.743 -20.110 -21.351  0.00  0.00    -0.034 C 
BRANCH  11  14
ATOM     12  O   UNL     1      34.946 -15.101 -23.711  0.00  0.00    -0.474 OA
ATOM     13  N   UNL     1      35.619 -17.683 -21.260  0.00  0.00    -0.247 NA
ATOM     14  C   UNL     1      35.515 -18.786 -22.033  0.00  0.00    +0.037 C 
ATOM     15  C   UNL     1      35.216 -18.763 -23.386  0.00  0.00    +0.011 C 
ATOM     16  C   UNL     1      35.003 -17.525 -23.995  0.00  0.00    +0.015 C 
ATOM     17  C   UNL     1      34.674 -17.447 -25.457  0.00  0.00    +0.033 C 
ATOM     18  C   UNL     1      35.127 -16.366 -23.227  0.00  0.00    +0.154 C 
ATOM     19  C   UNL     1      34.105 -16.076 -25.797  0.00  0.00    +0.052 C 
ATOM     20  C   UNL     1      35.420 -16.497 -21.877  0.00  0.00    +0.135 C 
ATOM     21  C   UNL     1      34.958 -15.001 -25.140  0.00  0.00    +0.206 C 
ENDBRANCH  11  14
ENDBRANCH   8  11
ENDBRANCH   2   8
BRANCH   1  22
ATOM     22  C   UNL     1      35.034 -23.690 -16.116  0.00  0.00    -0.055 C 
BRANCH  22  28
ATOM     23  O   UNL     1      33.981 -23.616 -12.890  0.00  0.00    -0.273 OA
ATOM     24  O   UNL     1      40.238 -24.670 -15.656  0.00  0.00    -0.270 OA
ATOM     25  N   UNL     1      36.060 -24.011 -13.879  0.00  0.00    -0.261 N 
ATOM     26  N   UNL     1      38.129 -24.364 -14.738  0.00  0.00    -0.255 N 
ATOM     27  N   UNL     1      36.605 -25.716 -11.720  0.00  0.00    -0.262 NA
ATOM     28  C   UNL     1      36.074 -23.203 -15.115  0.00  0.00    +0.076 C 
ATOM     29  C   UNL     1      37.521 -23.385 -15.650  0.00  0.00    +0.113 C 
ATOM     30  C   UNL     1      37.247 -24.654 -13.742  0.00  0.00    +0.196 C 
ATOM     31  C   UNL     1      37.507 -25.466 -12.721  0.00  0.00    +0.092 C 
ATOM     32  C   UNL     1      35.080 -24.147 -12.930  0.00  0.00    +0.252 C 
ATOM     33  C   UNL     1      39.399 -24.904 -14.790  0.00  0.00    +0.251 C 
ATOM     34  C   UNL     1      38.811 -26.092 -12.691  0.00  0.00    +0.022 C 
ATOM     35  C   UNL     1      35.463 -25.098 -11.808  0.00  0.00    +0.210 C 
ATOM     36  C   UNL     1      39.717 -25.846 -13.656  0.00  0.00    +0.059 C 
ENDBRANCH  22  28
ENDBRANCH   1  22
TORSDOF 5
ENDMDL
MODEL 9
REMARK VINA RESULT:     -11.1      2.420     11.310
REMARK  Name = 25101874
REMARK  5 active torsions:
REMARK  status: ('A' for Active; 'I' for Inactive)
REMARK    1  A    between atoms: N_1  and  C_22
REMARK    2  A    between atoms: C_2  and  N_8
REMARK    3  A    between atoms: N_8  and  C_11
REMARK    4  A    between atoms: C_11  and  C_14
REMARK    5  A    between atoms: C_22  and  C_28
REMARK                            x       y       z     vdW  Elec       q    Type
REMARK                         _______ _______ _______ _____ _____    ______ ____
ROOT
ATOM      1  N   UNL     1      35.373 -21.980 -18.329  0.00  0.00    +0.388 N 
ATOM      2  C   UNL     1      34.969 -20.946 -21.037  0.00  0.00    -0.066 C 
ATOM      3  C   UNL     1      34.201 -22.390 -19.116  0.00  0.00    -0.079 C 
ATOM      4  C   UNL     1      36.525 -21.699 -19.197  0.00  0.00    -0.079 C 
ATOM      5  C   UNL     1      33.800 -21.303 -20.117  0.00  0.00    -0.044 C 
ATOM      6  C   UNL     1      36.201 -20.588 -20.200  0.00  0.00    -0.044 C 
ATOM      7  H   UNL     1      35.134 -21.121 -17.836  0.00  0.00    -0.080 HD
ENDROOT
BRANCH   2   8
ATOM      8  N   UNL     1      34.599 -19.843 -21.920  0.00  0.00    +0.389 N 
ATOM      9  H   UNL     1      33.875 -19.282 -21.470  0.00  0.00    -0.084 HD
ATOM     10  H   UNL     1      34.254 -20.229 -22.799  0.00  0.00    -0.084 HD
BRANCH   8  11
ATOM     11  C   UNL     1      35.750 -18.998 -22.202  0.00  0.00    -0.034 C 
BRANCH  11  14
ATOM     12  O   UNL     1      34.359 -14.678 -25.473  0.00  0.00    -0.474 OA
ATOM     13  N   UNL     1      35.284 -18.003 -24.371  0.00  0.00    -0.247 NA
ATOM     14  C   UNL     1      35.377 -17.802 -23.039  0.00  0.00    +0.037 C 
ATOM     15  C   UNL     1      35.154 -16.583 -22.418  0.00  0.00    +0.011 C 
ATOM     16  C   UNL     1      34.816 -15.488 -23.215  0.00  0.00    +0.015 C 
ATOM     17  C   UNL     1      34.566 -14.145 -22.591  0.00  0.00    +0.033 C 
ATOM     18  C   UNL     1      34.688 -15.671 -24.594  0.00  0.00    +0.154 C 
ATOM     19  C   UNL     1      34.610 -13.055 -23.653  0.00  0.00    +0.052 C 
ATOM     20  C   UNL     1      34.942 -16.930 -25.118  0.00  0.00    +0.135 C 
ATOM     21  C   UNL     1      33.810 -13.502 -24.867  0.00  0.00    +0.206 C 
ENDBRANCH  11  14
ENDBRANCH   8  11
ENDBRANCH   2   8
BRANCH   1  22
ATOM     22  C   UNL     1      35.712 -23.007 -17.345  0.00  0.00    -0.055 C 
BRANCH  22  28
ATOM     23  O   UNL     1      32.635 -22.636 -15.963  0.00  0.00    -0.273 OA
ATOM     24  O   UNL     1      38.811 -23.954 -13.131  0.00  0.00    -0.270 OA
ATOM     25  N   UNL     1      34.735 -23.124 -15.066  0.00  0.00    -0.261 N 
ATOM     26  N   UNL     1      36.736 -23.560 -14.092  0.00  0.00    -0.255 N 
ATOM     27  N   UNL     1      33.395 -24.626 -13.113  0.00  0.00    -0.262 NA
ATOM     28  C   UNL     1      35.710 -22.433 -15.933  0.00  0.00    +0.076 C 
ATOM     29  C   UNL     1      37.066 -22.667 -15.213  0.00  0.00    +0.113 C 
ATOM     30  C   UNL     1      35.389 -23.755 -14.058  0.00  0.00    +0.196 C 
ATOM     31  C   UNL     1      34.757 -24.471 -13.132  0.00  0.00    +0.092 C 
ATOM     32  C   UNL     1      33.367 -23.170 -15.145  0.00  0.00    +0.252 C 
ATOM     33  C   UNL     1      37.593 -24.106 -13.156  0.00  0.00    +0.251 C 
ATOM     34  C   UNL     1      35.570 -25.095 -12.111  0.00  0.00    +0.022 C 
ATOM     35  C   UNL     1      32.733 -24.015 -14.052  0.00  0.00    +0.210 C 
ATOM     36  C   UNL     1      36.907 -24.940 -12.104  0.00  0.00    +0.059 C 
ENDBRANCH  22  28
ENDBRANCH   1  22
TORSDOF 5
ENDMDL
