MODEL 1
REMARK VINA RESULT:     -12.6      0.000      0.000
REMARK  Name = 25049750
REMARK  7 active torsions:
REMARK  status: ('A' for Active; 'I' for Inactive)
REMARK    1  A    between atoms: C_1  and  C_14
REMARK    2  A    between atoms: C_6  and  O_20
REMARK    3  A    between atoms: C_10  and  C_17
REMARK    4  A    between atoms: C_17  and  O_18
REMARK    5  A    between atoms: O_20  and  C_21
REMARK    6  A    between atoms: C_21  and  C_23
REMARK    7  A    between atoms: C_27  and  C_32
REMARK                            x       y       z     vdW  Elec       q    Type
REMARK                         _______ _______ _______ _____ _____    ______ ____
ROOT
ATOM      1  C   UNL     1      35.326 -19.989 -21.902  0.00  0.00    -0.004 C 
ATOM      2  C   UNL     1      33.939 -19.888 -21.781  0.00  0.00    +0.000 C 
ATOM      3  C   UNL     1      36.055 -20.724 -20.967  0.00  0.00    +0.000 C 
ATOM      4  C   UNL     1      33.283 -20.521 -20.725  0.00  0.00    +0.037 C 
ATOM      5  C   UNL     1      35.398 -21.356 -19.911  0.00  0.00    +0.037 C 
ATOM      6  C   UNL     1      34.012 -21.256 -19.791  0.00  0.00    +0.139 C 
ENDROOT
BRANCH   1  14
ATOM      7  O   UNL     1      34.123 -17.712 -25.584  0.00  0.00    -0.275 OA
ATOM      8  N   UNL     1      35.229 -19.292 -24.256  0.00  0.00    -0.302 N 
ATOM      9  C   UNL     1      35.425 -17.102 -23.688  0.00  0.00    +0.081 C 
ATOM     10  C   UNL     1      34.594 -15.997 -23.135  0.00  0.00    +0.108 C 
ATOM     11  C   UNL     1      35.730 -15.700 -24.077  0.00  0.00    +0.021 C 
ATOM     12  C   UNL     1      36.357 -17.817 -22.780  0.00  0.00    +0.033 C 
ATOM     13  C   UNL     1      34.831 -18.025 -24.639  0.00  0.00    +0.222 C 
ATOM     14  C   UNL     1      36.037 -19.304 -23.047  0.00  0.00    +0.095 C 
ATOM     15  H   UNL     1      34.989 -20.107 -24.753  0.00  0.00    +0.150 HD
BRANCH  10  17
ATOM     16  O   UNL     1      35.006 -16.271 -20.843  0.00  0.00    -0.250 OA
ATOM     17  C   UNL     1      34.809 -15.519 -21.786  0.00  0.00    +0.314 C 
BRANCH  17  18
ATOM     18  O   UNL     1      34.769 -14.167 -21.698  0.00  0.00    -0.480 OA
ATOM     19  H   UNL     1      34.040 -13.745 -21.289  0.00  0.00    +0.295 HD
ENDBRANCH  17  18
ENDBRANCH  10  17
ENDBRANCH   1  14
BRANCH   6  20
ATOM     20  O   UNL     1      33.368 -21.878 -18.753  0.00  0.00    -0.471 OA
BRANCH  20  21
ATOM     21  C   UNL     1      33.736 -23.223 -18.484  0.00  0.00    +0.229 C 
BRANCH  21  23
ATOM     22  N   UNL     1      33.846 -23.878 -14.257  0.00  0.00    -0.406 NA
ATOM     23  C   UNL     1      33.737 -23.446 -17.004  0.00  0.00    +0.012 C 
ATOM     24  C   UNL     1      32.566 -23.380 -16.237  0.00  0.00    +0.096 C 
ATOM     25  C   UNL     1      34.954 -23.727 -16.398  0.00  0.00    +0.028 C 
ATOM     26  C   UNL     1      32.668 -23.606 -14.848  0.00  0.00    +0.117 C 
ATOM     27  C   UNL     1      34.953 -23.933 -15.033  0.00  0.00    +0.130 C 
ATOM     28  C   UNL     1      31.319 -23.099 -16.822  0.00  0.00    -0.015 C 
ATOM     29  C   UNL     1      31.504 -23.539 -14.088  0.00  0.00    +0.028 C 
ATOM     30  C   UNL     1      30.172 -23.039 -16.037  0.00  0.00    -0.004 C 
ATOM     31  C   UNL     1      30.264 -23.260 -14.669  0.00  0.00    +0.002 C 
BRANCH  27  32
ATOM     32  C   UNL     1      36.176 -24.229 -14.325  0.00  0.00    +0.030 C 
ATOM     33  C   UNL     1      36.520 -23.496 -13.189  0.00  0.00    +0.003 C 
ATOM     34  C   UNL     1      37.015 -25.248 -14.777  0.00  0.00    +0.003 C 
ATOM     35  C   UNL     1      37.701 -23.782 -12.504  0.00  0.00    +0.000 C 
ATOM     36  C   UNL     1      38.196 -25.534 -14.092  0.00  0.00    +0.000 C 
ATOM     37  C   UNL     1      38.539 -24.801 -12.957  0.00  0.00    +0.000 C 
ENDBRANCH  27  32
ENDBRANCH  21  23
ENDBRANCH  20  21
ENDBRANCH   6  20
TORSDOF 7
ENDMDL
MODEL 2
REMARK VINA RESULT:     -12.6      0.026      1.155
REMARK  Name = 25049750
REMARK  7 active torsions:
REMARK  status: ('A' for Active; 'I' for Inactive)
REMARK    1  A    between atoms: C_1  and  C_14
REMARK    2  A    between atoms: C_6  and  O_20
REMARK    3  A    between atoms: C_10  and  C_17
REMARK    4  A    between atoms: C_17  and  O_18
REMARK    5  A    between atoms: O_20  and  C_21
REMARK    6  A    between atoms: C_21  and  C_23
REMARK    7  A    between atoms: C_27  and  C_32
REMARK                            x       y       z     vdW  Elec       q    Type
REMARK                         _______ _______ _______ _____ _____    ______ ____
ROOT
ATOM      1  C   UNL     1      35.315 -19.987 -21.902  0.00  0.00    -0.004 C 
ATOM      2  C   UNL     1      36.045 -20.718 -20.963  0.00  0.00    +0.000 C 
ATOM      3  C   UNL     1      33.929 -19.888 -21.782  0.00  0.00    +0.000 C 
ATOM      4  C   UNL     1      35.388 -21.350 -19.908  0.00  0.00    +0.037 C 
ATOM      5  C   UNL     1      33.273 -20.519 -20.726  0.00  0.00    +0.037 C 
ATOM      6  C   UNL     1      34.001 -21.250 -19.788  0.00  0.00    +0.139 C 
ENDROOT
BRANCH   1  14
ATOM      7  O   UNL     1      34.119 -17.706 -25.584  0.00  0.00    -0.275 OA
ATOM      8  N   UNL     1      35.221 -19.288 -24.255  0.00  0.00    -0.302 N 
ATOM      9  C   UNL     1      35.419 -17.099 -23.685  0.00  0.00    +0.081 C 
ATOM     10  C   UNL     1      34.588 -15.993 -23.133  0.00  0.00    +0.108 C 
ATOM     11  C   UNL     1      35.726 -15.697 -24.074  0.00  0.00    +0.021 C 
ATOM     12  C   UNL     1      36.349 -17.816 -22.777  0.00  0.00    +0.033 C 
ATOM     13  C   UNL     1      34.825 -18.021 -24.638  0.00  0.00    +0.222 C 
ATOM     14  C   UNL     1      36.028 -19.302 -23.046  0.00  0.00    +0.095 C 
ATOM     15  H   UNL     1      34.981 -20.102 -24.754  0.00  0.00    +0.150 HD
BRANCH  10  17
ATOM     16  O   UNL     1      34.994 -16.269 -20.840  0.00  0.00    -0.250 OA
ATOM     17  C   UNL     1      34.802 -15.516 -21.783  0.00  0.00    +0.314 C 
BRANCH  17  18
ATOM     18  O   UNL     1      34.765 -14.164 -21.695  0.00  0.00    -0.480 OA
ATOM     19  H   UNL     1      35.538 -13.689 -21.463  0.00  0.00    +0.295 HD
ENDBRANCH  17  18
ENDBRANCH  10  17
ENDBRANCH   1  14
BRANCH   6  20
ATOM     20  O   UNL     1      33.356 -21.870 -18.750  0.00  0.00    -0.471 OA
BRANCH  20  21
ATOM     21  C   UNL     1      33.721 -23.217 -18.482  0.00  0.00    +0.229 C 
BRANCH  21  23
ATOM     22  N   UNL     1      33.832 -23.873 -14.255  0.00  0.00    -0.406 NA
ATOM     23  C   UNL     1      33.723 -23.441 -17.002  0.00  0.00    +0.012 C 
ATOM     24  C   UNL     1      32.551 -23.379 -16.236  0.00  0.00    +0.096 C 
ATOM     25  C   UNL     1      34.940 -23.718 -16.396  0.00  0.00    +0.028 C 
ATOM     26  C   UNL     1      32.653 -23.605 -14.847  0.00  0.00    +0.117 C 
ATOM     27  C   UNL     1      34.940 -23.924 -15.030  0.00  0.00    +0.130 C 
ATOM     28  C   UNL     1      31.303 -23.102 -16.821  0.00  0.00    -0.015 C 
ATOM     29  C   UNL     1      31.489 -23.543 -14.087  0.00  0.00    +0.028 C 
ATOM     30  C   UNL     1      30.155 -23.046 -16.037  0.00  0.00    -0.004 C 
ATOM     31  C   UNL     1      30.248 -23.267 -14.668  0.00  0.00    +0.002 C 
BRANCH  27  32
ATOM     32  C   UNL     1      36.163 -24.216 -14.322  0.00  0.00    +0.030 C 
ATOM     33  C   UNL     1      37.035 -25.191 -14.809  0.00  0.00    +0.003 C 
ATOM     34  C   UNL     1      36.474 -23.525 -13.152  0.00  0.00    +0.003 C 
ATOM     35  C   UNL     1      38.218 -25.473 -14.125  0.00  0.00    +0.000 C 
ATOM     36  C   UNL     1      37.657 -23.807 -12.468  0.00  0.00    +0.000 C 
ATOM     37  C   UNL     1      38.528 -24.782 -12.955  0.00  0.00    +0.000 C 
ENDBRANCH  27  32
ENDBRANCH  21  23
ENDBRANCH  20  21
ENDBRANCH   6  20
TORSDOF 7
ENDMDL
MODEL 3
REMARK VINA RESULT:     -12.1      5.015      9.710
REMARK  Name = 25049750
REMARK  7 active torsions:
REMARK  status: ('A' for Active; 'I' for Inactive)
REMARK    1  A    between atoms: C_1  and  C_14
REMARK    2  A    between atoms: C_6  and  O_20
REMARK    3  A    between atoms: C_10  and  C_17
REMARK    4  A    between atoms: C_17  and  O_18
REMARK    5  A    between atoms: O_20  and  C_21
REMARK    6  A    between atoms: C_21  and  C_23
REMARK    7  A    between atoms: C_27  and  C_32
REMARK                            x       y       z     vdW  Elec       q    Type
REMARK                         _______ _______ _______ _____ _____    ______ ____
ROOT
ATOM      1  C   UNL     1      32.105 -10.762 -21.125  0.00  0.00    -0.004 C 
ATOM      2  C   UNL     1      32.540 -11.401 -22.287  0.00  0.00    +0.000 C 
ATOM      3  C   UNL     1      32.140 -11.435 -19.904  0.00  0.00    +0.000 C 
ATOM      4  C   UNL     1      33.010 -12.713 -22.226  0.00  0.00    +0.037 C 
ATOM      5  C   UNL     1      32.610 -12.747 -19.844  0.00  0.00    +0.037 C 
ATOM      6  C   UNL     1      33.046 -13.386 -21.005  0.00  0.00    +0.139 C 
ENDROOT
BRANCH   1  14
ATOM      7  O   UNL     1      33.550  -6.724 -19.785  0.00  0.00    -0.275 OA
ATOM      8  N   UNL     1      32.097  -8.534 -20.089  0.00  0.00    -0.302 N 
ATOM      9  C   UNL     1      33.023  -7.594 -21.936  0.00  0.00    +0.081 C 
ATOM     10  C   UNL     1      34.349  -7.480 -22.605  0.00  0.00    +0.108 C 
ATOM     11  C   UNL     1      33.328  -6.381 -22.740  0.00  0.00    +0.021 C 
ATOM     12  C   UNL     1      32.042  -8.578 -22.459  0.00  0.00    +0.033 C 
ATOM     13  C   UNL     1      32.955  -7.527 -20.487  0.00  0.00    +0.222 C 
ATOM     14  C   UNL     1      31.597  -9.339 -21.191  0.00  0.00    +0.095 C 
ATOM     15  H   UNL     1      31.848  -8.691 -19.149  0.00  0.00    +0.150 HD
BRANCH  10  17
ATOM     16  O   UNL     1      34.608  -9.411 -23.910  0.00  0.00    -0.250 OA
ATOM     17  C   UNL     1      34.615  -8.191 -23.838  0.00  0.00    +0.314 C 
BRANCH  17  18
ATOM     18  O   UNL     1      34.865  -7.358 -24.877  0.00  0.00    -0.480 OA
ATOM     19  H   UNL     1      35.587  -7.526 -25.449  0.00  0.00    +0.295 HD
ENDBRANCH  17  18
ENDBRANCH  10  17
ENDBRANCH   1  14
BRANCH   6  20
ATOM     20  O   UNL     1      33.507 -14.675 -20.945  0.00  0.00    -0.471 OA
BRANCH  20  21
ATOM     21  C   UNL     1      34.848 -14.896 -21.358  0.00  0.00    +0.229 C 
BRANCH  21  23
ATOM     22  N   UNL     1      35.141 -18.776 -23.139  0.00  0.00    -0.406 NA
ATOM     23  C   UNL     1      34.947 -16.238 -22.015  0.00  0.00    +0.012 C 
ATOM     24  C   UNL     1      34.877 -16.395 -23.406  0.00  0.00    +0.096 C 
ATOM     25  C   UNL     1      35.113 -17.344 -21.194  0.00  0.00    +0.028 C 
ATOM     26  C   UNL     1      34.980 -17.700 -23.932  0.00  0.00    +0.117 C 
ATOM     27  C   UNL     1      35.203 -18.581 -21.802  0.00  0.00    +0.130 C 
ATOM     28  C   UNL     1      34.710 -15.294 -24.264  0.00  0.00    -0.015 C 
ATOM     29  C   UNL     1      34.910 -17.855 -25.314  0.00  0.00    +0.028 C 
ATOM     30  C   UNL     1      34.643 -15.479 -25.641  0.00  0.00    -0.004 C 
ATOM     31  C   UNL     1      34.744 -16.762 -26.167  0.00  0.00    +0.002 C 
BRANCH  27  32
ATOM     32  C   UNL     1      35.376 -19.782 -21.020  0.00  0.00    +0.030 C 
ATOM     33  C   UNL     1      34.267 -20.551 -20.669  0.00  0.00    +0.003 C 
ATOM     34  C   UNL     1      36.652 -20.174 -20.616  0.00  0.00    +0.003 C 
ATOM     35  C   UNL     1      34.433 -21.713 -19.914  0.00  0.00    +0.000 C 
ATOM     36  C   UNL     1      36.819 -21.336 -19.862  0.00  0.00    +0.000 C 
ATOM     37  C   UNL     1      35.709 -22.104 -19.510  0.00  0.00    +0.000 C 
ENDBRANCH  27  32
ENDBRANCH  21  23
ENDBRANCH  20  21
ENDBRANCH   6  20
TORSDOF 7
ENDMDL
MODEL 4
REMARK VINA RESULT:     -12.1      1.033      4.057
REMARK  Name = 25049750
REMARK  7 active torsions:
REMARK  status: ('A' for Active; 'I' for Inactive)
REMARK    1  A    between atoms: C_1  and  C_14
REMARK    2  A    between atoms: C_6  and  O_20
REMARK    3  A    between atoms: C_10  and  C_17
REMARK    4  A    between atoms: C_17  and  O_18
REMARK    5  A    between atoms: O_20  and  C_21
REMARK    6  A    between atoms: C_21  and  C_23
REMARK    7  A    between atoms: C_27  and  C_32
REMARK                            x       y       z     vdW  Elec       q    Type
REMARK                         _______ _______ _______ _____ _____    ______ ____
ROOT
ATOM      1  C   UNL     1      35.845 -19.533 -22.089  0.00  0.00    -0.004 C 
ATOM      2  C   UNL     1      34.477 -19.760 -21.933  0.00  0.00    +0.000 C 
ATOM      3  C   UNL     1      36.752 -20.109 -21.200  0.00  0.00    +0.000 C 
ATOM      4  C   UNL     1      34.018 -20.562 -20.889  0.00  0.00    +0.037 C 
ATOM      5  C   UNL     1      36.293 -20.912 -20.157  0.00  0.00    +0.037 C 
ATOM      6  C   UNL     1      34.925 -21.140 -20.001  0.00  0.00    +0.139 C 
ENDROOT
BRANCH   1  14
ATOM      7  O   UNL     1      34.002 -17.247 -25.490  0.00  0.00    -0.275 OA
ATOM      8  N   UNL     1      35.450 -18.705 -24.368  0.00  0.00    -0.302 N 
ATOM      9  C   UNL     1      35.334 -16.557 -23.643  0.00  0.00    +0.081 C 
ATOM     10  C   UNL     1      34.382 -15.645 -22.950  0.00  0.00    +0.108 C 
ATOM     11  C   UNL     1      35.376 -15.101 -23.941  0.00  0.00    +0.021 C 
ATOM     12  C   UNL     1      36.439 -17.166 -22.860  0.00  0.00    +0.033 C 
ATOM     13  C   UNL     1      34.823 -17.501 -24.623  0.00  0.00    +0.222 C 
ATOM     14  C   UNL     1      36.342 -18.663 -23.222  0.00  0.00    +0.095 C 
ATOM     15  H   UNL     1      35.306 -19.514 -24.911  0.00  0.00    +0.150 HD
BRANCH  10  17
ATOM     16  O   UNL     1      34.987 -16.005 -20.714  0.00  0.00    -0.250 OA
ATOM     17  C   UNL     1      34.623 -15.229 -21.585  0.00  0.00    +0.314 C 
BRANCH  17  18
ATOM     18  O   UNL     1      34.403 -13.905 -21.396  0.00  0.00    -0.480 OA
ATOM     19  H   UNL     1      34.711 -13.285 -22.026  0.00  0.00    +0.295 HD
ENDBRANCH  17  18
ENDBRANCH  10  17
ENDBRANCH   1  14
BRANCH   6  20
ATOM     20  O   UNL     1      34.474 -21.928 -18.975  0.00  0.00    -0.471 OA
BRANCH  20  21
ATOM     21  C   UNL     1      35.451 -22.423 -18.070  0.00  0.00    +0.229 C 
BRANCH  21  23
ATOM     22  N   UNL     1      33.393 -24.091 -14.710  0.00  0.00    -0.406 NA
ATOM     23  C   UNL     1      34.764 -23.010 -16.876  0.00  0.00    +0.012 C 
ATOM     24  C   UNL     1      35.464 -23.392 -15.724  0.00  0.00    +0.096 C 
ATOM     25  C   UNL     1      33.387 -23.169 -16.941  0.00  0.00    +0.028 C 
ATOM     26  C   UNL     1      34.728 -23.936 -14.649  0.00  0.00    +0.117 C 
ATOM     27  C   UNL     1      32.754 -23.710 -15.840  0.00  0.00    +0.130 C 
ATOM     28  C   UNL     1      36.858 -23.243 -15.627  0.00  0.00    -0.015 C 
ATOM     29  C   UNL     1      35.425 -24.315 -13.506  0.00  0.00    +0.028 C 
ATOM     30  C   UNL     1      37.529 -23.631 -14.471  0.00  0.00    -0.004 C 
ATOM     31  C   UNL     1      36.811 -24.167 -13.409  0.00  0.00    +0.002 C 
BRANCH  27  32
ATOM     32  C   UNL     1      31.325 -23.909 -15.826  0.00  0.00    +0.030 C 
ATOM     33  C   UNL     1      30.492 -23.036 -16.527  0.00  0.00    +0.003 C 
ATOM     34  C   UNL     1      30.775 -24.974 -15.113  0.00  0.00    +0.003 C 
ATOM     35  C   UNL     1      29.111 -23.229 -16.515  0.00  0.00    +0.000 C 
ATOM     36  C   UNL     1      29.394 -25.167 -15.100  0.00  0.00    +0.000 C 
ATOM     37  C   UNL     1      28.562 -24.293 -15.801  0.00  0.00    +0.000 C 
ENDBRANCH  27  32
ENDBRANCH  21  23
ENDBRANCH  20  21
ENDBRANCH   6  20
TORSDOF 7
ENDMDL
MODEL 5
REMARK VINA RESULT:     -11.9      5.337     12.070
REMARK  Name = 25049750
REMARK  7 active torsions:
REMARK  status: ('A' for Active; 'I' for Inactive)
REMARK    1  A    between atoms: C_1  and  C_14
REMARK    2  A    between atoms: C_6  and  O_20
REMARK    3  A    between atoms: C_10  and  C_17
REMARK    4  A    between atoms: C_17  and  O_18
REMARK    5  A    between atoms: O_20  and  C_21
REMARK    6  A    between atoms: C_21  and  C_23
REMARK    7  A    between atoms: C_27  and  C_32
REMARK                            x       y       z     vdW  Elec       q    Type
REMARK                         _______ _______ _______ _____ _____    ______ ____
ROOT
ATOM      1  C   UNL     1      35.638 -16.986 -23.382  0.00  0.00    -0.004 C 
ATOM      2  C   UNL     1      35.239 -16.498 -24.627  0.00  0.00    +0.000 C 
ATOM      3  C   UNL     1      35.330 -16.274 -22.223  0.00  0.00    +0.000 C 
ATOM      4  C   UNL     1      34.532 -15.299 -24.712  0.00  0.00    +0.037 C 
ATOM      5  C   UNL     1      34.622 -15.075 -22.308  0.00  0.00    +0.037 C 
ATOM      6  C   UNL     1      34.222 -14.588 -23.552  0.00  0.00    +0.139 C 
ENDROOT
BRANCH   1  14
ATOM      7  O   UNL     1      37.708 -19.326 -20.152  0.00  0.00    -0.275 OA
ATOM      8  N   UNL     1      37.380 -18.266 -22.214  0.00  0.00    -0.302 N 
ATOM      9  C   UNL     1      35.889 -19.860 -21.591  0.00  0.00    +0.081 C 
ATOM     10  C   UNL     1      34.806 -20.069 -20.589  0.00  0.00    +0.108 C 
ATOM     11  C   UNL     1      35.616 -21.234 -21.092  0.00  0.00    +0.021 C 
ATOM     12  C   UNL     1      35.515 -19.511 -22.985  0.00  0.00    +0.033 C 
ATOM     13  C   UNL     1      37.093 -19.151 -21.193  0.00  0.00    +0.222 C 
ATOM     14  C   UNL     1      36.404 -18.287 -23.291  0.00  0.00    +0.095 C 
ATOM     15  H   UNL     1      38.171 -17.678 -22.212  0.00  0.00    +0.150 HD
BRANCH  10  17
ATOM     16  O   UNL     1      33.060 -19.798 -22.131  0.00  0.00    -0.250 OA
ATOM     17  C   UNL     1      33.419 -20.096 -21.001  0.00  0.00    +0.314 C 
BRANCH  17  18
ATOM     18  O   UNL     1      32.586 -20.485 -20.005  0.00  0.00    -0.480 OA
ATOM     19  H   UNL     1      32.274 -19.858 -19.383  0.00  0.00    +0.295 HD
ENDBRANCH  17  18
ENDBRANCH  10  17
ENDBRANCH   1  14
BRANCH   6  20
ATOM     20  O   UNL     1      33.527 -13.409 -23.635  0.00  0.00    -0.471 OA
BRANCH  20  21
ATOM     21  C   UNL     1      32.385 -13.278 -22.801  0.00  0.00    +0.229 C 
BRANCH  21  23
ATOM     22  N   UNL     1      32.390  -9.337 -21.135  0.00  0.00    -0.406 NA
ATOM     23  C   UNL     1      32.380 -11.914 -22.184  0.00  0.00    +0.012 C 
ATOM     24  C   UNL     1      32.168 -11.715 -20.813  0.00  0.00    +0.096 C 
ATOM     25  C   UNL     1      32.597 -10.829 -23.022  0.00  0.00    +0.028 C 
ATOM     26  C   UNL     1      32.181 -10.391 -20.325  0.00  0.00    +0.117 C 
ATOM     27  C   UNL     1      32.591  -9.572 -22.452  0.00  0.00    +0.130 C 
ATOM     28  C   UNL     1      31.947 -12.793 -19.939  0.00  0.00    -0.015 C 
ATOM     29  C   UNL     1      31.970 -10.195 -18.963  0.00  0.00    +0.028 C 
ATOM     30  C   UNL     1      31.738 -12.567 -18.582  0.00  0.00    -0.004 C 
ATOM     31  C   UNL     1      31.750 -11.266 -18.093  0.00  0.00    +0.002 C 
BRANCH  27  32
ATOM     32  C   UNL     1      32.808  -8.391 -23.253  0.00  0.00    +0.030 C 
ATOM     33  C   UNL     1      34.093  -7.866 -23.389  0.00  0.00    +0.003 C 
ATOM     34  C   UNL     1      31.732  -7.774 -23.892  0.00  0.00    +0.003 C 
ATOM     35  C   UNL     1      34.303  -6.726 -24.164  0.00  0.00    +0.000 C 
ATOM     36  C   UNL     1      31.942  -6.634 -24.667  0.00  0.00    +0.000 C 
ATOM     37  C   UNL     1      33.227  -6.109 -24.802  0.00  0.00    +0.000 C 
ENDBRANCH  27  32
ENDBRANCH  21  23
ENDBRANCH  20  21
ENDBRANCH   6  20
TORSDOF 7
ENDMDL
MODEL 6
REMARK VINA RESULT:     -11.1      3.146     10.743
REMARK  Name = 25049750
REMARK  7 active torsions:
REMARK  status: ('A' for Active; 'I' for Inactive)
REMARK    1  A    between atoms: C_1  and  C_14
REMARK    2  A    between atoms: C_6  and  O_20
REMARK    3  A    between atoms: C_10  and  C_17
REMARK    4  A    between atoms: C_17  and  O_18
REMARK    5  A    between atoms: O_20  and  C_21
REMARK    6  A    between atoms: C_21  and  C_23
REMARK    7  A    between atoms: C_27  and  C_32
REMARK                            x       y       z     vdW  Elec       q    Type
REMARK                         _______ _______ _______ _____ _____    ______ ____
ROOT
ATOM      1  C   UNL     1      35.903 -21.023 -20.256  0.00  0.00    -0.004 C 
ATOM      2  C   UNL     1      34.595 -20.688 -20.610  0.00  0.00    +0.000 C 
ATOM      3  C   UNL     1      36.957 -20.178 -20.604  0.00  0.00    +0.000 C 
ATOM      4  C   UNL     1      34.342 -19.509 -21.312  0.00  0.00    +0.037 C 
ATOM      5  C   UNL     1      36.703 -18.999 -21.306  0.00  0.00    +0.037 C 
ATOM      6  C   UNL     1      35.396 -18.664 -21.659  0.00  0.00    +0.139 C 
ENDROOT
BRANCH   1  14
ATOM      7  O   UNL     1      36.330 -22.214 -15.945  0.00  0.00    -0.275 OA
ATOM      8  N   UNL     1      36.835 -22.042 -18.224  0.00  0.00    -0.302 N 
ATOM      9  C   UNL     1      34.816 -22.904 -17.646  0.00  0.00    +0.081 C 
ATOM     10  C   UNL     1      33.524 -22.460 -17.052  0.00  0.00    +0.108 C 
ATOM     11  C   UNL     1      34.017 -23.868 -16.845  0.00  0.00    +0.021 C 
ATOM     12  C   UNL     1      34.901 -23.084 -19.117  0.00  0.00    +0.033 C 
ATOM     13  C   UNL     1      36.057 -22.356 -17.126  0.00  0.00    +0.222 C 
ATOM     14  C   UNL     1      36.176 -22.300 -19.494  0.00  0.00    +0.095 C 
ATOM     15  H   UNL     1      37.748 -21.680 -18.153  0.00  0.00    +0.150 HD
BRANCH  10  17
ATOM     16  O   UNL     1      32.356 -21.994 -19.031  0.00  0.00    -0.250 OA
ATOM     17  C   UNL     1      32.332 -22.368 -17.868  0.00  0.00    +0.314 C 
BRANCH  17  18
ATOM     18  O   UNL     1      31.212 -22.741 -17.201  0.00  0.00    -0.480 OA
ATOM     19  H   UNL     1      31.062 -23.645 -17.006  0.00  0.00    +0.295 HD
ENDBRANCH  17  18
ENDBRANCH  10  17
ENDBRANCH   1  14
BRANCH   6  20
ATOM     20  O   UNL     1      35.148 -17.506 -22.349  0.00  0.00    -0.471 OA
BRANCH  20  21
ATOM     21  C   UNL     1      35.387 -16.287 -21.661  0.00  0.00    +0.229 C 
BRANCH  21  23
ATOM     22  N   UNL     1      32.917 -13.176 -23.252  0.00  0.00    -0.406 NA
ATOM     23  C   UNL     1      34.530 -15.211 -22.252  0.00  0.00    +0.012 C 
ATOM     24  C   UNL     1      34.316 -15.101 -23.633  0.00  0.00    +0.096 C 
ATOM     25  C   UNL     1      33.939 -14.309 -21.380  0.00  0.00    +0.028 C 
ATOM     26  C   UNL     1      33.491 -14.055 -24.096  0.00  0.00    +0.117 C 
ATOM     27  C   UNL     1      33.148 -13.318 -21.927  0.00  0.00    +0.130 C 
ATOM     28  C   UNL     1      34.900 -16.001 -24.542  0.00  0.00    -0.015 C 
ATOM     29  C   UNL     1      33.280 -13.946 -25.467  0.00  0.00    +0.028 C 
ATOM     30  C   UNL     1      34.671 -15.868 -25.908  0.00  0.00    -0.004 C 
ATOM     31  C   UNL     1      33.860 -14.840 -26.371  0.00  0.00    +0.002 C 
BRANCH  27  32
ATOM     32  C   UNL     1      32.498 -12.338 -21.090  0.00  0.00    +0.030 C 
ATOM     33  C   UNL     1      32.202 -12.643 -19.761  0.00  0.00    +0.003 C 
ATOM     34  C   UNL     1      32.166 -11.087 -21.608  0.00  0.00    +0.003 C 
ATOM     35  C   UNL     1      31.574 -11.696 -18.951  0.00  0.00    +0.000 C 
ATOM     36  C   UNL     1      31.539 -10.140 -20.798  0.00  0.00    +0.000 C 
ATOM     37  C   UNL     1      31.242 -10.445 -19.470  0.00  0.00    +0.000 C 
ENDBRANCH  27  32
ENDBRANCH  21  23
ENDBRANCH  20  21
ENDBRANCH   6  20
TORSDOF 7
ENDMDL
MODEL 7
REMARK VINA RESULT:     -10.9      6.489     13.396
REMARK  Name = 25049750
REMARK  7 active torsions:
REMARK  status: ('A' for Active; 'I' for Inactive)
REMARK    1  A    between atoms: C_1  and  C_14
REMARK    2  A    between atoms: C_6  and  O_20
REMARK    3  A    between atoms: C_10  and  C_17
REMARK    4  A    between atoms: C_17  and  O_18
REMARK    5  A    between atoms: O_20  and  C_21
REMARK    6  A    between atoms: C_21  and  C_23
REMARK    7  A    between atoms: C_27  and  C_32
REMARK                            x       y       z     vdW  Elec       q    Type
REMARK                         _______ _______ _______ _____ _____    ______ ____
ROOT
ATOM      1  C   UNL     1      35.064 -15.671 -22.311  0.00  0.00    -0.004 C 
ATOM      2  C   UNL     1      34.604 -15.172 -21.091  0.00  0.00    +0.000 C 
ATOM      3  C   UNL     1      34.721 -15.029 -23.501  0.00  0.00    +0.000 C 
ATOM      4  C   UNL     1      33.800 -14.033 -21.064  0.00  0.00    +0.037 C 
ATOM      5  C   UNL     1      33.918 -13.890 -23.472  0.00  0.00    +0.037 C 
ATOM      6  C   UNL     1      33.458 -13.390 -22.253  0.00  0.00    +0.139 C 
ENDROOT
BRANCH   1  14
ATOM      7  O   UNL     1      34.542 -20.048 -21.437  0.00  0.00    -0.275 OA
ATOM      8  N   UNL     1      35.490 -17.908 -21.386  0.00  0.00    -0.302 N 
ATOM      9  C   UNL     1      35.175 -18.882 -23.412  0.00  0.00    +0.081 C 
ATOM     10  C   UNL     1      34.060 -19.269 -24.322  0.00  0.00    +0.108 C 
ATOM     11  C   UNL     1      35.345 -20.055 -24.310  0.00  0.00    +0.021 C 
ATOM     12  C   UNL     1      35.932 -17.638 -23.700  0.00  0.00    +0.033 C 
ATOM     13  C   UNL     1      35.012 -19.060 -21.980  0.00  0.00    +0.222 C 
ATOM     14  C   UNL     1      35.936 -16.906 -22.341  0.00  0.00    +0.095 C 
ATOM     15  H   UNL     1      35.525 -17.777 -20.411  0.00  0.00    +0.150 HD
BRANCH  10  17
ATOM     16  O   UNL     1      34.638 -17.753 -26.014  0.00  0.00    -0.250 OA
ATOM     17  C   UNL     1      33.827 -18.542 -25.551  0.00  0.00    +0.314 C 
BRANCH  17  18
ATOM     18  O   UNL     1      32.630 -18.837 -26.114  0.00  0.00    -0.480 OA
ATOM     19  H   UNL     1      32.507 -18.729 -27.036  0.00  0.00    +0.295 HD
ENDBRANCH  17  18
ENDBRANCH  10  17
ENDBRANCH   1  14
BRANCH   6  20
ATOM     20  O   UNL     1      32.668 -12.270 -22.226  0.00  0.00    -0.471 OA
BRANCH  20  21
ATOM     21  C   UNL     1      32.740 -11.408 -23.352  0.00  0.00    +0.229 C 
BRANCH  21  23
ATOM     22  N   UNL     1      32.692  -7.312 -22.115  0.00  0.00    -0.406 NA
ATOM     23  C   UNL     1      32.712  -9.985 -22.886  0.00  0.00    +0.012 C 
ATOM     24  C   UNL     1      32.332  -9.634 -21.583  0.00  0.00    +0.096 C 
ATOM     25  C   UNL     1      33.080  -9.004 -23.794  0.00  0.00    +0.028 C 
ATOM     26  C   UNL     1      32.336  -8.267 -21.236  0.00  0.00    +0.117 C 
ATOM     27  C   UNL     1      33.053  -7.693 -23.362  0.00  0.00    +0.130 C 
ATOM     28  C   UNL     1      31.954 -10.606 -20.640  0.00  0.00    -0.015 C 
ATOM     29  C   UNL     1      31.958  -7.920 -19.942  0.00  0.00    +0.028 C 
ATOM     30  C   UNL     1      31.581 -10.229 -19.353  0.00  0.00    -0.004 C 
ATOM     31  C   UNL     1      31.583  -8.884 -19.004  0.00  0.00    +0.002 C 
BRANCH  27  32
ATOM     32  C   UNL     1      33.420  -6.611 -24.245  0.00  0.00    +0.030 C 
ATOM     33  C   UNL     1      34.709  -6.551 -24.775  0.00  0.00    +0.003 C 
ATOM     34  C   UNL     1      32.487  -5.626 -24.567  0.00  0.00    +0.003 C 
ATOM     35  C   UNL     1      35.064  -5.506 -25.629  0.00  0.00    +0.000 C 
ATOM     36  C   UNL     1      32.842  -4.581 -25.421  0.00  0.00    +0.000 C 
ATOM     37  C   UNL     1      34.130  -4.521 -25.951  0.00  0.00    +0.000 C 
ENDBRANCH  27  32
ENDBRANCH  21  23
ENDBRANCH  20  21
ENDBRANCH   6  20
TORSDOF 7
ENDMDL
MODEL 8
REMARK VINA RESULT:     -10.5      5.135      9.733
REMARK  Name = 25049750
REMARK  7 active torsions:
REMARK  status: ('A' for Active; 'I' for Inactive)
REMARK    1  A    between atoms: C_1  and  C_14
REMARK    2  A    between atoms: C_6  and  O_20
REMARK    3  A    between atoms: C_10  and  C_17
REMARK    4  A    between atoms: C_17  and  O_18
REMARK    5  A    between atoms: O_20  and  C_21
REMARK    6  A    between atoms: C_21  and  C_23
REMARK    7  A    between atoms: C_27  and  C_32
REMARK                            x       y       z     vdW  Elec       q    Type
REMARK                         _______ _______ _______ _____ _____    ______ ____
ROOT
ATOM      1  C   UNL     1      33.367 -10.568 -23.414  0.00  0.00    -0.004 C 
ATOM      2  C   UNL     1      34.241 -11.499 -23.976  0.00  0.00    +0.000 C 
ATOM      3  C   UNL     1      32.565 -10.929 -22.332  0.00  0.00    +0.000 C 
ATOM      4  C   UNL     1      34.312 -12.791 -23.455  0.00  0.00    +0.037 C 
ATOM      5  C   UNL     1      32.636 -12.222 -21.812  0.00  0.00    +0.037 C 
ATOM      6  C   UNL     1      33.510 -13.153 -22.373  0.00  0.00    +0.139 C 
ENDROOT
BRANCH   1  14
ATOM      7  O   UNL     1      30.274  -7.316 -23.652  0.00  0.00    -0.275 OA
ATOM      8  N   UNL     1      31.934  -8.809 -24.358  0.00  0.00    -0.302 N 
ATOM      9  C   UNL     1      32.434  -7.391 -22.656  0.00  0.00    +0.081 C 
ATOM     10  C   UNL     1      32.079  -7.168 -21.227  0.00  0.00    +0.108 C 
ATOM     11  C   UNL     1      32.466  -6.009 -22.108  0.00  0.00    +0.021 C 
ATOM     12  C   UNL     1      33.715  -8.070 -22.977  0.00  0.00    +0.033 C 
ATOM     13  C   UNL     1      31.395  -7.796 -23.587  0.00  0.00    +0.222 C 
ATOM     14  C   UNL     1      33.291  -9.166 -23.977  0.00  0.00    +0.095 C 
ATOM     15  H   UNL     1      31.447  -9.245 -25.094  0.00  0.00    +0.150 HD
BRANCH  10  17
ATOM     16  O   UNL     1      33.741  -6.593 -19.676  0.00  0.00    -0.250 OA
ATOM     17  C   UNL     1      33.035  -7.455 -20.178  0.00  0.00    +0.314 C 
BRANCH  17  18
ATOM     18  O   UNL     1      33.049  -8.764 -19.828  0.00  0.00    -0.480 OA
ATOM     19  H   UNL     1      32.469  -9.077 -19.163  0.00  0.00    +0.295 HD
ENDBRANCH  17  18
ENDBRANCH  10  17
ENDBRANCH   1  14
BRANCH   6  20
ATOM     20  O   UNL     1      33.580 -14.422 -21.862  0.00  0.00    -0.471 OA
BRANCH  20  21
ATOM     21  C   UNL     1      34.879 -14.960 -21.655  0.00  0.00    +0.229 C 
BRANCH  21  23
ATOM     22  N   UNL     1      35.051 -18.957 -23.170  0.00  0.00    -0.406 NA
ATOM     23  C   UNL     1      34.934 -16.345 -22.220  0.00  0.00    +0.012 C 
ATOM     24  C   UNL     1      34.809 -16.597 -23.593  0.00  0.00    +0.096 C 
ATOM     25  C   UNL     1      35.117 -17.394 -21.330  0.00  0.00    +0.028 C 
ATOM     26  C   UNL     1      34.875 -17.937 -24.030  0.00  0.00    +0.117 C 
ATOM     27  C   UNL     1      35.167 -18.671 -21.853  0.00  0.00    +0.130 C 
ATOM     28  C   UNL     1      34.624 -15.555 -24.518  0.00  0.00    -0.015 C 
ATOM     29  C   UNL     1      34.750 -18.186 -25.394  0.00  0.00    +0.028 C 
ATOM     30  C   UNL     1      34.503 -15.834 -25.876  0.00  0.00    -0.004 C 
ATOM     31  C   UNL     1      34.566 -17.151 -26.314  0.00  0.00    +0.002 C 
BRANCH  27  32
ATOM     32  C   UNL     1      35.354 -19.818 -20.997  0.00  0.00    +0.030 C 
ATOM     33  C   UNL     1      36.636 -20.173 -20.576  0.00  0.00    +0.003 C 
ATOM     34  C   UNL     1      34.253 -20.572 -20.591  0.00  0.00    +0.003 C 
ATOM     35  C   UNL     1      36.816 -21.282 -19.748  0.00  0.00    +0.000 C 
ATOM     36  C   UNL     1      34.434 -21.680 -19.763  0.00  0.00    +0.000 C 
ATOM     37  C   UNL     1      35.715 -22.035 -19.343  0.00  0.00    +0.000 C 
ENDBRANCH  27  32
ENDBRANCH  21  23
ENDBRANCH  20  21
ENDBRANCH   6  20
TORSDOF 7
ENDMDL
MODEL 9
REMARK VINA RESULT:      -9.8      7.521     12.150
REMARK  Name = 25049750
REMARK  7 active torsions:
REMARK  status: ('A' for Active; 'I' for Inactive)
REMARK    1  A    between atoms: C_1  and  C_14
REMARK    2  A    between atoms: C_6  and  O_20
REMARK    3  A    between atoms: C_10  and  C_17
REMARK    4  A    between atoms: C_17  and  O_18
REMARK    5  A    between atoms: O_20  and  C_21
REMARK    6  A    between atoms: C_21  and  C_23
REMARK    7  A    between atoms: C_27  and  C_32
REMARK                            x       y       z     vdW  Elec       q    Type
REMARK                         _______ _______ _______ _____ _____    ______ ____
ROOT
ATOM      1  C   UNL     1      34.623  -8.797 -24.166  0.00  0.00    -0.004 C 
ATOM      2  C   UNL     1      35.543  -9.522 -24.926  0.00  0.00    +0.000 C 
ATOM      3  C   UNL     1      33.397  -9.369 -23.825  0.00  0.00    +0.000 C 
ATOM      4  C   UNL     1      35.236 -10.816 -25.344  0.00  0.00    +0.037 C 
ATOM      5  C   UNL     1      33.092 -10.664 -24.243  0.00  0.00    +0.037 C 
ATOM      6  C   UNL     1      34.011 -11.388 -25.002  0.00  0.00    +0.139 C 
ENDROOT
BRANCH   1  14
ATOM      7  O   UNL     1      34.086  -4.639 -25.782  0.00  0.00    -0.275 OA
ATOM      8  N   UNL     1      35.156  -6.494 -24.837  0.00  0.00    -0.302 N 
ATOM      9  C   UNL     1      33.308  -5.688 -23.793  0.00  0.00    +0.081 C 
ATOM     10  C   UNL     1      31.836  -5.603 -24.003  0.00  0.00    +0.108 C 
ATOM     11  C   UNL     1      32.560  -4.538 -23.222  0.00  0.00    +0.021 C 
ATOM     12  C   UNL     1      33.841  -6.729 -22.878  0.00  0.00    +0.033 C 
ATOM     13  C   UNL     1      34.195  -5.506 -24.930  0.00  0.00    +0.222 C 
ATOM     14  C   UNL     1      34.956  -7.394 -23.713  0.00  0.00    +0.095 C 
ATOM     15  H   UNL     1      35.905  -6.581 -25.471  0.00  0.00    +0.150 HD
BRANCH  10  17
ATOM     16  O   UNL     1      30.509  -6.038 -22.119  0.00  0.00    -0.250 OA
ATOM     17  C   UNL     1      30.932  -6.405 -23.205  0.00  0.00    +0.314 C 
BRANCH  17  18
ATOM     18  O   UNL     1      30.618  -7.583 -23.798  0.00  0.00    -0.480 OA
ATOM     19  H   UNL     1      29.938  -8.119 -23.442  0.00  0.00    +0.295 HD
ENDBRANCH  17  18
ENDBRANCH  10  17
ENDBRANCH   1  14
BRANCH   6  20
ATOM     20  O   UNL     1      33.710 -12.661 -25.413  0.00  0.00    -0.471 OA
BRANCH  20  21
ATOM     21  C   UNL     1      34.587 -13.695 -24.990  0.00  0.00    +0.229 C 
BRANCH  21  23
ATOM     22  N   UNL     1      33.666 -14.609 -20.913  0.00  0.00    -0.406 NA
ATOM     23  C   UNL     1      34.284 -14.047 -23.567  0.00  0.00    +0.012 C 
ATOM     24  C   UNL     1      34.767 -15.218 -22.968  0.00  0.00    +0.096 C 
ATOM     25  C   UNL     1      33.498 -13.164 -22.841  0.00  0.00    +0.028 C 
ATOM     26  C   UNL     1      34.429 -15.463 -21.620  0.00  0.00    +0.117 C 
ATOM     27  C   UNL     1      33.220 -13.489 -21.528  0.00  0.00    +0.130 C 
ATOM     28  C   UNL     1      35.566 -16.131 -23.677  0.00  0.00    -0.015 C 
ATOM     29  C   UNL     1      34.908 -16.627 -21.027  0.00  0.00    +0.028 C 
ATOM     30  C   UNL     1      36.032 -17.287 -23.058  0.00  0.00    -0.004 C 
ATOM     31  C   UNL     1      35.703 -17.535 -21.731  0.00  0.00    +0.002 C 
BRANCH  27  32
ATOM     32  C   UNL     1      32.409 -12.626 -20.704  0.00  0.00    +0.030 C 
ATOM     33  C   UNL     1      32.404 -12.788 -19.318  0.00  0.00    +0.003 C 
ATOM     34  C   UNL     1      31.629 -11.630 -21.292  0.00  0.00    +0.003 C 
ATOM     35  C   UNL     1      31.620 -11.953 -18.520  0.00  0.00    +0.000 C 
ATOM     36  C   UNL     1      30.846 -10.795 -20.494  0.00  0.00    +0.000 C 
ATOM     37  C   UNL     1      30.841 -10.957 -19.109  0.00  0.00    +0.000 C 
ENDBRANCH  27  32
ENDBRANCH  21  23
ENDBRANCH  20  21
ENDBRANCH   6  20
TORSDOF 7
ENDMDL
