MODEL 1
REMARK VINA RESULT:     -11.5      0.000      0.000
REMARK  Name = 5288018
REMARK  3 active torsions:
REMARK  status: ('A' for Active; 'I' for Inactive)
REMARK    1  A    between atoms: C_9  and  N_24
REMARK    2  A    between atoms: C_10  and  C_17
REMARK    3  A    between atoms: N_23  and  N_29
REMARK                            x       y       z     vdW  Elec       q    Type
REMARK                         _______ _______ _______ _____ _____    ______ ____
ROOT
ATOM      1  O   UNL     1      32.673 -22.379 -18.533  0.00  0.00    -0.286 OA
ATOM      2  N   UNL     1      32.641 -24.133 -14.431  0.00  0.00    -0.278 N 
ATOM      3  N   UNL     1      33.998 -24.007 -14.395  0.00  0.00    -0.173 NA
ATOM      4  C   UNL     1      34.923 -22.553 -17.572  0.00  0.00    +0.054 C 
ATOM      5  C   UNL     1      33.098 -23.263 -16.356  0.00  0.00    +0.072 A 
ATOM      6  C   UNL     1      35.394 -23.039 -16.320  0.00  0.00    +0.024 C 
ATOM      7  C   UNL     1      34.247 -23.474 -15.582  0.00  0.00    +0.105 A 
ATOM      8  C   UNL     1      33.425 -22.685 -17.631  0.00  0.00    +0.199 C 
ATOM      9  C   UNL     1      35.788 -22.063 -18.509  0.00  0.00    +0.055 C 
ATOM     10  C   UNL     1      32.054 -23.695 -15.601  0.00  0.00    +0.073 A 
ATOM     11  C   UNL     1      36.732 -23.033 -16.002  0.00  0.00    +0.002 C 
ATOM     12  C   UNL     1      37.143 -22.047 -18.211  0.00  0.00    +0.015 C 
ATOM     13  C   UNL     1      37.611 -22.529 -16.967  0.00  0.00    +0.001 C 
ATOM     14  H   UNL     1      32.122 -24.507 -13.683  0.00  0.00    +0.189 HD
ENDROOT
BRANCH  10  17
ATOM     15  S   UNL     1      29.832 -22.403 -16.538  0.00  0.00    -0.075 S 
ATOM     16  N   UNL     1      28.451 -24.507 -15.946  0.00  0.00    -0.407 NA
ATOM     17  C   UNL     1      30.664 -23.737 -15.844  0.00  0.00    +0.141 C 
ATOM     18  C   UNL     1      29.764 -24.758 -15.600  0.00  0.00    +0.103 C 
ATOM     19  C   UNL     1      28.368 -23.296 -16.450  0.00  0.00    +0.135 C 
ATOM     20  C   UNL     1      30.080 -26.077 -15.009  0.00  0.00    +0.063 C 
ATOM     21  C   UNL     1      27.117 -22.674 -16.935  0.00  0.00    +0.074 C 
ENDBRANCH  10  17
BRANCH   9  24
ATOM     22  O   UNL     1      36.811 -19.808 -20.204  0.00  0.00    -0.251 OA
ATOM     23  N   UNL     1      35.121 -20.359 -21.684  0.00  0.00    -0.231 N 
ATOM     24  N   UNL     1      35.335 -21.578 -19.757  0.00  0.00    -0.267 N 
ATOM     25  C   UNL     1      35.854 -20.516 -20.507  0.00  0.00    +0.318 C 
ATOM     26  H   UNL     1      34.361 -20.953 -21.881  0.00  0.00    +0.171 HD
ATOM     27  H   UNL     1      34.560 -22.043 -20.147  0.00  0.00    +0.156 HD
BRANCH  23  29
ATOM     28  N   UNL     1      34.874 -17.013 -24.143  0.00  0.00    +0.387 N 
ATOM     29  N   UNL     1      35.473 -19.358 -22.569  0.00  0.00    -0.209 NA
ATOM     30  C   UNL     1      35.684 -16.924 -22.921  0.00  0.00    -0.058 C 
ATOM     31  C   UNL     1      35.031 -18.332 -24.770  0.00  0.00    -0.058 C 
ATOM     32  C   UNL     1      35.316 -18.044 -21.940  0.00  0.00    +0.069 C 
ATOM     33  C   UNL     1      34.664 -19.450 -23.789  0.00  0.00    +0.069 C 
ATOM     34  C   UNL     1      35.227 -15.948 -25.079  0.00  0.00    -0.101 C 
ATOM     35  H   UNL     1      33.893 -16.895 -23.887  0.00  0.00    -0.080 HD
ENDBRANCH  23  29
ENDBRANCH   9  24
TORSDOF 3
ENDMDL
MODEL 2
REMARK VINA RESULT:     -11.3      2.803      5.588
REMARK  Name = 5288018
REMARK  3 active torsions:
REMARK  status: ('A' for Active; 'I' for Inactive)
REMARK    1  A    between atoms: C_9  and  N_24
REMARK    2  A    between atoms: C_10  and  C_17
REMARK    3  A    between atoms: N_23  and  N_29
REMARK                            x       y       z     vdW  Elec       q    Type
REMARK                         _______ _______ _______ _____ _____    ______ ____
ROOT
ATOM      1  O   UNL     1      35.961 -23.114 -17.019  0.00  0.00    -0.286 OA
ATOM      2  N   UNL     1      34.739 -25.055 -13.192  0.00  0.00    -0.278 N 
ATOM      3  N   UNL     1      33.436 -24.829 -13.524  0.00  0.00    -0.173 NA
ATOM      4  C   UNL     1      33.526 -23.165 -16.731  0.00  0.00    +0.054 C 
ATOM      5  C   UNL     1      34.892 -24.065 -15.107  0.00  0.00    +0.072 A 
ATOM      6  C   UNL     1      32.695 -23.671 -15.692  0.00  0.00    +0.024 C 
ATOM      7  C   UNL     1      33.561 -24.225 -14.696  0.00  0.00    +0.105 A 
ATOM      8  C   UNL     1      34.970 -23.405 -16.382  0.00  0.00    +0.199 C 
ATOM      9  C   UNL     1      32.988 -22.569 -17.836  0.00  0.00    +0.055 C 
ATOM     10  C   UNL     1      35.655 -24.608 -14.123  0.00  0.00    +0.073 A 
ATOM     11  C   UNL     1      31.324 -23.583 -15.758  0.00  0.00    +0.002 C 
ATOM     12  C   UNL     1      31.607 -22.468 -17.925  0.00  0.00    +0.015 C 
ATOM     13  C   UNL     1      30.782 -22.970 -16.893  0.00  0.00    +0.001 C 
ATOM     14  H   UNL     1      35.005 -25.501 -12.356  0.00  0.00    +0.189 HD
ENDROOT
BRANCH  10  17
ATOM     15  S   UNL     1      37.963 -25.814 -14.962  0.00  0.00    -0.075 S 
ATOM     16  N   UNL     1      39.239 -24.442 -13.181  0.00  0.00    -0.407 NA
ATOM     17  C   UNL     1      37.052 -24.743 -13.975  0.00  0.00    +0.141 C 
ATOM     18  C   UNL     1      37.904 -24.104 -13.091  0.00  0.00    +0.103 C 
ATOM     19  C   UNL     1      39.388 -25.336 -14.134  0.00  0.00    +0.135 C 
ATOM     20  C   UNL     1      37.514 -23.104 -12.073  0.00  0.00    +0.063 C 
ATOM     21  C   UNL     1      40.682 -25.938 -14.522  0.00  0.00    +0.074 C 
ENDBRANCH  10  17
BRANCH   9  24
ATOM     22  O   UNL     1      32.487 -20.337 -19.778  0.00  0.00    -0.251 OA
ATOM     23  N   UNL     1      34.580 -20.821 -20.636  0.00  0.00    -0.231 N 
ATOM     24  N   UNL     1      33.800 -22.061 -18.876  0.00  0.00    -0.267 N 
ATOM     25  C   UNL     1      33.514 -21.012 -19.756  0.00  0.00    +0.318 C 
ATOM     26  H   UNL     1      35.382 -21.389 -20.578  0.00  0.00    +0.171 HD
ATOM     27  H   UNL     1      34.674 -22.499 -18.996  0.00  0.00    +0.156 HD
BRANCH  23  29
ATOM     28  N   UNL     1      35.663 -18.093 -23.584  0.00  0.00    +0.387 N 
ATOM     29  N   UNL     1      34.496 -19.827 -21.592  0.00  0.00    -0.209 NA
ATOM     30  C   UNL     1      34.833 -19.243 -23.966  0.00  0.00    -0.058 C 
ATOM     31  C   UNL     1      35.256 -17.579 -22.270  0.00  0.00    -0.058 C 
ATOM     32  C   UNL     1      34.903 -20.344 -22.902  0.00  0.00    +0.069 C 
ATOM     33  C   UNL     1      35.324 -18.680 -21.207  0.00  0.00    +0.069 C 
ATOM     34  C   UNL     1      35.595 -17.043 -24.597  0.00  0.00    -0.101 C 
ATOM     35  H   UNL     1      36.633 -18.405 -23.518  0.00  0.00    -0.080 HD
ENDBRANCH  23  29
ENDBRANCH   9  24
TORSDOF 3
ENDMDL
MODEL 3
REMARK VINA RESULT:     -10.5      2.991      6.171
REMARK  Name = 5288018
REMARK  3 active torsions:
REMARK  status: ('A' for Active; 'I' for Inactive)
REMARK    1  A    between atoms: C_9  and  N_24
REMARK    2  A    between atoms: C_10  and  C_17
REMARK    3  A    between atoms: N_23  and  N_29
REMARK                            x       y       z     vdW  Elec       q    Type
REMARK                         _______ _______ _______ _____ _____    ______ ____
ROOT
ATOM      1  O   UNL     1      35.109 -24.042 -16.822  0.00  0.00    -0.286 OA
ATOM      2  N   UNL     1      35.593 -24.876 -12.466  0.00  0.00    -0.278 N 
ATOM      3  N   UNL     1      34.259 -24.649 -12.301  0.00  0.00    -0.173 NA
ATOM      4  C   UNL     1      32.997 -23.848 -15.591  0.00  0.00    +0.054 C 
ATOM      5  C   UNL     1      34.930 -24.409 -14.469  0.00  0.00    +0.072 A 
ATOM      6  C   UNL     1      32.670 -24.019 -14.217  0.00  0.00    +0.024 C 
ATOM      7  C   UNL     1      33.882 -24.366 -13.539  0.00  0.00    +0.105 A 
ATOM      8  C   UNL     1      34.467 -24.095 -15.793  0.00  0.00    +0.199 C 
ATOM      9  C   UNL     1      32.040 -23.510 -16.506  0.00  0.00    +0.055 C 
ATOM     10  C   UNL     1      36.043 -24.741 -13.764  0.00  0.00    +0.073 A 
ATOM     11  C   UNL     1      31.385 -23.853 -13.755  0.00  0.00    +0.002 C 
ATOM     12  C   UNL     1      30.736 -23.337 -16.064  0.00  0.00    +0.015 C 
ATOM     13  C   UNL     1      30.412 -23.507 -14.698  0.00  0.00    +0.001 C 
ATOM     14  H   UNL     1      36.188 -25.117 -11.719  0.00  0.00    +0.189 HD
ENDROOT
BRANCH  10  17
ATOM     15  S   UNL     1      38.294 -26.289 -13.612  0.00  0.00    -0.075 S 
ATOM     16  N   UNL     1      39.473 -24.595 -15.170  0.00  0.00    -0.407 NA
ATOM     17  C   UNL     1      37.387 -24.933 -14.151  0.00  0.00    +0.141 C 
ATOM     18  C   UNL     1      38.182 -24.149 -14.968  0.00  0.00    +0.103 C 
ATOM     19  C   UNL     1      39.644 -25.715 -14.503  0.00  0.00    +0.135 C 
ATOM     20  C   UNL     1      37.775 -22.893 -15.635  0.00  0.00    +0.063 C 
ATOM     21  C   UNL     1      40.904 -26.489 -14.478  0.00  0.00    +0.074 C 
ENDBRANCH  10  17
BRANCH   9  24
ATOM     22  O   UNL     1      34.044 -21.712 -17.833  0.00  0.00    -0.251 OA
ATOM     23  N   UNL     1      33.293 -22.606 -19.829  0.00  0.00    -0.231 N 
ATOM     24  N   UNL     1      32.349 -23.335 -17.875  0.00  0.00    -0.267 N 
ATOM     25  C   UNL     1      33.299 -22.478 -18.440  0.00  0.00    +0.318 C 
ATOM     26  H   UNL     1      32.676 -23.234 -20.269  0.00  0.00    +0.171 HD
ATOM     27  H   UNL     1      31.832 -23.884 -18.508  0.00  0.00    +0.156 HD
BRANCH  23  29
ATOM     28  N   UNL     1      35.920 -19.576 -20.936  0.00  0.00    +0.387 N 
ATOM     29  N   UNL     1      34.163 -21.840 -20.581  0.00  0.00    -0.209 NA
ATOM     30  C   UNL     1      36.452 -20.934 -20.762  0.00  0.00    -0.058 C 
ATOM     31  C   UNL     1      34.595 -19.621 -21.570  0.00  0.00    -0.058 C 
ATOM     32  C   UNL     1      35.484 -21.799 -19.947  0.00  0.00    +0.069 C 
ATOM     33  C   UNL     1      33.629 -20.486 -20.755  0.00  0.00    +0.069 C 
ATOM     34  C   UNL     1      36.841 -18.753 -21.716  0.00  0.00    -0.101 C 
ATOM     35  H   UNL     1      35.820 -19.150 -20.014  0.00  0.00    -0.080 HD
ENDBRANCH  23  29
ENDBRANCH   9  24
TORSDOF 3
ENDMDL
MODEL 4
REMARK VINA RESULT:     -10.3      8.894     14.622
REMARK  Name = 5288018
REMARK  3 active torsions:
REMARK  status: ('A' for Active; 'I' for Inactive)
REMARK    1  A    between atoms: C_9  and  N_24
REMARK    2  A    between atoms: C_10  and  C_17
REMARK    3  A    between atoms: N_23  and  N_29
REMARK                            x       y       z     vdW  Elec       q    Type
REMARK                         _______ _______ _______ _____ _____    ______ ____
ROOT
ATOM      1  O   UNL     1      33.253  -9.534 -23.888  0.00  0.00    -0.286 OA
ATOM      2  N   UNL     1      32.501  -5.892 -21.424  0.00  0.00    -0.278 N 
ATOM      3  N   UNL     1      32.093  -6.698 -20.403  0.00  0.00    -0.173 NA
ATOM      4  C   UNL     1      32.409 -10.076 -21.650  0.00  0.00    +0.054 C 
ATOM      5  C   UNL     1      32.723  -7.874 -22.255  0.00  0.00    +0.072 A 
ATOM      6  C   UNL     1      32.037  -9.262 -20.544  0.00  0.00    +0.024 C 
ATOM      7  C   UNL     1      32.239  -7.901 -20.940  0.00  0.00    +0.105 A 
ATOM      8  C   UNL     1      32.863  -9.202 -22.788  0.00  0.00    +0.199 C 
ATOM      9  C   UNL     1      32.327 -11.438 -21.581  0.00  0.00    +0.055 C 
ATOM     10  C   UNL     1      32.892  -6.562 -22.566  0.00  0.00    +0.073 A 
ATOM     11  C   UNL     1      31.583  -9.808 -19.366  0.00  0.00    +0.002 C 
ATOM     12  C   UNL     1      31.872 -12.013 -20.403  0.00  0.00    +0.015 C 
ATOM     13  C   UNL     1      31.502 -11.203 -19.304  0.00  0.00    +0.001 C 
ATOM     14  H   UNL     1      32.516  -4.910 -21.352  0.00  0.00    +0.189 HD
ENDROOT
BRANCH  10  17
ATOM     15  S   UNL     1      34.818  -6.374 -24.499  0.00  0.00    -0.075 S 
ATOM     16  N   UNL     1      33.454  -4.455 -25.566  0.00  0.00    -0.407 NA
ATOM     17  C   UNL     1      33.348  -5.918 -23.735  0.00  0.00    +0.141 C 
ATOM     18  C   UNL     1      32.768  -4.884 -24.448  0.00  0.00    +0.103 C 
ATOM     19  C   UNL     1      34.551  -5.169 -25.691  0.00  0.00    +0.135 C 
ATOM     20  C   UNL     1      31.493  -4.208 -24.121  0.00  0.00    +0.063 C 
ATOM     21  C   UNL     1      35.543  -4.997 -26.775  0.00  0.00    +0.074 C 
ENDBRANCH  10  17
BRANCH   9  24
ATOM     22  O   UNL     1      34.187 -13.790 -21.704  0.00  0.00    -0.251 OA
ATOM     23  N   UNL     1      33.657 -13.895 -23.952  0.00  0.00    -0.231 N 
ATOM     24  N   UNL     1      32.692 -12.260 -22.671  0.00  0.00    -0.267 N 
ATOM     25  C   UNL     1      33.570 -13.350 -22.671  0.00  0.00    +0.318 C 
ATOM     26  H   UNL     1      33.142 -13.505 -24.696  0.00  0.00    +0.171 HD
ATOM     27  H   UNL     1      32.279 -12.039 -23.538  0.00  0.00    +0.156 HD
BRANCH  23  29
ATOM     28  N   UNL     1      35.029 -17.819 -24.103  0.00  0.00    +0.387 N 
ATOM     29  N   UNL     1      34.478 -14.986 -24.167  0.00  0.00    -0.209 NA
ATOM     30  C   UNL     1      34.760 -17.123 -25.368  0.00  0.00    -0.058 C 
ATOM     31  C   UNL     1      35.638 -16.902 -23.131  0.00  0.00    -0.058 C 
ATOM     32  C   UNL     1      33.868 -15.898 -25.139  0.00  0.00    +0.069 C 
ATOM     33  C   UNL     1      34.745 -15.678 -22.902  0.00  0.00    +0.069 C 
ATOM     34  C   UNL     1      35.882 -18.985 -24.323  0.00  0.00    -0.101 C 
ATOM     35  H   UNL     1      34.140 -18.146 -23.722  0.00  0.00    -0.080 HD
ENDBRANCH  23  29
ENDBRANCH   9  24
TORSDOF 3
ENDMDL
MODEL 5
REMARK VINA RESULT:      -9.4      1.610      2.058
REMARK  Name = 5288018
REMARK  3 active torsions:
REMARK  status: ('A' for Active; 'I' for Inactive)
REMARK    1  A    between atoms: C_9  and  N_24
REMARK    2  A    between atoms: C_10  and  C_17
REMARK    3  A    between atoms: N_23  and  N_29
REMARK                            x       y       z     vdW  Elec       q    Type
REMARK                         _______ _______ _______ _____ _____    ______ ____
ROOT
ATOM      1  O   UNL     1      34.308 -21.984 -17.092  0.00  0.00    -0.286 OA
ATOM      2  N   UNL     1      33.497 -25.282 -14.199  0.00  0.00    -0.278 N 
ATOM      3  N   UNL     1      34.841 -25.487 -14.097  0.00  0.00    -0.173 NA
ATOM      4  C   UNL     1      36.365 -23.049 -16.286  0.00  0.00    +0.054 C 
ATOM      5  C   UNL     1      34.318 -23.791 -15.531  0.00  0.00    +0.072 A 
ATOM      6  C   UNL     1      36.596 -24.118 -15.376  0.00  0.00    +0.024 C 
ATOM      7  C   UNL     1      35.315 -24.564 -14.920  0.00  0.00    +0.105 A 
ATOM      8  C   UNL     1      34.885 -22.808 -16.413  0.00  0.00    +0.199 C 
ATOM      9  C   UNL     1      37.404 -22.407 -16.898  0.00  0.00    +0.055 C 
ATOM     10  C   UNL     1      33.134 -24.264 -15.058  0.00  0.00    +0.073 A 
ATOM     11  C   UNL     1      37.868 -24.547 -15.075  0.00  0.00    +0.002 C 
ATOM     12  C   UNL     1      38.697 -22.822 -16.610  0.00  0.00    +0.015 C 
ATOM     13  C   UNL     1      38.926 -23.884 -15.706  0.00  0.00    +0.001 C 
ATOM     14  H   UNL     1      32.838 -25.817 -13.701  0.00  0.00    +0.189 HD
ENDROOT
BRANCH  10  17
ATOM     15  S   UNL     1      31.278 -23.393 -16.869  0.00  0.00    -0.075 S 
ATOM     16  N   UNL     1      29.522 -23.429 -14.973  0.00  0.00    -0.407 NA
ATOM     17  C   UNL     1      31.797 -23.888 -15.308  0.00  0.00    +0.141 C 
ATOM     18  C   UNL     1      30.725 -23.842 -14.436  0.00  0.00    +0.103 C 
ATOM     19  C   UNL     1      29.694 -23.166 -16.249  0.00  0.00    +0.135 C 
ATOM     20  C   UNL     1      30.753 -24.192 -12.999  0.00  0.00    +0.063 C 
ATOM     21  C   UNL     1      28.626 -22.696 -17.159  0.00  0.00    +0.074 C 
ENDBRANCH  10  17
BRANCH   9  24
ATOM     22  O   UNL     1      36.609 -22.451 -19.791  0.00  0.00    -0.251 OA
ATOM     23  N   UNL     1      36.712 -20.142 -19.694  0.00  0.00    -0.231 N 
ATOM     24  N   UNL     1      37.191 -21.344 -17.805  0.00  0.00    -0.267 N 
ATOM     25  C   UNL     1      36.819 -21.423 -19.151  0.00  0.00    +0.318 C 
ATOM     26  H   UNL     1      36.891 -19.349 -19.139  0.00  0.00    +0.171 HD
ATOM     27  H   UNL     1      37.321 -20.436 -17.446  0.00  0.00    +0.156 HD
BRANCH  23  29
ATOM     28  N   UNL     1      35.193 -18.515 -23.208  0.00  0.00    +0.387 N 
ATOM     29  N   UNL     1      36.354 -20.000 -21.021  0.00  0.00    -0.209 NA
ATOM     30  C   UNL     1      36.647 -18.679 -23.085  0.00  0.00    -0.058 C 
ATOM     31  C   UNL     1      34.494 -19.659 -22.607  0.00  0.00    -0.058 C 
ATOM     32  C   UNL     1      37.053 -18.859 -21.618  0.00  0.00    +0.069 C 
ATOM     33  C   UNL     1      34.901 -19.838 -21.141  0.00  0.00    +0.069 C 
ATOM     34  C   UNL     1      34.805 -18.347 -24.607  0.00  0.00    -0.101 C 
ATOM     35  H   UNL     1      34.921 -17.672 -22.702  0.00  0.00    -0.080 HD
ENDBRANCH  23  29
ENDBRANCH   9  24
TORSDOF 3
ENDMDL
MODEL 6
REMARK VINA RESULT:      -9.2     11.475     18.671
REMARK  Name = 5288018
REMARK  3 active torsions:
REMARK  status: ('A' for Active; 'I' for Inactive)
REMARK    1  A    between atoms: C_9  and  N_24
REMARK    2  A    between atoms: C_10  and  C_17
REMARK    3  A    between atoms: N_23  and  N_29
REMARK                            x       y       z     vdW  Elec       q    Type
REMARK                         _______ _______ _______ _____ _____    ______ ____
ROOT
ATOM      1  O   UNL     1      34.286  -6.421 -25.137  0.00  0.00    -0.286 OA
ATOM      2  N   UNL     1      33.485  -2.385 -26.863  0.00  0.00    -0.278 N 
ATOM      3  N   UNL     1      32.546  -2.186 -25.896  0.00  0.00    -0.173 NA
ATOM      4  C   UNL     1      32.548  -5.204 -23.906  0.00  0.00    +0.054 C 
ATOM      5  C   UNL     1      33.558  -4.225 -25.733  0.00  0.00    +0.072 A 
ATOM      6  C   UNL     1      31.973  -3.915 -24.085  0.00  0.00    +0.024 C 
ATOM      7  C   UNL     1      32.613  -3.325 -25.222  0.00  0.00    +0.105 A 
ATOM      8  C   UNL     1      33.589  -5.442 -24.967  0.00  0.00    +0.199 C 
ATOM      9  C   UNL     1      32.142  -6.022 -22.891  0.00  0.00    +0.055 C 
ATOM     10  C   UNL     1      34.123  -3.608 -26.803  0.00  0.00    +0.073 A 
ATOM     11  C   UNL     1      30.991  -3.440 -23.247  0.00  0.00    +0.002 C 
ATOM     12  C   UNL     1      31.151  -5.566 -22.032  0.00  0.00    +0.015 C 
ATOM     13  C   UNL     1      30.580  -4.285 -22.210  0.00  0.00    +0.001 C 
ATOM     14  H   UNL     1      33.693  -1.711 -27.550  0.00  0.00    +0.189 HD
ENDROOT
BRANCH  10  17
ATOM     15  S   UNL     1      36.660  -4.566 -27.164  0.00  0.00    -0.075 S 
ATOM     16  N   UNL     1      36.242  -4.500 -29.714  0.00  0.00    -0.407 NA
ATOM     17  C   UNL     1      35.127  -4.013 -27.708  0.00  0.00    +0.141 C 
ATOM     18  C   UNL     1      35.095  -4.050 -29.090  0.00  0.00    +0.103 C 
ATOM     19  C   UNL     1      37.135  -4.800 -28.796  0.00  0.00    +0.135 C 
ATOM     20  C   UNL     1      33.955  -3.657 -29.947  0.00  0.00    +0.063 C 
ATOM     21  C   UNL     1      38.491  -5.315 -29.084  0.00  0.00    +0.074 C 
ENDBRANCH  10  17
BRANCH   9  24
ATOM     22  O   UNL     1      31.683  -8.584 -24.385  0.00  0.00    -0.251 OA
ATOM     23  N   UNL     1      33.209  -9.528 -22.925  0.00  0.00    -0.231 N 
ATOM     24  N   UNL     1      32.702  -7.306 -22.701  0.00  0.00    -0.267 N 
ATOM     25  C   UNL     1      32.451  -8.472 -23.432  0.00  0.00    +0.318 C 
ATOM     26  H   UNL     1      33.809  -9.387 -22.158  0.00  0.00    +0.171 HD
ATOM     27  H   UNL     1      33.349  -7.391 -21.963  0.00  0.00    +0.156 HD
BRANCH  23  29
ATOM     28  N   UNL     1      34.037 -13.469 -23.967  0.00  0.00    +0.387 N 
ATOM     29  N   UNL     1      33.104 -10.775 -23.511  0.00  0.00    -0.209 NA
ATOM     30  C   UNL     1      32.867 -13.201 -23.121  0.00  0.00    -0.058 C 
ATOM     31  C   UNL     1      34.178 -12.429 -24.994  0.00  0.00    -0.058 C 
ATOM     32  C   UNL     1      32.962 -11.810 -22.483  0.00  0.00    +0.069 C 
ATOM     33  C   UNL     1      34.273 -11.040 -24.356  0.00  0.00    +0.069 C 
ATOM     34  C   UNL     1      33.944 -14.793 -24.577  0.00  0.00    -0.101 C 
ATOM     35  H   UNL     1      34.870 -13.452 -23.377  0.00  0.00    -0.080 HD
ENDBRANCH  23  29
ENDBRANCH   9  24
TORSDOF 3
ENDMDL
MODEL 7
REMARK VINA RESULT:      -8.9     11.040     17.745
REMARK  Name = 5288018
REMARK  3 active torsions:
REMARK  status: ('A' for Active; 'I' for Inactive)
REMARK    1  A    between atoms: C_9  and  N_24
REMARK    2  A    between atoms: C_10  and  C_17
REMARK    3  A    between atoms: N_23  and  N_29
REMARK                            x       y       z     vdW  Elec       q    Type
REMARK                         _______ _______ _______ _____ _____    ______ ____
ROOT
ATOM      1  O   UNL     1      33.869  -6.786 -25.603  0.00  0.00    -0.286 OA
ATOM      2  N   UNL     1      32.347  -2.690 -24.702  0.00  0.00    -0.278 N 
ATOM      3  N   UNL     1      32.002  -3.120 -23.456  0.00  0.00    -0.173 NA
ATOM      4  C   UNL     1      32.961  -6.603 -23.331  0.00  0.00    +0.054 C 
ATOM      5  C   UNL     1      32.953  -4.764 -24.721  0.00  0.00    +0.072 A 
ATOM      6  C   UNL     1      32.380  -5.518 -22.618  0.00  0.00    +0.024 C 
ATOM      7  C   UNL     1      32.384  -4.388 -23.497  0.00  0.00    +0.105 A 
ATOM      8  C   UNL     1      33.349  -6.146 -24.712  0.00  0.00    +0.199 C 
ATOM      9  C   UNL     1      33.100  -7.833 -22.754  0.00  0.00    +0.055 C 
ATOM     10  C   UNL     1      32.926  -3.653 -25.504  0.00  0.00    +0.073 A 
ATOM     11  C   UNL     1      31.936  -5.662 -21.323  0.00  0.00    +0.002 C 
ATOM     12  C   UNL     1      32.659  -8.003 -21.449  0.00  0.00    +0.015 C 
ATOM     13  C   UNL     1      32.081  -6.925 -20.740  0.00  0.00    +0.001 C 
ATOM     14  H   UNL     1      32.195  -1.767 -25.007  0.00  0.00    +0.189 HD
ENDROOT
BRANCH  10  17
ATOM     15  S   UNL     1      34.893  -3.949 -27.382  0.00  0.00    -0.075 S 
ATOM     16  N   UNL     1      33.378  -2.692 -29.058  0.00  0.00    -0.407 NA
ATOM     17  C   UNL     1      33.357  -3.417 -26.827  0.00  0.00    +0.141 C 
ATOM     18  C   UNL     1      32.699  -2.772 -27.858  0.00  0.00    +0.103 C 
ATOM     19  C   UNL     1      34.546  -3.279 -28.924  0.00  0.00    +0.135 C 
ATOM     20  C   UNL     1      31.350  -2.169 -27.790  0.00  0.00    +0.063 C 
ATOM     21  C   UNL     1      35.554  -3.393 -30.000  0.00  0.00    +0.074 C 
ENDBRANCH  10  17
BRANCH   9  24
ATOM     22  O   UNL     1      32.128 -10.651 -23.101  0.00  0.00    -0.251 OA
ATOM     23  N   UNL     1      34.045 -10.994 -24.348  0.00  0.00    -0.231 N 
ATOM     24  N   UNL     1      33.675  -8.921 -23.450  0.00  0.00    -0.267 N 
ATOM     25  C   UNL     1      33.175 -10.221 -23.579  0.00  0.00    +0.318 C 
ATOM     26  H   UNL     1      34.873 -10.602 -24.709  0.00  0.00    +0.171 HD
ATOM     27  H   UNL     1      34.534  -8.742 -23.898  0.00  0.00    +0.156 HD
BRANCH  23  29
ATOM     28  N   UNL     1      34.414 -14.982 -25.472  0.00  0.00    +0.387 N 
ATOM     29  N   UNL     1      33.733 -12.317 -24.595  0.00  0.00    -0.209 NA
ATOM     30  C   UNL     1      34.235 -14.671 -24.048  0.00  0.00    -0.058 C 
ATOM     31  C   UNL     1      33.587 -14.096 -26.301  0.00  0.00    -0.058 C 
ATOM     32  C   UNL     1      34.559 -13.200 -23.767  0.00  0.00    +0.069 C 
ATOM     33  C   UNL     1      33.911 -12.625 -26.018  0.00  0.00    +0.069 C 
ATOM     34  C   UNL     1      34.102 -16.384 -25.741  0.00  0.00    -0.101 C 
ATOM     35  H   UNL     1      35.393 -14.825 -25.714  0.00  0.00    -0.080 HD
ENDBRANCH  23  29
ENDBRANCH   9  24
TORSDOF 3
ENDMDL
MODEL 8
REMARK VINA RESULT:      -8.9      9.929     15.686
REMARK  Name = 5288018
REMARK  3 active torsions:
REMARK  status: ('A' for Active; 'I' for Inactive)
REMARK    1  A    between atoms: C_9  and  N_24
REMARK    2  A    between atoms: C_10  and  C_17
REMARK    3  A    between atoms: N_23  and  N_29
REMARK                            x       y       z     vdW  Elec       q    Type
REMARK                         _______ _______ _______ _____ _____    ______ ____
ROOT
ATOM      1  O   UNL     1      33.189  -8.370 -24.447  0.00  0.00    -0.286 OA
ATOM      2  N   UNL     1      32.132  -4.568 -22.367  0.00  0.00    -0.278 N 
ATOM      3  N   UNL     1      31.837  -5.291 -21.250  0.00  0.00    -0.173 NA
ATOM      4  C   UNL     1      32.466  -8.739 -22.132  0.00  0.00    +0.054 C 
ATOM      5  C   UNL     1      32.535  -6.598 -22.985  0.00  0.00    +0.072 A 
ATOM      6  C   UNL     1      32.042  -7.847 -21.108  0.00  0.00    +0.024 C 
ATOM      7  C   UNL     1      32.092  -6.525 -21.657  0.00  0.00    +0.105 A 
ATOM      8  C   UNL     1      32.797  -7.957 -23.375  0.00  0.00    +0.199 C 
ATOM      9  C   UNL     1      32.527 -10.086 -21.913  0.00  0.00    +0.055 C 
ATOM     10  C   UNL     1      32.559  -5.319 -23.443  0.00  0.00    +0.073 A 
ATOM     11  C   UNL     1      31.679  -8.300 -19.861  0.00  0.00    +0.002 C 
ATOM     12  C   UNL     1      32.166 -10.567 -20.662  0.00  0.00    +0.015 C 
ATOM     13  C   UNL     1      31.745  -9.681 -19.645  0.00  0.00    +0.001 C 
ATOM     14  H   UNL     1      32.048  -3.587 -22.403  0.00  0.00    +0.189 HD
ENDROOT
BRANCH  10  17
ATOM     15  S   UNL     1      31.925  -3.603 -25.477  0.00  0.00    -0.075 S 
ATOM     16  N   UNL     1      34.107  -4.322 -26.662  0.00  0.00    -0.407 NA
ATOM     17  C   UNL     1      32.915  -4.768 -24.692  0.00  0.00    +0.141 C 
ATOM     18  C   UNL     1      34.027  -5.021 -25.475  0.00  0.00    +0.103 C 
ATOM     19  C   UNL     1      33.053  -3.544 -26.770  0.00  0.00    +0.135 C 
ATOM     20  C   UNL     1      35.123  -5.961 -25.154  0.00  0.00    +0.063 C 
ATOM     21  C   UNL     1      32.790  -2.643 -27.912  0.00  0.00    +0.074 C 
ENDBRANCH  10  17
BRANCH   9  24
ATOM     22  O   UNL     1      32.673 -13.083 -21.903  0.00  0.00    -0.251 OA
ATOM     23  N   UNL     1      33.466 -12.896 -24.068  0.00  0.00    -0.231 N 
ATOM     24  N   UNL     1      32.946 -10.985 -22.920  0.00  0.00    -0.267 N 
ATOM     25  C   UNL     1      32.993 -12.382 -22.860  0.00  0.00    +0.318 C 
ATOM     26  H   UNL     1      33.710 -12.292 -24.806  0.00  0.00    +0.171 HD
ATOM     27  H   UNL     1      33.241 -10.579 -23.767  0.00  0.00    +0.156 HD
BRANCH  23  29
ATOM     28  N   UNL     1      34.911 -16.613 -25.252  0.00  0.00    +0.387 N 
ATOM     29  N   UNL     1      33.589 -14.265 -24.216  0.00  0.00    -0.209 NA
ATOM     30  C   UNL     1      35.022 -16.239 -23.837  0.00  0.00    -0.058 C 
ATOM     31  C   UNL     1      33.634 -16.150 -25.809  0.00  0.00    -0.058 C 
ATOM     32  C   UNL     1      34.865 -14.724 -23.659  0.00  0.00    +0.069 C 
ATOM     33  C   UNL     1      33.477 -14.636 -25.630  0.00  0.00    +0.069 C 
ATOM     34  C   UNL     1      35.058 -18.057 -25.421  0.00  0.00    -0.101 C 
ATOM     35  H   UNL     1      35.667 -16.158 -25.765  0.00  0.00    -0.080 HD
ENDBRANCH  23  29
ENDBRANCH   9  24
TORSDOF 3
ENDMDL
MODEL 9
REMARK VINA RESULT:      -8.8      9.200     13.158
REMARK  Name = 5288018
REMARK  3 active torsions:
REMARK  status: ('A' for Active; 'I' for Inactive)
REMARK    1  A    between atoms: C_9  and  N_24
REMARK    2  A    between atoms: C_10  and  C_17
REMARK    3  A    between atoms: N_23  and  N_29
REMARK                            x       y       z     vdW  Elec       q    Type
REMARK                         _______ _______ _______ _____ _____    ______ ____
ROOT
ATOM      1  O   UNL     1      32.577 -11.208 -23.535  0.00  0.00    -0.286 OA
ATOM      2  N   UNL     1      33.748 -15.066 -21.625  0.00  0.00    -0.278 N 
ATOM      3  N   UNL     1      33.374 -14.552 -20.419  0.00  0.00    -0.173 NA
ATOM      4  C   UNL     1      32.212 -11.201 -21.110  0.00  0.00    +0.054 C 
ATOM      5  C   UNL     1      33.073 -13.077 -22.134  0.00  0.00    +0.072 A 
ATOM      6  C   UNL     1      32.433 -12.184 -20.106  0.00  0.00    +0.024 C 
ATOM      7  C   UNL     1      32.967 -13.339 -20.761  0.00  0.00    +0.105 A 
ATOM      8  C   UNL     1      32.620 -11.751 -22.450  0.00  0.00    +0.199 C 
ATOM      9  C   UNL     1      31.701  -9.974 -20.795  0.00  0.00    +0.055 C 
ATOM     10  C   UNL     1      33.583 -14.206 -22.692  0.00  0.00    +0.073 A 
ATOM     11  C   UNL     1      32.143 -11.942 -18.783  0.00  0.00    +0.002 C 
ATOM     12  C   UNL     1      31.400  -9.706 -19.466  0.00  0.00    +0.015 C 
ATOM     13  C   UNL     1      31.620 -10.683 -18.469  0.00  0.00    +0.001 C 
ATOM     14  H   UNL     1      34.107 -15.977 -21.726  0.00  0.00    +0.189 HD
ENDROOT
BRANCH  10  17
ATOM     15  S   UNL     1      33.352 -13.597 -25.349  0.00  0.00    -0.075 S 
ATOM     16  N   UNL     1      34.814 -15.664 -25.873  0.00  0.00    -0.407 NA
ATOM     17  C   UNL     1      33.908 -14.540 -24.025  0.00  0.00    +0.141 C 
ATOM     18  C   UNL     1      34.667 -15.593 -24.502  0.00  0.00    +0.103 C 
ATOM     19  C   UNL     1      34.163 -14.663 -26.423  0.00  0.00    +0.135 C 
ATOM     20  C   UNL     1      35.328 -16.633 -23.685  0.00  0.00    +0.063 C 
ATOM     21  C   UNL     1      34.091 -14.409 -27.878  0.00  0.00    +0.074 C 
ENDBRANCH  10  17
BRANCH   9  24
ATOM     22  O   UNL     1      33.163  -7.413 -21.350  0.00  0.00    -0.251 OA
ATOM     23  N   UNL     1      31.650  -7.103 -23.072  0.00  0.00    -0.231 N 
ATOM     24  N   UNL     1      31.476  -8.986 -21.781  0.00  0.00    -0.267 N 
ATOM     25  C   UNL     1      32.194  -7.805 -21.995  0.00  0.00    +0.318 C 
ATOM     26  H   UNL     1      30.871  -7.460 -23.557  0.00  0.00    +0.171 HD
ATOM     27  H   UNL     1      30.721  -9.149 -22.392  0.00  0.00    +0.156 HD
BRANCH  23  29
ATOM     28  N   UNL     1      32.311  -3.520 -25.080  0.00  0.00    +0.387 N 
ATOM     29  N   UNL     1      32.218  -5.901 -23.449  0.00  0.00    -0.209 NA
ATOM     30  C   UNL     1      31.881  -3.466 -23.677  0.00  0.00    -0.058 C 
ATOM     31  C   UNL     1      33.260  -4.622 -25.284  0.00  0.00    -0.058 C 
ATOM     32  C   UNL     1      31.269  -4.803 -23.242  0.00  0.00    +0.069 C 
ATOM     33  C   UNL     1      32.648  -5.958 -24.849  0.00  0.00    +0.069 C 
ATOM     34  C   UNL     1      32.897  -2.247 -25.493  0.00  0.00    -0.101 C 
ATOM     35  H   UNL     1      31.491  -3.693 -25.661  0.00  0.00    -0.080 HD
ENDBRANCH  23  29
ENDBRANCH   9  24
TORSDOF 3
ENDMDL
