MODEL 1
REMARK VINA RESULT:     -11.0      0.000      0.000
REMARK  Name = 46937156
REMARK  6 active torsions:
REMARK  status: ('A' for Active; 'I' for Inactive)
REMARK    1  A    between atoms: C_5  and  O_22
REMARK    2  A    between atoms: C_7  and  O_24
REMARK    3  A    between atoms: C_8  and  O_26
REMARK    4  A    between atoms: C_9  and  C_12
REMARK    5  A    between atoms: C_10  and  C_28
REMARK    6  A    between atoms: C_28  and  O_29
REMARK                            x       y       z     vdW  Elec       q    Type
REMARK                         _______ _______ _______ _____ _____    ______ ____
ROOT
ATOM      1  O   UNL     1      36.349 -24.008 -13.712  0.00  0.00    -0.328 OA
ATOM      2  O   UNL     1      35.838 -25.476 -15.513  0.00  0.00    -0.260 OA
ATOM      3  N   UNL     1      34.911 -24.811 -16.433  0.00  0.00    -0.184 NA
ATOM      4  C   UNL     1      36.759 -24.501 -14.997  0.00  0.00    +0.234 C 
ATOM      5  C   UNL     1      38.169 -25.093 -14.890  0.00  0.00    +0.193 C 
ATOM      6  C   UNL     1      36.683 -23.350 -15.986  0.00  0.00    +0.083 C 
ATOM      7  C   UNL     1      38.230 -26.181 -13.818  0.00  0.00    +0.171 C 
ATOM      8  C   UNL     1      37.659 -25.667 -12.494  0.00  0.00    +0.169 C 
ATOM      9  C   UNL     1      35.215 -23.377 -16.359  0.00  0.00    +0.107 C 
ATOM     10  C   UNL     1      36.286 -25.021 -12.703  0.00  0.00    +0.176 C 
ATOM     11  H   UNL     1      33.947 -24.982 -16.148  0.00  0.00    +0.155 HD
ENDROOT
BRANCH   9  12
ATOM     12  C   UNL     1      34.894 -22.634 -17.633  0.00  0.00    -0.006 C 
ATOM     13  C   UNL     1      35.903 -21.959 -18.320  0.00  0.00    -0.003 C 
ATOM     14  C   UNL     1      33.590 -22.620 -18.121  0.00  0.00    -0.003 C 
ATOM     15  C   UNL     1      35.620 -21.263 -19.507  0.00  0.00    -0.000 C 
ATOM     16  C   UNL     1      33.291 -21.933 -19.297  0.00  0.00    -0.000 C 
ATOM     17  C   UNL     1      34.294 -21.250 -20.002  0.00  0.00    -0.000 C 
ATOM     18  C   UNL     1      36.623 -20.579 -20.211  0.00  0.00    -0.000 C 
ATOM     19  C   UNL     1      34.012 -20.552 -21.188  0.00  0.00    -0.000 C 
ATOM     20  C   UNL     1      36.325 -19.891 -21.388  0.00  0.00    -0.000 C 
ATOM     21  C   UNL     1      35.022 -19.878 -21.876  0.00  0.00    -0.000 C 
ENDBRANCH   9  12
BRANCH   5  22
ATOM     22  O   UNL     1      38.564 -25.644 -16.143  0.00  0.00    -0.378 OA
ATOM     23  H   UNL     1      39.484 -25.948 -16.087  0.00  0.00    +0.211 HD
ENDBRANCH   5  22
BRANCH   7  24
ATOM     24  O   UNL     1      39.598 -26.546 -13.626  0.00  0.00    -0.379 OA
ATOM     25  H   UNL     1      39.741 -26.783 -12.695  0.00  0.00    +0.211 HD
ENDBRANCH   7  24
BRANCH   8  26
ATOM     26  O   UNL     1      37.558 -26.771 -11.600  0.00  0.00    -0.379 OA
ATOM     27  H   UNL     1      37.628 -27.600 -12.099  0.00  0.00    +0.211 HD
ENDBRANCH   8  26
BRANCH  10  28
ATOM     28  C   UNL     1      35.767 -24.352 -11.433  0.00  0.00    +0.169 C 
BRANCH  28  29
ATOM     29  O   UNL     1      35.433 -25.360 -10.497  0.00  0.00    -0.379 OA
ATOM     30  H   UNL     1      36.245 -25.736 -10.123  0.00  0.00    +0.211 HD
ENDBRANCH  28  29
ENDBRANCH  10  28
TORSDOF 6
ENDMDL
MODEL 2
REMARK VINA RESULT:      -9.0     11.437     14.816
REMARK  Name = 46937156
REMARK  6 active torsions:
REMARK  status: ('A' for Active; 'I' for Inactive)
REMARK    1  A    between atoms: C_5  and  O_22
REMARK    2  A    between atoms: C_7  and  O_24
REMARK    3  A    between atoms: C_8  and  O_26
REMARK    4  A    between atoms: C_9  and  C_12
REMARK    5  A    between atoms: C_10  and  C_28
REMARK    6  A    between atoms: C_28  and  O_29
REMARK                            x       y       z     vdW  Elec       q    Type
REMARK                         _______ _______ _______ _____ _____    ______ ____
ROOT
ATOM      1  O   UNL     1      33.373 -14.160 -24.501  0.00  0.00    -0.328 OA
ATOM      2  O   UNL     1      35.122 -12.781 -23.668  0.00  0.00    -0.260 OA
ATOM      3  N   UNL     1      34.745 -11.373 -23.822  0.00  0.00    -0.184 NA
ATOM      4  C   UNL     1      33.948 -13.543 -23.340  0.00  0.00    +0.234 C 
ATOM      5  C   UNL     1      34.277 -14.619 -22.299  0.00  0.00    +0.193 C 
ATOM      6  C   UNL     1      32.962 -12.511 -22.821  0.00  0.00    +0.083 C 
ATOM      7  C   UNL     1      35.193 -15.692 -22.886  0.00  0.00    +0.171 C 
ATOM      8  C   UNL     1      34.619 -16.236 -24.196  0.00  0.00    +0.169 C 
ATOM      9  C   UNL     1      33.282 -11.323 -23.707  0.00  0.00    +0.107 C 
ATOM     10  C   UNL     1      34.245 -15.094 -25.146  0.00  0.00    +0.176 C 
ATOM     11  H   UNL     1      35.039 -11.027 -24.735  0.00  0.00    +0.155 HD
ENDROOT
BRANCH   9  12
ATOM     12  C   UNL     1      32.772 -10.007 -23.173  0.00  0.00    -0.006 C 
ATOM     13  C   UNL     1      32.659  -8.906 -24.023  0.00  0.00    -0.003 C 
ATOM     14  C   UNL     1      32.418  -9.891 -21.831  0.00  0.00    -0.003 C 
ATOM     15  C   UNL     1      32.187  -7.674 -23.541  0.00  0.00    -0.000 C 
ATOM     16  C   UNL     1      31.948  -8.675 -21.336  0.00  0.00    -0.000 C 
ATOM     17  C   UNL     1      31.826  -7.557 -22.177  0.00  0.00    -0.000 C 
ATOM     18  C   UNL     1      32.066  -6.557 -24.382  0.00  0.00    -0.000 C 
ATOM     19  C   UNL     1      31.355  -6.324 -21.695  0.00  0.00    -0.000 C 
ATOM     20  C   UNL     1      31.596  -5.340 -23.886  0.00  0.00    -0.000 C 
ATOM     21  C   UNL     1      31.241  -5.224 -22.546  0.00  0.00    -0.000 C 
ENDBRANCH   9  12
BRANCH   5  22
ATOM     22  O   UNL     1      34.907 -14.028 -21.167  0.00  0.00    -0.378 OA
ATOM     23  H   UNL     1      34.587 -14.456 -20.357  0.00  0.00    +0.211 HD
ENDBRANCH   5  22
BRANCH   7  24
ATOM     24  O   UNL     1      35.296 -16.760 -21.943  0.00  0.00    -0.379 OA
ATOM     25  H   UNL     1      35.260 -16.400 -21.041  0.00  0.00    +0.211 HD
ENDBRANCH   7  24
BRANCH   8  26
ATOM     26  O   UNL     1      35.602 -17.077 -24.792  0.00  0.00    -0.379 OA
ATOM     27  H   UNL     1      35.373 -17.232 -25.722  0.00  0.00    +0.211 HD
ENDBRANCH   8  26
BRANCH  10  28
ATOM     28  C   UNL     1      33.517 -15.597 -26.389  0.00  0.00    +0.169 C 
BRANCH  28  29
ATOM     29  O   UNL     1      33.351 -16.998 -26.278  0.00  0.00    -0.379 OA
ATOM     30  H   UNL     1      33.112 -17.365 -27.144  0.00  0.00    +0.211 HD
ENDBRANCH  28  29
ENDBRANCH  10  28
TORSDOF 6
ENDMDL
MODEL 3
REMARK VINA RESULT:      -8.6     16.017     19.651
REMARK  Name = 46937156
REMARK  6 active torsions:
REMARK  status: ('A' for Active; 'I' for Inactive)
REMARK    1  A    between atoms: C_5  and  O_22
REMARK    2  A    between atoms: C_7  and  O_24
REMARK    3  A    between atoms: C_8  and  O_26
REMARK    4  A    between atoms: C_9  and  C_12
REMARK    5  A    between atoms: C_10  and  C_28
REMARK    6  A    between atoms: C_28  and  O_29
REMARK                            x       y       z     vdW  Elec       q    Type
REMARK                         _______ _______ _______ _____ _____    ______ ____
ROOT
ATOM      1  O   UNL     1      33.305  -5.348 -24.359  0.00  0.00    -0.328 OA
ATOM      2  O   UNL     1      31.105  -6.239 -24.209  0.00  0.00    -0.260 OA
ATOM      3  N   UNL     1      31.180  -7.661 -23.860  0.00  0.00    -0.184 NA
ATOM      4  C   UNL     1      32.154  -5.537 -23.522  0.00  0.00    +0.234 C 
ATOM      5  C   UNL     1      31.656  -4.175 -23.024  0.00  0.00    +0.193 C 
ATOM      6  C   UNL     1      32.548  -6.464 -22.385  0.00  0.00    +0.083 C 
ATOM      7  C   UNL     1      31.362  -3.235 -24.193  0.00  0.00    +0.171 C 
ATOM      8  C   UNL     1      32.560  -3.160 -25.141  0.00  0.00    +0.169 C 
ATOM      9  C   UNL     1      32.389  -7.821 -23.042  0.00  0.00    +0.107 C 
ATOM     10  C   UNL     1      33.043  -4.562 -25.526  0.00  0.00    +0.176 C 
ATOM     11  H   UNL     1      31.248  -8.229 -24.704  0.00  0.00    +0.155 HD
ENDROOT
BRANCH   9  12
ATOM     12  C   UNL     1      32.298  -8.967 -22.064  0.00  0.00    -0.006 C 
ATOM     13  C   UNL     1      32.411 -10.282 -22.517  0.00  0.00    -0.003 C 
ATOM     14  C   UNL     1      32.098  -8.712 -20.710  0.00  0.00    -0.003 C 
ATOM     15  C   UNL     1      32.328 -11.359 -21.619  0.00  0.00    -0.000 C 
ATOM     16  C   UNL     1      32.012  -9.769 -19.805  0.00  0.00    -0.000 C 
ATOM     17  C   UNL     1      32.125 -11.098 -20.243  0.00  0.00    -0.000 C 
ATOM     18  C   UNL     1      32.440 -12.687 -22.058  0.00  0.00    -0.000 C 
ATOM     19  C   UNL     1      32.040 -12.176 -19.346  0.00  0.00    -0.000 C 
ATOM     20  C   UNL     1      32.354 -13.746 -21.153  0.00  0.00    -0.000 C 
ATOM     21  C   UNL     1      32.155 -13.491 -19.800  0.00  0.00    -0.000 C 
ENDBRANCH   9  12
BRANCH   5  22
ATOM     22  O   UNL     1      30.475  -4.341 -22.245  0.00  0.00    -0.378 OA
ATOM     23  H   UNL     1      30.534  -3.793 -21.446  0.00  0.00    +0.211 HD
ENDBRANCH   5  22
BRANCH   7  24
ATOM     24  O   UNL     1      31.101  -1.933 -23.668  0.00  0.00    -0.379 OA
ATOM     25  H   UNL     1      30.346  -1.540 -24.137  0.00  0.00    +0.211 HD
ENDBRANCH   7  24
BRANCH   8  26
ATOM     26  O   UNL     1      32.160  -2.437 -26.301  0.00  0.00    -0.379 OA
ATOM     27  H   UNL     1      32.854  -1.803 -26.543  0.00  0.00    +0.211 HD
ENDBRANCH   8  26
BRANCH  10  28
ATOM     28  C   UNL     1      34.337  -4.522 -26.334  0.00  0.00    +0.169 C 
BRANCH  28  29
ATOM     29  O   UNL     1      34.008  -4.423 -27.707  0.00  0.00    -0.379 OA
ATOM     30  H   UNL     1      33.715  -5.289 -28.033  0.00  0.00    +0.211 HD
ENDBRANCH  28  29
ENDBRANCH  10  28
TORSDOF 6
ENDMDL
MODEL 4
REMARK VINA RESULT:      -8.6      8.608     12.467
REMARK  Name = 46937156
REMARK  6 active torsions:
REMARK  status: ('A' for Active; 'I' for Inactive)
REMARK    1  A    between atoms: C_5  and  O_22
REMARK    2  A    between atoms: C_7  and  O_24
REMARK    3  A    between atoms: C_8  and  O_26
REMARK    4  A    between atoms: C_9  and  C_12
REMARK    5  A    between atoms: C_10  and  C_28
REMARK    6  A    between atoms: C_28  and  O_29
REMARK                            x       y       z     vdW  Elec       q    Type
REMARK                         _______ _______ _______ _____ _____    ______ ____
ROOT
ATOM      1  O   UNL     1      33.982 -14.540 -23.660  0.00  0.00    -0.328 OA
ATOM      2  O   UNL     1      35.972 -15.629 -24.377  0.00  0.00    -0.260 OA
ATOM      3  N   UNL     1      36.506 -16.438 -23.278  0.00  0.00    -0.184 NA
ATOM      4  C   UNL     1      34.536 -15.679 -24.336  0.00  0.00    +0.234 C 
ATOM      5  C   UNL     1      33.958 -15.762 -25.754  0.00  0.00    +0.193 C 
ATOM      6  C   UNL     1      34.226 -16.913 -23.507  0.00  0.00    +0.083 C 
ATOM      7  C   UNL     1      34.205 -14.466 -26.526  0.00  0.00    +0.171 C 
ATOM      8  C   UNL     1      33.727 -13.257 -25.719  0.00  0.00    +0.169 C 
ATOM      9  C   UNL     1      35.348 -16.875 -22.488  0.00  0.00    +0.107 C 
ATOM     10  C   UNL     1      34.286 -13.293 -24.293  0.00  0.00    +0.176 C 
ATOM     11  H   UNL     1      37.135 -15.879 -22.701  0.00  0.00    +0.155 HD
ENDROOT
BRANCH   9  12
ATOM     12  C   UNL     1      35.574 -18.188 -21.778  0.00  0.00    -0.006 C 
ATOM     13  C   UNL     1      34.484 -18.973 -21.398  0.00  0.00    -0.003 C 
ATOM     14  C   UNL     1      36.870 -18.614 -21.500  0.00  0.00    -0.003 C 
ATOM     15  C   UNL     1      34.678 -20.196 -20.736  0.00  0.00    -0.000 C 
ATOM     16  C   UNL     1      37.080 -19.826 -20.842  0.00  0.00    -0.000 C 
ATOM     17  C   UNL     1      35.996 -20.629 -20.454  0.00  0.00    -0.000 C 
ATOM     18  C   UNL     1      33.593 -20.998 -20.347  0.00  0.00    -0.000 C 
ATOM     19  C   UNL     1      36.189 -21.852 -19.790  0.00  0.00    -0.000 C 
ATOM     20  C   UNL     1      33.804 -22.210 -19.689  0.00  0.00    -0.000 C 
ATOM     21  C   UNL     1      35.099 -22.636 -19.412  0.00  0.00    -0.000 C 
ENDBRANCH   9  12
BRANCH   5  22
ATOM     22  O   UNL     1      34.547 -16.850 -26.459  0.00  0.00    -0.378 OA
ATOM     23  H   UNL     1      34.140 -16.927 -27.336  0.00  0.00    +0.211 HD
ENDBRANCH   5  22
BRANCH   7  24
ATOM     24  O   UNL     1      33.474 -14.528 -27.752  0.00  0.00    -0.379 OA
ATOM     25  H   UNL     1      33.738 -13.788 -28.323  0.00  0.00    +0.211 HD
ENDBRANCH   7  24
BRANCH   8  26
ATOM     26  O   UNL     1      34.159 -12.079 -26.392  0.00  0.00    -0.379 OA
ATOM     27  H   UNL     1      33.445 -11.751 -26.962  0.00  0.00    +0.211 HD
ENDBRANCH   8  26
BRANCH  10  28
ATOM     28  C   UNL     1      33.694 -12.194 -23.417  0.00  0.00    +0.169 C 
BRANCH  28  29
ATOM     29  O   UNL     1      34.076 -10.939 -23.948  0.00  0.00    -0.379 OA
ATOM     30  H   UNL     1      34.089 -10.277 -23.238  0.00  0.00    +0.211 HD
ENDBRANCH  28  29
ENDBRANCH  10  28
TORSDOF 6
ENDMDL
MODEL 5
REMARK VINA RESULT:      -8.4     11.394     14.727
REMARK  Name = 46937156
REMARK  6 active torsions:
REMARK  status: ('A' for Active; 'I' for Inactive)
REMARK    1  A    between atoms: C_5  and  O_22
REMARK    2  A    between atoms: C_7  and  O_24
REMARK    3  A    between atoms: C_8  and  O_26
REMARK    4  A    between atoms: C_9  and  C_12
REMARK    5  A    between atoms: C_10  and  C_28
REMARK    6  A    between atoms: C_28  and  O_29
REMARK                            x       y       z     vdW  Elec       q    Type
REMARK                         _______ _______ _______ _____ _____    ______ ____
ROOT
ATOM      1  O   UNL     1      34.705 -14.153 -23.321  0.00  0.00    -0.328 OA
ATOM      2  O   UNL     1      32.362 -13.817 -23.549  0.00  0.00    -0.260 OA
ATOM      3  N   UNL     1      31.943 -12.716 -22.677  0.00  0.00    -0.184 NA
ATOM      4  C   UNL     1      33.664 -13.519 -24.079  0.00  0.00    +0.234 C 
ATOM      5  C   UNL     1      33.762 -13.955 -25.546  0.00  0.00    +0.193 C 
ATOM      6  C   UNL     1      33.807 -12.017 -23.906  0.00  0.00    +0.083 C 
ATOM      7  C   UNL     1      33.712 -15.477 -25.673  0.00  0.00    +0.171 C 
ATOM      8  C   UNL     1      34.743 -16.131 -24.750  0.00  0.00    +0.169 C 
ATOM      9  C   UNL     1      33.087 -11.801 -22.590  0.00  0.00    +0.107 C 
ATOM     10  C   UNL     1      34.628 -15.583 -23.324  0.00  0.00    +0.176 C 
ATOM     11  H   UNL     1      31.704 -13.070 -21.751  0.00  0.00    +0.155 HD
ENDROOT
BRANCH   9  12
ATOM     12  C   UNL     1      32.685 -10.367 -22.342  0.00  0.00    -0.006 C 
ATOM     13  C   UNL     1      32.510  -9.495 -23.417  0.00  0.00    -0.003 C 
ATOM     14  C   UNL     1      32.491  -9.915 -21.039  0.00  0.00    -0.003 C 
ATOM     15  C   UNL     1      32.136  -8.158 -23.202  0.00  0.00    -0.000 C 
ATOM     16  C   UNL     1      32.120  -8.591 -20.807  0.00  0.00    -0.000 C 
ATOM     17  C   UNL     1      31.939  -7.700 -21.877  0.00  0.00    -0.000 C 
ATOM     18  C   UNL     1      31.956  -7.268 -24.271  0.00  0.00    -0.000 C 
ATOM     19  C   UNL     1      31.567  -6.362 -21.663  0.00  0.00    -0.000 C 
ATOM     20  C   UNL     1      31.586  -5.942 -24.039  0.00  0.00    -0.000 C 
ATOM     21  C   UNL     1      31.391  -5.491 -22.738  0.00  0.00    -0.000 C 
ENDBRANCH   9  12
BRANCH   5  22
ATOM     22  O   UNL     1      32.696 -13.384 -26.298  0.00  0.00    -0.378 OA
ATOM     23  H   UNL     1      32.160 -14.092 -26.690  0.00  0.00    +0.211 HD
ENDBRANCH   5  22
BRANCH   7  24
ATOM     24  O   UNL     1      34.010 -15.825 -27.026  0.00  0.00    -0.379 OA
ATOM     25  H   UNL     1      34.971 -15.801 -27.162  0.00  0.00    +0.211 HD
ENDBRANCH   7  24
BRANCH   8  26
ATOM     26  O   UNL     1      34.516 -17.537 -24.762  0.00  0.00    -0.379 OA
ATOM     27  H   UNL     1      35.321 -17.992 -25.055  0.00  0.00    +0.211 HD
ENDBRANCH   8  26
BRANCH  10  28
ATOM     28  C   UNL     1      35.749 -16.090 -22.422  0.00  0.00    +0.169 C 
BRANCH  28  29
ATOM     29  O   UNL     1      35.411 -17.389 -21.970  0.00  0.00    -0.379 OA
ATOM     30  H   UNL     1      34.985 -17.880 -22.690  0.00  0.00    +0.211 HD
ENDBRANCH  28  29
ENDBRANCH  10  28
TORSDOF 6
ENDMDL
MODEL 6
REMARK VINA RESULT:      -8.3     14.879     17.974
REMARK  Name = 46937156
REMARK  6 active torsions:
REMARK  status: ('A' for Active; 'I' for Inactive)
REMARK    1  A    between atoms: C_5  and  O_22
REMARK    2  A    between atoms: C_7  and  O_24
REMARK    3  A    between atoms: C_8  and  O_26
REMARK    4  A    between atoms: C_9  and  C_12
REMARK    5  A    between atoms: C_10  and  C_28
REMARK    6  A    between atoms: C_28  and  O_29
REMARK                            x       y       z     vdW  Elec       q    Type
REMARK                         _______ _______ _______ _____ _____    ______ ____
ROOT
ATOM      1  O   UNL     1      32.719  -8.961 -21.576  0.00  0.00    -0.328 OA
ATOM      2  O   UNL     1      31.603  -8.957 -23.676  0.00  0.00    -0.260 OA
ATOM      3  N   UNL     1      31.570  -7.591 -24.206  0.00  0.00    -0.184 NA
ATOM      4  C   UNL     1      32.850  -9.160 -22.992  0.00  0.00    +0.234 C 
ATOM      5  C   UNL     1      33.391 -10.570 -23.261  0.00  0.00    +0.193 C 
ATOM      6  C   UNL     1      33.760  -8.072 -23.536  0.00  0.00    +0.083 C 
ATOM      7  C   UNL     1      32.502 -11.633 -22.617  0.00  0.00    +0.171 C 
ATOM      8  C   UNL     1      32.270 -11.318 -21.137  0.00  0.00    +0.169 C 
ATOM      9  C   UNL     1      32.782  -6.928 -23.710  0.00  0.00    +0.107 C 
ATOM     10  C   UNL     1      31.808  -9.870 -20.951  0.00  0.00    +0.176 C 
ATOM     11  H   UNL     1      30.739  -7.103 -23.873  0.00  0.00    +0.155 HD
ENDROOT
BRANCH   9  12
ATOM     12  C   UNL     1      33.278  -5.833 -24.624  0.00  0.00    -0.006 C 
ATOM     13  C   UNL     1      34.514  -5.960 -25.258  0.00  0.00    -0.003 C 
ATOM     14  C   UNL     1      32.502  -4.695 -24.830  0.00  0.00    -0.003 C 
ATOM     15  C   UNL     1      34.989  -4.950 -26.110  0.00  0.00    -0.000 C 
ATOM     16  C   UNL     1      32.959  -3.682 -25.672  0.00  0.00    -0.000 C 
ATOM     17  C   UNL     1      34.200  -3.794 -26.320  0.00  0.00    -0.000 C 
ATOM     18  C   UNL     1      36.230  -5.061 -26.757  0.00  0.00    -0.000 C 
ATOM     19  C   UNL     1      34.676  -2.783 -27.172  0.00  0.00    -0.000 C 
ATOM     20  C   UNL     1      36.687  -4.047 -27.600  0.00  0.00    -0.000 C 
ATOM     21  C   UNL     1      35.912  -2.911 -27.807  0.00  0.00    -0.000 C 
ENDBRANCH   9  12
BRANCH   5  22
ATOM     22  O   UNL     1      33.465 -10.805 -24.664  0.00  0.00    -0.378 OA
ATOM     23  H   UNL     1      33.260 -11.735 -24.848  0.00  0.00    +0.211 HD
ENDBRANCH   5  22
BRANCH   7  24
ATOM     24  O   UNL     1      33.161 -12.896 -22.727  0.00  0.00    -0.379 OA
ATOM     25  H   UNL     1      33.904 -12.819 -23.348  0.00  0.00    +0.211 HD
ENDBRANCH   7  24
BRANCH   8  26
ATOM     26  O   UNL     1      31.285 -12.221 -20.644  0.00  0.00    -0.379 OA
ATOM     27  H   UNL     1      30.742 -11.775 -19.976  0.00  0.00    +0.211 HD
ENDBRANCH   8  26
BRANCH  10  28
ATOM     28  C   UNL     1      31.729  -9.478 -19.478  0.00  0.00    +0.169 C 
BRANCH  28  29
ATOM     29  O   UNL     1      32.620 -10.298 -18.745  0.00  0.00    -0.379 OA
ATOM     30  H   UNL     1      32.938 -11.017 -19.313  0.00  0.00    +0.211 HD
ENDBRANCH  28  29
ENDBRANCH  10  28
TORSDOF 6
ENDMDL
MODEL 7
REMARK VINA RESULT:      -8.1     10.548     14.363
REMARK  Name = 46937156
REMARK  6 active torsions:
REMARK  status: ('A' for Active; 'I' for Inactive)
REMARK    1  A    between atoms: C_5  and  O_22
REMARK    2  A    between atoms: C_7  and  O_24
REMARK    3  A    between atoms: C_8  and  O_26
REMARK    4  A    between atoms: C_9  and  C_12
REMARK    5  A    between atoms: C_10  and  C_28
REMARK    6  A    between atoms: C_28  and  O_29
REMARK                            x       y       z     vdW  Elec       q    Type
REMARK                         _______ _______ _______ _____ _____    ______ ____
ROOT
ATOM      1  O   UNL     1      34.676 -11.140 -23.729  0.00  0.00    -0.328 OA
ATOM      2  O   UNL     1      32.871 -12.399 -24.630  0.00  0.00    -0.260 OA
ATOM      3  N   UNL     1      33.376 -13.681 -25.131  0.00  0.00    -0.184 NA
ATOM      4  C   UNL     1      33.599 -12.046 -23.443  0.00  0.00    +0.234 C 
ATOM      5  C   UNL     1      32.664 -11.416 -22.403  0.00  0.00    +0.193 C 
ATOM      6  C   UNL     1      34.203 -13.356 -22.967  0.00  0.00    +0.083 C 
ATOM      7  C   UNL     1      32.153 -10.056 -22.875  0.00  0.00    +0.171 C 
ATOM      8  C   UNL     1      33.316  -9.159 -23.301  0.00  0.00    +0.169 C 
ATOM      9  C   UNL     1      34.524 -14.030 -24.286  0.00  0.00    +0.107 C 
ATOM     10  C   UNL     1      34.243  -9.890 -24.277  0.00  0.00    +0.176 C 
ATOM     11  H   UNL     1      33.670 -13.588 -26.104  0.00  0.00    +0.155 HD
ENDROOT
BRANCH   9  12
ATOM     12  C   UNL     1      34.748 -15.519 -24.172  0.00  0.00    -0.006 C 
ATOM     13  C   UNL     1      35.159 -16.072 -22.959  0.00  0.00    -0.003 C 
ATOM     14  C   UNL     1      34.547 -16.338 -25.280  0.00  0.00    -0.003 C 
ATOM     15  C   UNL     1      35.373 -17.455 -22.839  0.00  0.00    -0.000 C 
ATOM     16  C   UNL     1      34.755 -17.714 -25.178  0.00  0.00    -0.000 C 
ATOM     17  C   UNL     1      35.168 -18.288 -23.965  0.00  0.00    -0.000 C 
ATOM     18  C   UNL     1      35.786 -18.029 -21.626  0.00  0.00    -0.000 C 
ATOM     19  C   UNL     1      35.383 -19.671 -23.844  0.00  0.00    -0.000 C 
ATOM     20  C   UNL     1      35.994 -19.405 -21.524  0.00  0.00    -0.000 C 
ATOM     21  C   UNL     1      35.793 -20.224 -22.630  0.00  0.00    -0.000 C 
ENDBRANCH   9  12
BRANCH   5  22
ATOM     22  O   UNL     1      31.556 -12.277 -22.157  0.00  0.00    -0.378 OA
ATOM     23  H   UNL     1      30.771 -11.745 -21.955  0.00  0.00    +0.211 HD
ENDBRANCH   5  22
BRANCH   7  24
ATOM     24  O   UNL     1      31.459  -9.436 -21.790  0.00  0.00    -0.379 OA
ATOM     25  H   UNL     1      32.097  -8.975 -21.221  0.00  0.00    +0.211 HD
ENDBRANCH   7  24
BRANCH   8  26
ATOM     26  O   UNL     1      32.773  -7.992 -23.912  0.00  0.00    -0.379 OA
ATOM     27  H   UNL     1      32.369  -8.230 -24.761  0.00  0.00    +0.211 HD
ENDBRANCH   8  26
BRANCH  10  28
ATOM     28  C   UNL     1      35.500  -9.083 -24.590  0.00  0.00    +0.169 C 
BRANCH  28  29
ATOM     29  O   UNL     1      36.352  -9.871 -25.401  0.00  0.00    -0.379 OA
ATOM     30  H   UNL     1      35.944 -10.739 -25.550  0.00  0.00    +0.211 HD
ENDBRANCH  28  29
ENDBRANCH  10  28
TORSDOF 6
ENDMDL
MODEL 8
REMARK VINA RESULT:      -8.0      3.328      4.743
REMARK  Name = 46937156
REMARK  6 active torsions:
REMARK  status: ('A' for Active; 'I' for Inactive)
REMARK    1  A    between atoms: C_5  and  O_22
REMARK    2  A    between atoms: C_7  and  O_24
REMARK    3  A    between atoms: C_8  and  O_26
REMARK    4  A    between atoms: C_9  and  C_12
REMARK    5  A    between atoms: C_10  and  C_28
REMARK    6  A    between atoms: C_28  and  O_29
REMARK                            x       y       z     vdW  Elec       q    Type
REMARK                         _______ _______ _______ _____ _____    ______ ____
ROOT
ATOM      1  O   UNL     1      36.598 -23.656 -13.954  0.00  0.00    -0.328 OA
ATOM      2  O   UNL     1      34.970 -25.355 -13.610  0.00  0.00    -0.260 OA
ATOM      3  N   UNL     1      33.629 -24.768 -13.700  0.00  0.00    -0.184 NA
ATOM      4  C   UNL     1      35.826 -24.703 -14.561  0.00  0.00    +0.234 C 
ATOM      5  C   UNL     1      36.770 -25.716 -15.220  0.00  0.00    +0.193 C 
ATOM      6  C   UNL     1      34.870 -24.065 -15.555  0.00  0.00    +0.083 C 
ATOM      7  C   UNL     1      37.780 -26.264 -14.213  0.00  0.00    +0.171 C 
ATOM      8  C   UNL     1      38.490 -25.122 -13.484  0.00  0.00    +0.169 C 
ATOM      9  C   UNL     1      33.732 -23.649 -14.645  0.00  0.00    +0.107 C 
ATOM     10  C   UNL     1      37.480 -24.116 -12.925  0.00  0.00    +0.176 C 
ATOM     11  H   UNL     1      33.330 -24.430 -12.785  0.00  0.00    +0.155 HD
ENDROOT
BRANCH   9  12
ATOM     12  C   UNL     1      32.440 -23.364 -15.372  0.00  0.00    -0.006 C 
ATOM     13  C   UNL     1      31.252 -23.227 -14.654  0.00  0.00    -0.003 C 
ATOM     14  C   UNL     1      32.436 -23.241 -16.759  0.00  0.00    -0.003 C 
ATOM     15  C   UNL     1      30.041 -22.963 -15.317  0.00  0.00    -0.000 C 
ATOM     16  C   UNL     1      31.243 -22.980 -17.432  0.00  0.00    -0.000 C 
ATOM     17  C   UNL     1      30.037 -22.837 -16.727  0.00  0.00    -0.000 C 
ATOM     18  C   UNL     1      28.837 -22.821 -14.611  0.00  0.00    -0.000 C 
ATOM     19  C   UNL     1      28.827 -22.574 -17.389  0.00  0.00    -0.000 C 
ATOM     20  C   UNL     1      27.643 -22.560 -15.285  0.00  0.00    -0.000 C 
ATOM     21  C   UNL     1      27.638 -22.436 -16.671  0.00  0.00    -0.000 C 
ENDBRANCH   9  12
BRANCH   5  22
ATOM     22  O   UNL     1      36.021 -26.795 -15.772  0.00  0.00    -0.378 OA
ATOM     23  H   UNL     1      35.613 -26.513 -16.605  0.00  0.00    +0.211 HD
ENDBRANCH   5  22
BRANCH   7  24
ATOM     24  O   UNL     1      38.749 -27.038 -14.923  0.00  0.00    -0.379 OA
ATOM     25  H   UNL     1      39.637 -26.690 -14.741  0.00  0.00    +0.211 HD
ENDBRANCH   7  24
BRANCH   8  26
ATOM     26  O   UNL     1      39.264 -25.686 -12.429  0.00  0.00    -0.379 OA
ATOM     27  H   UNL     1      38.860 -26.519 -12.140  0.00  0.00    +0.211 HD
ENDBRANCH   8  26
BRANCH  10  28
ATOM     28  C   UNL     1      38.161 -22.882 -12.339  0.00  0.00    +0.169 C 
BRANCH  28  29
ATOM     29  O   UNL     1      37.351 -22.371 -11.297  0.00  0.00    -0.379 OA
ATOM     30  H   UNL     1      37.442 -21.406 -11.260  0.00  0.00    +0.211 HD
ENDBRANCH  28  29
ENDBRANCH  10  28
TORSDOF 6
ENDMDL
