MODEL 1
REMARK VINA RESULT:     -12.5      0.000      0.000
REMARK  Name = 9998128
REMARK  2 active torsions:
REMARK  status: ('A' for Active; 'I' for Inactive)
REMARK    1  A    between atoms: N_1  and  C_15
REMARK    2  A    between atoms: C_7  and  C_24
REMARK                            x       y       z     vdW  Elec       q    Type
REMARK                         _______ _______ _______ _____ _____    ______ ____
ROOT
ATOM      1  N   UNL     1      36.067 -23.010 -16.458  0.00  0.00    -0.290 N 
ATOM      2  N   UNL     1      33.723 -23.190 -16.575  0.00  0.00    -0.327 NA
ATOM      3  N   UNL     1      32.521 -22.358 -18.490  0.00  0.00    -0.342 NA
ATOM      4  C   UNL     1      34.909 -22.155 -18.410  0.00  0.00    +0.143 C 
ATOM      5  C   UNL     1      34.861 -22.779 -17.166  0.00  0.00    +0.184 C 
ATOM      6  C   UNL     1      33.676 -21.960 -19.052  0.00  0.00    +0.133 C 
ATOM      7  C   UNL     1      32.607 -22.951 -17.282  0.00  0.00    +0.165 C 
ATOM      8  C   UNL     1      36.110 -21.734 -19.006  0.00  0.00    -0.011 C 
ATOM      9  C   UNL     1      33.683 -21.338 -20.299  0.00  0.00    +0.029 C 
ATOM     10  C   UNL     1      36.089 -21.116 -20.252  0.00  0.00    -0.004 C 
ATOM     11  C   UNL     1      34.873 -20.917 -20.899  0.00  0.00    +0.002 C 
ATOM     12  H   UNL     1      36.768 -22.342 -16.638  0.00  0.00    +0.154 HD
ENDROOT
BRANCH   1  15
ATOM     13  N   UNL     1      37.701 -26.713 -12.721  0.00  0.00    -0.236 N 
ATOM     14  N   UNL     1      38.279 -25.972 -11.761  0.00  0.00    -0.180 NA
ATOM     15  C   UNL     1      36.455 -24.007 -15.548  0.00  0.00    +0.050 C 
ATOM     16  C   UNL     1      37.499 -24.660 -13.465  0.00  0.00    +0.037 C 
ATOM     17  C   UNL     1      37.212 -25.985 -13.772  0.00  0.00    +0.067 C 
ATOM     18  C   UNL     1      37.117 -23.648 -14.362  0.00  0.00    +0.018 C 
ATOM     19  C   UNL     1      36.182 -25.352 -15.826  0.00  0.00    +0.016 C 
ATOM     20  C   UNL     1      36.555 -26.371 -14.943  0.00  0.00    +0.017 C 
ATOM     21  C   UNL     1      38.154 -24.724 -12.217  0.00  0.00    +0.119 C 
ATOM     22  H   UNL     1      37.635 -27.694 -12.672  0.00  0.00    +0.174 HD
ENDBRANCH   1  15
BRANCH   7  24
ATOM     23  N   UNL     1      30.256 -22.802 -17.205  0.00  0.00    -0.398 NA
ATOM     24  C   UNL     1      31.367 -23.375 -16.687  0.00  0.00    +0.197 C 
ATOM     25  C   UNL     1      31.347 -24.305 -15.657  0.00  0.00    +0.098 C 
ATOM     26  C   UNL     1      29.075 -23.179 -16.666  0.00  0.00    +0.110 C 
ATOM     27  C   UNL     1      30.113 -24.668 -15.128  0.00  0.00    -0.016 C 
ATOM     28  C   UNL     1      28.950 -24.099 -15.637  0.00  0.00    +0.023 C 
ATOM     29  C   UNL     1      27.848 -22.549 -17.235  0.00  0.00    +0.066 C 
ENDBRANCH   7  24
TORSDOF 2
ENDMDL
MODEL 2
REMARK VINA RESULT:     -12.3      1.335      4.797
REMARK  Name = 9998128
REMARK  2 active torsions:
REMARK  status: ('A' for Active; 'I' for Inactive)
REMARK    1  A    between atoms: N_1  and  C_15
REMARK    2  A    between atoms: C_7  and  C_24
REMARK                            x       y       z     vdW  Elec       q    Type
REMARK                         _______ _______ _______ _____ _____    ______ ____
ROOT
ATOM      1  N   UNL     1      34.051 -25.019 -14.772  0.00  0.00    -0.290 N 
ATOM      2  N   UNL     1      34.028 -23.630 -16.671  0.00  0.00    -0.327 NA
ATOM      3  N   UNL     1      31.950 -22.791 -17.555  0.00  0.00    -0.342 NA
ATOM      4  C   UNL     1      31.929 -24.205 -15.619  0.00  0.00    +0.143 C 
ATOM      5  C   UNL     1      33.317 -24.261 -15.718  0.00  0.00    +0.184 C 
ATOM      6  C   UNL     1      31.270 -23.434 -16.590  0.00  0.00    +0.133 C 
ATOM      7  C   UNL     1      33.292 -22.923 -17.544  0.00  0.00    +0.165 C 
ATOM      8  C   UNL     1      31.208 -24.874 -14.614  0.00  0.00    -0.011 C 
ATOM      9  C   UNL     1      29.881 -23.354 -16.524  0.00  0.00    +0.029 C 
ATOM     10  C   UNL     1      29.822 -24.777 -14.572  0.00  0.00    -0.004 C 
ATOM     11  C   UNL     1      29.157 -24.016 -15.528  0.00  0.00    +0.002 C 
ATOM     12  H   UNL     1      33.559 -25.795 -14.417  0.00  0.00    +0.154 HD
ENDROOT
BRANCH   1  15
ATOM     13  N   UNL     1      39.027 -24.257 -12.537  0.00  0.00    -0.236 N 
ATOM     14  N   UNL     1      38.841 -23.253 -11.664  0.00  0.00    -0.180 NA
ATOM     15  C   UNL     1      35.344 -24.880 -14.245  0.00  0.00    +0.050 C 
ATOM     16  C   UNL     1      36.897 -23.780 -12.750  0.00  0.00    +0.037 C 
ATOM     17  C   UNL     1      37.899 -24.621 -13.221  0.00  0.00    +0.067 C 
ATOM     18  C   UNL     1      35.596 -23.905 -13.265  0.00  0.00    +0.018 C 
ATOM     19  C   UNL     1      36.377 -25.710 -14.697  0.00  0.00    +0.016 C 
ATOM     20  C   UNL     1      37.678 -25.598 -14.194  0.00  0.00    +0.017 C 
ATOM     21  C   UNL     1      37.543 -22.966 -11.796  0.00  0.00    +0.119 C 
ATOM     22  H   UNL     1      39.899 -24.692 -12.672  0.00  0.00    +0.174 HD
ENDBRANCH   1  15
BRANCH   7  24
ATOM     23  N   UNL     1      33.243 -21.545 -19.455  0.00  0.00    -0.398 NA
ATOM     24  C   UNL     1      34.013 -22.232 -18.580  0.00  0.00    +0.197 C 
ATOM     25  C   UNL     1      35.398 -22.286 -18.649  0.00  0.00    +0.098 C 
ATOM     26  C   UNL     1      33.891 -20.884 -20.441  0.00  0.00    +0.110 C 
ATOM     27  C   UNL     1      36.028 -21.595 -19.677  0.00  0.00    -0.016 C 
ATOM     28  C   UNL     1      35.268 -20.877 -20.594  0.00  0.00    +0.023 C 
ATOM     29  C   UNL     1      33.044 -20.127 -21.407  0.00  0.00    +0.066 C 
ENDBRANCH   7  24
TORSDOF 2
ENDMDL
MODEL 3
REMARK VINA RESULT:     -11.8      1.879      7.167
REMARK  Name = 9998128
REMARK  2 active torsions:
REMARK  status: ('A' for Active; 'I' for Inactive)
REMARK    1  A    between atoms: N_1  and  C_15
REMARK    2  A    between atoms: C_7  and  C_24
REMARK                            x       y       z     vdW  Elec       q    Type
REMARK                         _______ _______ _______ _____ _____    ______ ____
ROOT
ATOM      1  N   UNL     1      33.107 -23.873 -13.833  0.00  0.00    -0.290 N 
ATOM      2  N   UNL     1      34.518 -23.153 -15.573  0.00  0.00    -0.327 NA
ATOM      3  N   UNL     1      36.912 -23.331 -15.368  0.00  0.00    -0.342 NA
ATOM      4  C   UNL     1      35.510 -24.076 -13.571  0.00  0.00    +0.143 C 
ATOM      5  C   UNL     1      34.417 -23.693 -14.344  0.00  0.00    +0.184 C 
ATOM      6  C   UNL     1      36.775 -23.869 -14.143  0.00  0.00    +0.133 C 
ATOM      7  C   UNL     1      35.776 -23.002 -16.016  0.00  0.00    +0.165 C 
ATOM      8  C   UNL     1      35.379 -24.639 -12.290  0.00  0.00    -0.011 C 
ATOM      9  C   UNL     1      37.894 -24.239 -13.400  0.00  0.00    +0.029 C 
ATOM     10  C   UNL     1      36.512 -25.000 -11.569  0.00  0.00    -0.004 C 
ATOM     11  C   UNL     1      37.772 -24.799 -12.125  0.00  0.00    +0.002 C 
ATOM     12  H   UNL     1      33.052 -23.812 -12.851  0.00  0.00    +0.154 HD
ENDROOT
BRANCH   1  15
ATOM     13  N   UNL     1      28.269 -24.574 -16.370  0.00  0.00    -0.236 N 
ATOM     14  N   UNL     1      28.035 -23.388 -16.957  0.00  0.00    -0.180 NA
ATOM     15  C   UNL     1      31.874 -24.121 -14.455  0.00  0.00    +0.050 C 
ATOM     16  C   UNL     1      30.017 -23.372 -15.814  0.00  0.00    +0.037 C 
ATOM     17  C   UNL     1      29.442 -24.630 -15.669  0.00  0.00    +0.067 C 
ATOM     18  C   UNL     1      31.253 -23.105 -15.200  0.00  0.00    +0.018 C 
ATOM     19  C   UNL     1      31.266 -25.377 -14.328  0.00  0.00    +0.016 C 
ATOM     20  C   UNL     1      30.037 -25.658 -14.933  0.00  0.00    +0.017 C 
ATOM     21  C   UNL     1      29.101 -22.660 -16.616  0.00  0.00    +0.119 C 
ATOM     22  H   UNL     1      27.650 -25.336 -16.440  0.00  0.00    +0.174 HD
ENDBRANCH   1  15
BRANCH   7  24
ATOM     23  N   UNL     1      34.829 -22.480 -18.111  0.00  0.00    -0.398 NA
ATOM     24  C   UNL     1      35.931 -22.428 -17.327  0.00  0.00    +0.197 C 
ATOM     25  C   UNL     1      37.136 -21.868 -17.727  0.00  0.00    +0.098 C 
ATOM     26  C   UNL     1      34.943 -21.948 -19.349  0.00  0.00    +0.110 C 
ATOM     27  C   UNL     1      37.215 -21.332 -19.007  0.00  0.00    -0.016 C 
ATOM     28  C   UNL     1      36.101 -21.368 -19.840  0.00  0.00    +0.023 C 
ATOM     29  C   UNL     1      33.730 -22.006 -20.215  0.00  0.00    +0.066 C 
ENDBRANCH   7  24
TORSDOF 2
ENDMDL
MODEL 4
REMARK VINA RESULT:     -11.3      2.039      6.270
REMARK  Name = 9998128
REMARK  2 active torsions:
REMARK  status: ('A' for Active; 'I' for Inactive)
REMARK    1  A    between atoms: N_1  and  C_15
REMARK    2  A    between atoms: C_7  and  C_24
REMARK                            x       y       z     vdW  Elec       q    Type
REMARK                         _______ _______ _______ _____ _____    ______ ____
ROOT
ATOM      1  N   UNL     1      35.754 -22.637 -17.990  0.00  0.00    -0.290 N 
ATOM      2  N   UNL     1      33.682 -23.135 -16.993  0.00  0.00    -0.327 NA
ATOM      3  N   UNL     1      33.565 -23.861 -14.699  0.00  0.00    -0.342 NA
ATOM      4  C   UNL     1      35.696 -23.364 -15.677  0.00  0.00    +0.143 C 
ATOM      5  C   UNL     1      35.019 -23.058 -16.855  0.00  0.00    +0.184 C 
ATOM      6  C   UNL     1      34.902 -23.773 -14.594  0.00  0.00    +0.133 C 
ATOM      7  C   UNL     1      33.027 -23.537 -15.893  0.00  0.00    +0.165 C 
ATOM      8  C   UNL     1      37.094 -23.276 -15.557  0.00  0.00    -0.011 C 
ATOM      9  C   UNL     1      35.544 -24.088 -13.399  0.00  0.00    +0.029 C 
ATOM     10  C   UNL     1      37.710 -23.596 -14.352  0.00  0.00    -0.004 C 
ATOM     11  C   UNL     1      36.934 -24.002 -13.271  0.00  0.00    +0.002 C 
ATOM     12  H   UNL     1      36.663 -23.015 -18.038  0.00  0.00    +0.154 HD
ENDROOT
BRANCH   1  15
ATOM     13  N   UNL     1      34.793 -19.221 -22.203  0.00  0.00    -0.236 N 
ATOM     14  N   UNL     1      36.000 -18.703 -22.484  0.00  0.00    -0.180 NA
ATOM     15  C   UNL     1      35.439 -21.786 -19.061  0.00  0.00    +0.050 C 
ATOM     16  C   UNL     1      36.115 -20.181 -20.741  0.00  0.00    +0.037 C 
ATOM     17  C   UNL     1      34.794 -20.115 -21.167  0.00  0.00    +0.067 C 
ATOM     18  C   UNL     1      36.452 -21.028 -19.671  0.00  0.00    +0.018 C 
ATOM     19  C   UNL     1      34.117 -21.695 -19.516  0.00  0.00    +0.016 C 
ATOM     20  C   UNL     1      33.766 -20.857 -20.579  0.00  0.00    +0.017 C 
ATOM     21  C   UNL     1      36.802 -19.290 -21.592  0.00  0.00    +0.119 C 
ATOM     22  H   UNL     1      33.979 -18.979 -22.700  0.00  0.00    +0.174 HD
ENDBRANCH   1  15
BRANCH   7  24
ATOM     23  N   UNL     1      31.036 -24.657 -15.310  0.00  0.00    -0.398 NA
ATOM     24  C   UNL     1      31.595 -23.634 -15.997  0.00  0.00    +0.197 C 
ATOM     25  C   UNL     1      30.868 -22.727 -16.756  0.00  0.00    +0.098 C 
ATOM     26  C   UNL     1      29.691 -24.774 -15.389  0.00  0.00    +0.110 C 
ATOM     27  C   UNL     1      29.488 -22.881 -16.814  0.00  0.00    -0.016 C 
ATOM     28  C   UNL     1      28.880 -23.921 -16.119  0.00  0.00    +0.023 C 
ATOM     29  C   UNL     1      29.073 -25.902 -14.632  0.00  0.00    +0.066 C 
ENDBRANCH   7  24
TORSDOF 2
ENDMDL
MODEL 5
REMARK VINA RESULT:     -11.2      1.962      6.035
REMARK  Name = 9998128
REMARK  2 active torsions:
REMARK  status: ('A' for Active; 'I' for Inactive)
REMARK    1  A    between atoms: N_1  and  C_15
REMARK    2  A    between atoms: C_7  and  C_24
REMARK                            x       y       z     vdW  Elec       q    Type
REMARK                         _______ _______ _______ _____ _____    ______ ____
ROOT
ATOM      1  N   UNL     1      36.181 -23.213 -16.449  0.00  0.00    -0.290 N 
ATOM      2  N   UNL     1      34.048 -23.796 -15.644  0.00  0.00    -0.327 NA
ATOM      3  N   UNL     1      33.718 -24.345 -13.321  0.00  0.00    -0.342 NA
ATOM      4  C   UNL     1      35.908 -23.757 -14.101  0.00  0.00    +0.143 C 
ATOM      5  C   UNL     1      35.351 -23.601 -15.368  0.00  0.00    +0.184 C 
ATOM      6  C   UNL     1      35.025 -24.142 -13.079  0.00  0.00    +0.133 C 
ATOM      7  C   UNL     1      33.300 -24.161 -14.590  0.00  0.00    +0.165 C 
ATOM      8  C   UNL     1      37.273 -23.548 -13.837  0.00  0.00    -0.011 C 
ATOM      9  C   UNL     1      35.546 -24.309 -11.798  0.00  0.00    +0.029 C 
ATOM     10  C   UNL     1      37.767 -23.722 -12.548  0.00  0.00    -0.004 C 
ATOM     11  C   UNL     1      36.902 -24.102 -11.527  0.00  0.00    +0.002 C 
ATOM     12  H   UNL     1      37.113 -23.520 -16.364  0.00  0.00    +0.154 HD
ENDROOT
BRANCH   1  15
ATOM     13  N   UNL     1      34.926 -20.408 -21.019  0.00  0.00    -0.236 N 
ATOM     14  N   UNL     1      33.607 -20.612 -21.175  0.00  0.00    -0.180 NA
ATOM     15  C   UNL     1      35.931 -22.478 -17.618  0.00  0.00    +0.050 C 
ATOM     16  C   UNL     1      34.401 -21.686 -19.317  0.00  0.00    +0.037 C 
ATOM     17  C   UNL     1      35.464 -21.025 -19.923  0.00  0.00    +0.067 C 
ATOM     18  C   UNL     1      34.630 -22.427 -18.145  0.00  0.00    +0.018 C 
ATOM     19  C   UNL     1      36.979 -21.800 -18.255  0.00  0.00    +0.016 C 
ATOM     20  C   UNL     1      36.767 -21.059 -19.421  0.00  0.00    +0.017 C 
ATOM     21  C   UNL     1      33.292 -21.390 -20.137  0.00  0.00    +0.119 C 
ATOM     22  H   UNL     1      35.459 -19.860 -21.641  0.00  0.00    +0.174 HD
ENDBRANCH   1  15
BRANCH   7  24
ATOM     23  N   UNL     1      31.316 -23.478 -15.663  0.00  0.00    -0.398 NA
ATOM     24  C   UNL     1      31.900 -24.380 -14.841  0.00  0.00    +0.197 C 
ATOM     25  C   UNL     1      31.226 -25.448 -14.266  0.00  0.00    +0.098 C 
ATOM     26  C   UNL     1      30.000 -23.656 -15.918  0.00  0.00    +0.110 C 
ATOM     27  C   UNL     1      29.875 -25.598 -14.551  0.00  0.00    -0.016 C 
ATOM     28  C   UNL     1      29.241 -24.690 -15.393  0.00  0.00    +0.023 C 
ATOM     29  C   UNL     1      29.354 -22.662 -16.824  0.00  0.00    +0.066 C 
ENDBRANCH   7  24
TORSDOF 2
ENDMDL
MODEL 6
REMARK VINA RESULT:     -11.1      1.777      5.241
REMARK  Name = 9998128
REMARK  2 active torsions:
REMARK  status: ('A' for Active; 'I' for Inactive)
REMARK    1  A    between atoms: N_1  and  C_15
REMARK    2  A    between atoms: C_7  and  C_24
REMARK                            x       y       z     vdW  Elec       q    Type
REMARK                         _______ _______ _______ _____ _____    ______ ____
ROOT
ATOM      1  N   UNL     1      34.962 -25.377 -14.610  0.00  0.00    -0.290 N 
ATOM      2  N   UNL     1      34.548 -23.937 -16.425  0.00  0.00    -0.327 NA
ATOM      3  N   UNL     1      32.334 -23.077 -16.830  0.00  0.00    -0.342 NA
ATOM      4  C   UNL     1      32.714 -24.542 -14.970  0.00  0.00    +0.143 C 
ATOM      5  C   UNL     1      34.050 -24.594 -15.361  0.00  0.00    +0.184 C 
ATOM      6  C   UNL     1      31.869 -23.746 -15.760  0.00  0.00    +0.133 C 
ATOM      7  C   UNL     1      33.648 -23.209 -17.104  0.00  0.00    +0.165 C 
ATOM      8  C   UNL     1      32.217 -25.238 -13.855  0.00  0.00    -0.011 C 
ATOM      9  C   UNL     1      30.526 -23.669 -15.402  0.00  0.00    +0.029 C 
ATOM     10  C   UNL     1      30.871 -25.143 -13.519  0.00  0.00    -0.004 C 
ATOM     11  C   UNL     1      30.024 -24.358 -14.294  0.00  0.00    +0.002 C 
ATOM     12  H   UNL     1      34.552 -26.162 -14.180  0.00  0.00    +0.154 HD
ENDROOT
BRANCH   1  15
ATOM     13  N   UNL     1      40.409 -25.067 -13.854  0.00  0.00    -0.236 N 
ATOM     14  N   UNL     1      40.915 -25.885 -14.793  0.00  0.00    -0.180 NA
ATOM     15  C   UNL     1      36.338 -25.251 -14.363  0.00  0.00    +0.050 C 
ATOM     16  C   UNL     1      38.629 -25.827 -14.885  0.00  0.00    +0.037 C 
ATOM     17  C   UNL     1      39.044 -24.988 -13.856  0.00  0.00    +0.067 C 
ATOM     18  C   UNL     1      37.257 -25.966 -15.150  0.00  0.00    +0.018 C 
ATOM     19  C   UNL     1      36.790 -24.415 -13.333  0.00  0.00    +0.016 C 
ATOM     20  C   UNL     1      38.153 -24.266 -13.058  0.00  0.00    +0.017 C 
ATOM     21  C   UNL     1      39.829 -26.345 -15.418  0.00  0.00    +0.119 C 
ATOM     22  H   UNL     1      40.974 -24.569 -13.220  0.00  0.00    +0.174 HD
ENDBRANCH   1  15
BRANCH   7  24
ATOM     23  N   UNL     1      35.481 -22.327 -18.296  0.00  0.00    -0.398 NA
ATOM     24  C   UNL     1      34.138 -22.489 -18.251  0.00  0.00    +0.197 C 
ATOM     25  C   UNL     1      33.270 -22.008 -19.221  0.00  0.00    +0.098 C 
ATOM     26  C   UNL     1      35.972 -21.655 -19.361  0.00  0.00    +0.110 C 
ATOM     27  C   UNL     1      33.813 -21.321 -20.300  0.00  0.00    -0.016 C 
ATOM     28  C   UNL     1      35.189 -21.137 -20.380  0.00  0.00    +0.023 C 
ATOM     29  C   UNL     1      37.452 -21.475 -19.413  0.00  0.00    +0.066 C 
ENDBRANCH   7  24
TORSDOF 2
ENDMDL
MODEL 7
REMARK VINA RESULT:     -10.6      2.081      7.365
REMARK  Name = 9998128
REMARK  2 active torsions:
REMARK  status: ('A' for Active; 'I' for Inactive)
REMARK    1  A    between atoms: N_1  and  C_15
REMARK    2  A    between atoms: C_7  and  C_24
REMARK                            x       y       z     vdW  Elec       q    Type
REMARK                         _______ _______ _______ _____ _____    ______ ____
ROOT
ATOM      1  N   UNL     1      32.370 -22.424 -17.624  0.00  0.00    -0.290 N 
ATOM      2  N   UNL     1      33.629 -23.165 -15.780  0.00  0.00    -0.327 NA
ATOM      3  N   UNL     1      32.685 -24.703 -14.184  0.00  0.00    -0.342 NA
ATOM      4  C   UNL     1      31.367 -23.973 -16.050  0.00  0.00    +0.143 C 
ATOM      5  C   UNL     1      32.462 -23.209 -16.448  0.00  0.00    +0.184 C 
ATOM      6  C   UNL     1      31.532 -24.725 -14.876  0.00  0.00    +0.133 C 
ATOM      7  C   UNL     1      33.671 -23.924 -14.674  0.00  0.00    +0.165 C 
ATOM      8  C   UNL     1      30.157 -24.002 -16.765  0.00  0.00    -0.011 C 
ATOM      9  C   UNL     1      30.458 -25.501 -14.445  0.00  0.00    +0.029 C 
ATOM     10  C   UNL     1      29.101 -24.786 -16.312  0.00  0.00    -0.004 C 
ATOM     11  C   UNL     1      29.252 -25.537 -15.150  0.00  0.00    +0.002 C 
ATOM     12  H   UNL     1      31.459 -22.103 -17.818  0.00  0.00    +0.154 HD
ENDROOT
BRANCH   1  15
ATOM     13  N   UNL     1      35.918 -20.657 -21.449  0.00  0.00    -0.236 N 
ATOM     14  N   UNL     1      35.186 -19.830 -22.214  0.00  0.00    -0.180 NA
ATOM     15  C   UNL     1      33.326 -22.015 -18.567  0.00  0.00    +0.050 C 
ATOM     16  C   UNL     1      33.933 -20.719 -20.518  0.00  0.00    +0.037 C 
ATOM     17  C   UNL     1      35.225 -21.223 -20.414  0.00  0.00    +0.067 C 
ATOM     18  C   UNL     1      32.962 -21.116 -19.584  0.00  0.00    +0.018 C 
ATOM     19  C   UNL     1      34.636 -22.504 -18.492  0.00  0.00    +0.016 C 
ATOM     20  C   UNL     1      35.614 -22.118 -19.414  0.00  0.00    +0.017 C 
ATOM     21  C   UNL     1      33.979 -19.870 -21.644  0.00  0.00    +0.119 C 
ATOM     22  H   UNL     1      36.870 -20.839 -21.619  0.00  0.00    +0.174 HD
ENDBRANCH   1  15
BRANCH   7  24
ATOM     23  N   UNL     1      34.791 -24.260 -12.627  0.00  0.00    -0.398 NA
ATOM     24  C   UNL     1      34.902 -23.906 -13.928  0.00  0.00    +0.197 C 
ATOM     25  C   UNL     1      36.100 -23.545 -14.530  0.00  0.00    +0.098 C 
ATOM     26  C   UNL     1      35.931 -24.253 -11.900  0.00  0.00    +0.110 C 
ATOM     27  C   UNL     1      37.250 -23.549 -13.750  0.00  0.00    -0.016 C 
ATOM     28  C   UNL     1      37.173 -23.908 -12.408  0.00  0.00    +0.023 C 
ATOM     29  C   UNL     1      35.811 -24.643 -10.465  0.00  0.00    +0.066 C 
ENDBRANCH   7  24
TORSDOF 2
ENDMDL
MODEL 8
REMARK VINA RESULT:     -10.1      1.591      6.721
REMARK  Name = 9998128
REMARK  2 active torsions:
REMARK  status: ('A' for Active; 'I' for Inactive)
REMARK    1  A    between atoms: N_1  and  C_15
REMARK    2  A    between atoms: C_7  and  C_24
REMARK                            x       y       z     vdW  Elec       q    Type
REMARK                         _______ _______ _______ _____ _____    ______ ____
ROOT
ATOM      1  N   UNL     1      33.069 -23.080 -18.019  0.00  0.00    -0.290 N 
ATOM      2  N   UNL     1      34.955 -23.326 -16.634  0.00  0.00    -0.327 NA
ATOM      3  N   UNL     1      37.058 -22.311 -17.229  0.00  0.00    -0.342 NA
ATOM      4  C   UNL     1      35.160 -22.036 -18.668  0.00  0.00    +0.143 C 
ATOM      5  C   UNL     1      34.436 -22.809 -17.763  0.00  0.00    +0.184 C 
ATOM      6  C   UNL     1      36.507 -21.808 -18.348  0.00  0.00    +0.133 C 
ATOM      7  C   UNL     1      36.252 -23.043 -16.432  0.00  0.00    +0.165 C 
ATOM      8  C   UNL     1      34.595 -21.506 -19.841  0.00  0.00    -0.011 C 
ATOM      9  C   UNL     1      37.264 -21.040 -19.230  0.00  0.00    +0.029 C 
ATOM     10  C   UNL     1      35.373 -20.742 -20.704  0.00  0.00    -0.004 C 
ATOM     11  C   UNL     1      36.710 -20.509 -20.398  0.00  0.00    +0.002 C 
ATOM     12  H   UNL     1      32.844 -23.119 -18.977  0.00  0.00    +0.154 HD
ENDROOT
BRANCH   1  15
ATOM     13  N   UNL     1      28.613 -23.793 -14.861  0.00  0.00    -0.236 N 
ATOM     14  N   UNL     1      27.666 -23.053 -15.462  0.00  0.00    -0.180 NA
ATOM     15  C   UNL     1      31.973 -23.306 -17.171  0.00  0.00    +0.050 C 
ATOM     16  C   UNL     1      29.654 -22.933 -16.589  0.00  0.00    +0.037 C 
ATOM     17  C   UNL     1      29.829 -23.763 -15.487  0.00  0.00    +0.067 C 
ATOM     18  C   UNL     1      30.739 -22.696 -17.450  0.00  0.00    +0.018 C 
ATOM     19  C   UNL     1      32.114 -24.136 -16.052  0.00  0.00    +0.016 C 
ATOM     20  C   UNL     1      31.044 -24.383 -15.185  0.00  0.00    +0.017 C 
ATOM     21  C   UNL     1      28.304 -22.532 -16.513  0.00  0.00    +0.119 C 
ATOM     22  H   UNL     1      28.445 -24.311 -14.041  0.00  0.00    +0.174 HD
ENDBRANCH   1  15
BRANCH   7  24
ATOM     23  N   UNL     1      37.988 -24.280 -15.427  0.00  0.00    -0.398 NA
ATOM     24  C   UNL     1      36.848 -23.577 -15.236  0.00  0.00    +0.197 C 
ATOM     25  C   UNL     1      36.269 -23.370 -13.992  0.00  0.00    +0.098 C 
ATOM     26  C   UNL     1      38.572 -24.796 -14.322  0.00  0.00    +0.110 C 
ATOM     27  C   UNL     1      36.898 -23.916 -12.879  0.00  0.00    -0.016 C 
ATOM     28  C   UNL     1      38.072 -24.644 -13.038  0.00  0.00    +0.023 C 
ATOM     29  C   UNL     1      39.829 -25.572 -14.530  0.00  0.00    +0.066 C 
ENDBRANCH   7  24
TORSDOF 2
ENDMDL
MODEL 9
REMARK VINA RESULT:     -10.0      1.767      6.114
REMARK  Name = 9998128
REMARK  2 active torsions:
REMARK  status: ('A' for Active; 'I' for Inactive)
REMARK    1  A    between atoms: N_1  and  C_15
REMARK    2  A    between atoms: C_7  and  C_24
REMARK                            x       y       z     vdW  Elec       q    Type
REMARK                         _______ _______ _______ _____ _____    ______ ____
ROOT
ATOM      1  N   UNL     1      33.313 -23.206 -17.707  0.00  0.00    -0.290 N 
ATOM      2  N   UNL     1      35.359 -23.386 -16.560  0.00  0.00    -0.327 NA
ATOM      3  N   UNL     1      37.330 -22.267 -17.377  0.00  0.00    -0.342 NA
ATOM      4  C   UNL     1      35.265 -22.058 -18.577  0.00  0.00    +0.143 C 
ATOM      5  C   UNL     1      34.688 -22.876 -17.609  0.00  0.00    +0.184 C 
ATOM      6  C   UNL     1      36.630 -21.773 -18.413  0.00  0.00    +0.133 C 
ATOM      7  C   UNL     1      36.657 -23.047 -16.506  0.00  0.00    +0.165 C 
ATOM      8  C   UNL     1      34.542 -21.537 -19.665  0.00  0.00    -0.011 C 
ATOM      9  C   UNL     1      37.243 -20.959 -19.362  0.00  0.00    +0.029 C 
ATOM     10  C   UNL     1      35.179 -20.726 -20.598  0.00  0.00    -0.004 C 
ATOM     11  C   UNL     1      36.531 -20.436 -20.446  0.00  0.00    +0.002 C 
ATOM     12  H   UNL     1      32.978 -23.240 -18.633  0.00  0.00    +0.154 HD
ENDROOT
BRANCH   1  15
ATOM     13  N   UNL     1      29.685 -24.471 -13.762  0.00  0.00    -0.236 N 
ATOM     14  N   UNL     1      30.416 -25.126 -12.845  0.00  0.00    -0.180 NA
ATOM     15  C   UNL     1      32.337 -23.494 -16.741  0.00  0.00    +0.050 C 
ATOM     16  C   UNL     1      31.701 -24.476 -14.623  0.00  0.00    +0.037 C 
ATOM     17  C   UNL     1      30.396 -24.054 -14.853  0.00  0.00    +0.067 C 
ATOM     18  C   UNL     1      32.693 -24.196 -15.578  0.00  0.00    +0.018 C 
ATOM     19  C   UNL     1      31.012 -23.084 -16.942  0.00  0.00    +0.016 C 
ATOM     20  C   UNL     1      30.013 -23.355 -16.001  0.00  0.00    +0.017 C 
ATOM     21  C   UNL     1      31.642 -25.128 -13.373  0.00  0.00    +0.119 C 
ATOM     22  H   UNL     1      28.720 -24.305 -13.656  0.00  0.00    +0.174 HD
ENDBRANCH   1  15
BRANCH   7  24
ATOM     23  N   UNL     1      37.017 -23.144 -14.179  0.00  0.00    -0.398 NA
ATOM     24  C   UNL     1      37.414 -23.571 -15.400  0.00  0.00    +0.197 C 
ATOM     25  C   UNL     1      38.468 -24.450 -15.604  0.00  0.00    +0.098 C 
ATOM     26  C   UNL     1      37.708 -23.619 -13.119  0.00  0.00    +0.110 C 
ATOM     27  C   UNL     1      39.156 -24.916 -14.490  0.00  0.00    -0.016 C 
ATOM     28  C   UNL     1      38.775 -24.498 -13.219  0.00  0.00    +0.023 C 
ATOM     29  C   UNL     1      37.273 -23.148 -11.771  0.00  0.00    +0.066 C 
ENDBRANCH   7  24
TORSDOF 2
ENDMDL
