MODEL 1
REMARK VINA RESULT:     -12.3      0.000      0.000
REMARK  Name = 24743471
REMARK  3 active torsions:
REMARK  status: ('A' for Active; 'I' for Inactive)
REMARK    1  A    between atoms: C_1  and  N_7
REMARK    2  A    between atoms: C_6  and  C_17
REMARK    3  A    between atoms: C_22  and  N_24
REMARK                            x       y       z     vdW  Elec       q    Type
REMARK                         _______ _______ _______ _____ _____    ______ ____
ROOT
ATOM      1  C   UNL     1      36.349 -23.431 -15.980  0.00  0.00    +0.048 C 
ATOM      2  C   UNL     1      35.120 -23.477 -16.638  0.00  0.00    +0.015 C 
ATOM      3  C   UNL     1      37.377 -22.630 -16.478  0.00  0.00    +0.015 C 
ATOM      4  C   UNL     1      34.919 -22.723 -17.794  0.00  0.00    +0.001 C 
ATOM      5  C   UNL     1      37.175 -21.875 -17.634  0.00  0.00    +0.001 C 
ATOM      6  C   UNL     1      35.946 -21.923 -18.291  0.00  0.00    +0.000 C 
ENDROOT
BRANCH   1   7
ATOM      7  N   UNL     1      36.549 -24.176 -14.834  0.00  0.00    -0.311 N 
ATOM      8  N   UNL     1      39.163 -26.400 -14.195  0.00  0.00    +0.387 N 
ATOM      9  C   UNL     1      37.081 -25.935 -13.324  0.00  0.00    -0.003 C 
ATOM     10  C   UNL     1      37.035 -25.559 -14.815  0.00  0.00    +0.050 C 
ATOM     11  C   UNL     1      36.215 -24.904 -12.622  0.00  0.00    +0.021 C 
ATOM     12  C   UNL     1      38.560 -25.890 -12.965  0.00  0.00    -0.076 C 
ATOM     13  C   UNL     1      38.492 -25.678 -15.280  0.00  0.00    -0.057 C 
ATOM     14  C   UNL     1      36.341 -23.653 -13.486  0.00  0.00    +0.091 C 
ATOM     15  C   UNL     1      40.608 -26.227 -14.221  0.00  0.00    -0.101 C 
ATOM     16  H   UNL     1      39.035 -27.410 -14.283  0.00  0.00    -0.080 HD
ENDBRANCH   1   7
BRANCH   6  17
ATOM     17  C   UNL     1      35.738 -21.140 -19.491  0.00  0.00    +0.000 C 
ATOM     18  C   UNL     1      36.820 -20.513 -20.110  0.00  0.00    +0.001 C 
ATOM     19  C   UNL     1      34.457 -21.012 -20.027  0.00  0.00    +0.001 C 
ATOM     20  C   UNL     1      36.620 -19.758 -21.266  0.00  0.00    +0.017 C 
ATOM     21  C   UNL     1      34.258 -20.258 -21.184  0.00  0.00    +0.017 C 
ATOM     22  C   UNL     1      35.340 -19.630 -21.802  0.00  0.00    +0.077 C 
BRANCH  22  24
ATOM     23  O   UNL     1      35.746 -16.713 -22.219  0.00  0.00    -0.268 OA
ATOM     24  N   UNL     1      35.133 -18.849 -22.999  0.00  0.00    -0.155 N 
ATOM     25  N   UNL     1      34.728 -19.602 -24.077  0.00  0.00    -0.170 NA
ATOM     26  C   UNL     1      35.326 -17.467 -23.096  0.00  0.00    +0.272 C 
ATOM     27  C   UNL     1      35.009 -16.839 -24.404  0.00  0.00    +0.062 C 
ATOM     28  C   UNL     1      34.490 -18.999 -25.190  0.00  0.00    +0.118 C 
ATOM     29  C   UNL     1      34.601 -17.567 -25.438  0.00  0.00    +0.027 C 
ENDBRANCH  22  24
ENDBRANCH   6  17
TORSDOF 3
ENDMDL
MODEL 2
REMARK VINA RESULT:     -11.9      0.969      1.563
REMARK  Name = 24743471
REMARK  3 active torsions:
REMARK  status: ('A' for Active; 'I' for Inactive)
REMARK    1  A    between atoms: C_1  and  N_7
REMARK    2  A    between atoms: C_6  and  C_17
REMARK    3  A    between atoms: C_22  and  N_24
REMARK                            x       y       z     vdW  Elec       q    Type
REMARK                         _______ _______ _______ _____ _____    ______ ____
ROOT
ATOM      1  C   UNL     1      36.426 -23.368 -16.150  0.00  0.00    +0.048 C 
ATOM      2  C   UNL     1      35.215 -23.406 -16.839  0.00  0.00    +0.015 C 
ATOM      3  C   UNL     1      37.455 -22.536 -16.593  0.00  0.00    +0.015 C 
ATOM      4  C   UNL     1      35.031 -22.611 -17.972  0.00  0.00    +0.001 C 
ATOM      5  C   UNL     1      37.271 -21.741 -17.725  0.00  0.00    +0.001 C 
ATOM      6  C   UNL     1      36.059 -21.780 -18.413  0.00  0.00    +0.000 C 
ENDROOT
BRANCH   1   7
ATOM      7  N   UNL     1      36.610 -24.153 -15.029  0.00  0.00    -0.311 N 
ATOM      8  N   UNL     1      39.246 -26.355 -14.402  0.00  0.00    +0.387 N 
ATOM      9  C   UNL     1      37.134 -25.959 -13.572  0.00  0.00    -0.003 C 
ATOM     10  C   UNL     1      37.121 -25.527 -15.049  0.00  0.00    +0.050 C 
ATOM     11  C   UNL     1      36.230 -24.971 -12.856  0.00  0.00    +0.021 C 
ATOM     12  C   UNL     1      38.601 -25.903 -13.171  0.00  0.00    -0.076 C 
ATOM     13  C   UNL     1      38.591 -25.603 -15.478  0.00  0.00    -0.057 C 
ATOM     14  C   UNL     1      36.356 -23.686 -13.668  0.00  0.00    +0.091 C 
ATOM     15  C   UNL     1      40.687 -26.155 -14.382  0.00  0.00    -0.101 C 
ATOM     16  H   UNL     1      39.139 -27.362 -14.532  0.00  0.00    -0.080 HD
ENDBRANCH   1   7
BRANCH   6  17
ATOM     17  C   UNL     1      35.869 -20.956 -19.588  0.00  0.00    +0.000 C 
ATOM     18  C   UNL     1      34.606 -20.857 -20.173  0.00  0.00    +0.001 C 
ATOM     19  C   UNL     1      36.947 -20.261 -20.135  0.00  0.00    +0.001 C 
ATOM     20  C   UNL     1      34.422 -20.063 -21.305  0.00  0.00    +0.017 C 
ATOM     21  C   UNL     1      36.763 -19.466 -21.267  0.00  0.00    +0.017 C 
ATOM     22  C   UNL     1      35.501 -19.368 -21.852  0.00  0.00    +0.077 C 
BRANCH  22  24
ATOM     23  O   UNL     1      34.872 -20.206 -24.636  0.00  0.00    -0.268 OA
ATOM     24  N   UNL     1      35.310 -18.546 -23.023  0.00  0.00    -0.155 N 
ATOM     25  N   UNL     1      35.406 -17.198 -22.764  0.00  0.00    -0.170 NA
ATOM     26  C   UNL     1      35.041 -19.032 -24.308  0.00  0.00    +0.272 C 
ATOM     27  C   UNL     1      34.929 -18.024 -25.392  0.00  0.00    +0.062 C 
ATOM     28  C   UNL     1      35.278 -16.374 -23.746  0.00  0.00    +0.118 C 
ATOM     29  C   UNL     1      35.040 -16.725 -25.141  0.00  0.00    +0.027 C 
ENDBRANCH  22  24
ENDBRANCH   6  17
TORSDOF 3
ENDMDL
MODEL 3
REMARK VINA RESULT:     -10.4      1.396      2.369
REMARK  Name = 24743471
REMARK  3 active torsions:
REMARK  status: ('A' for Active; 'I' for Inactive)
REMARK    1  A    between atoms: C_1  and  N_7
REMARK    2  A    between atoms: C_6  and  C_17
REMARK    3  A    between atoms: C_22  and  N_24
REMARK                            x       y       z     vdW  Elec       q    Type
REMARK                         _______ _______ _______ _____ _____    ______ ____
ROOT
ATOM      1  C   UNL     1      36.805 -23.710 -16.095  0.00  0.00    +0.048 C 
ATOM      2  C   UNL     1      37.837 -22.902 -16.571  0.00  0.00    +0.015 C 
ATOM      3  C   UNL     1      35.544 -23.653 -16.689  0.00  0.00    +0.015 C 
ATOM      4  C   UNL     1      37.609 -22.037 -17.642  0.00  0.00    +0.001 C 
ATOM      5  C   UNL     1      35.317 -22.788 -17.761  0.00  0.00    +0.001 C 
ATOM      6  C   UNL     1      36.350 -21.981 -18.236  0.00  0.00    +0.000 C 
ENDROOT
BRANCH   1   7
ATOM      7  N   UNL     1      37.029 -24.567 -15.035  0.00  0.00    -0.311 N 
ATOM      8  N   UNL     1      37.567 -23.699 -11.696  0.00  0.00    +0.387 N 
ATOM      9  C   UNL     1      37.863 -25.550 -13.036  0.00  0.00    -0.003 C 
ATOM     10  C   UNL     1      37.980 -24.316 -13.948  0.00  0.00    +0.050 C 
ATOM     11  C   UNL     1      37.180 -26.611 -13.881  0.00  0.00    +0.021 C 
ATOM     12  C   UNL     1      37.062 -25.064 -11.836  0.00  0.00    -0.076 C 
ATOM     13  C   UNL     1      37.557 -23.144 -13.054  0.00  0.00    -0.057 C 
ATOM     14  C   UNL     1      36.302 -25.820 -14.845  0.00  0.00    +0.091 C 
ATOM     15  C   UNL     1      36.779 -22.906 -10.765  0.00  0.00    -0.101 C 
ATOM     16  H   UNL     1      38.507 -23.688 -11.296  0.00  0.00    -0.080 HD
ENDBRANCH   1   7
BRANCH   6  17
ATOM     17  C   UNL     1      36.113 -21.084 -19.347  0.00  0.00    +0.000 C 
ATOM     18  C   UNL     1      37.152 -20.292 -19.836  0.00  0.00    +0.001 C 
ATOM     19  C   UNL     1      34.847 -21.011 -19.927  0.00  0.00    +0.001 C 
ATOM     20  C   UNL     1      36.925 -19.427 -20.907  0.00  0.00    +0.017 C 
ATOM     21  C   UNL     1      34.620 -20.146 -20.998  0.00  0.00    +0.017 C 
ATOM     22  C   UNL     1      35.659 -19.354 -21.487  0.00  0.00    +0.077 C 
BRANCH  22  24
ATOM     23  O   UNL     1      35.058 -20.017 -24.325  0.00  0.00    -0.268 OA
ATOM     24  N   UNL     1      35.423 -18.459 -22.596  0.00  0.00    -0.155 N 
ATOM     25  N   UNL     1      35.455 -17.131 -22.239  0.00  0.00    -0.170 NA
ATOM     26  C   UNL     1      35.172 -18.863 -23.912  0.00  0.00    +0.272 C 
ATOM     27  C   UNL     1      35.006 -17.786 -24.920  0.00  0.00    +0.062 C 
ATOM     28  C   UNL     1      35.282 -16.245 -23.158  0.00  0.00    +0.118 C 
ATOM     29  C   UNL     1      35.055 -16.504 -24.575  0.00  0.00    +0.027 C 
ENDBRANCH  22  24
ENDBRANCH   6  17
TORSDOF 3
ENDMDL
MODEL 4
REMARK VINA RESULT:     -10.4      1.083      2.241
REMARK  Name = 24743471
REMARK  3 active torsions:
REMARK  status: ('A' for Active; 'I' for Inactive)
REMARK    1  A    between atoms: C_1  and  N_7
REMARK    2  A    between atoms: C_6  and  C_17
REMARK    3  A    between atoms: C_22  and  N_24
REMARK                            x       y       z     vdW  Elec       q    Type
REMARK                         _______ _______ _______ _____ _____    ______ ____
ROOT
ATOM      1  C   UNL     1      36.765 -23.746 -16.008  0.00  0.00    +0.048 C 
ATOM      2  C   UNL     1      37.792 -22.953 -16.519  0.00  0.00    +0.015 C 
ATOM      3  C   UNL     1      35.496 -23.705 -16.586  0.00  0.00    +0.015 C 
ATOM      4  C   UNL     1      37.549 -22.116 -17.610  0.00  0.00    +0.001 C 
ATOM      5  C   UNL     1      35.255 -22.869 -17.677  0.00  0.00    +0.001 C 
ATOM      6  C   UNL     1      36.282 -22.075 -18.188  0.00  0.00    +0.000 C 
ENDROOT
BRANCH   1   7
ATOM      7  N   UNL     1      37.004 -24.575 -14.929  0.00  0.00    -0.311 N 
ATOM      8  N   UNL     1      37.516 -23.623 -11.609  0.00  0.00    +0.387 N 
ATOM      9  C   UNL     1      37.852 -25.497 -12.907  0.00  0.00    -0.003 C 
ATOM     10  C   UNL     1      37.947 -24.281 -13.846  0.00  0.00    +0.050 C 
ATOM     11  C   UNL     1      37.194 -26.590 -13.730  0.00  0.00    +0.021 C 
ATOM     12  C   UNL     1      37.038 -25.000 -11.720  0.00  0.00    -0.076 C 
ATOM     13  C   UNL     1      37.498 -23.099 -12.978  0.00  0.00    -0.057 C 
ATOM     14  C   UNL     1      36.302 -25.839 -14.713  0.00  0.00    +0.091 C 
ATOM     15  C   UNL     1      36.709 -22.826 -10.697  0.00  0.00    -0.101 C 
ATOM     16  H   UNL     1      38.453 -23.584 -11.207  0.00  0.00    -0.080 HD
ENDBRANCH   1   7
BRANCH   6  17
ATOM     17  C   UNL     1      36.030 -21.208 -19.319  0.00  0.00    +0.000 C 
ATOM     18  C   UNL     1      34.748 -21.129 -19.864  0.00  0.00    +0.001 C 
ATOM     19  C   UNL     1      37.067 -20.452 -19.863  0.00  0.00    +0.001 C 
ATOM     20  C   UNL     1      34.505 -20.294 -20.955  0.00  0.00    +0.017 C 
ATOM     21  C   UNL     1      36.824 -19.616 -20.953  0.00  0.00    +0.017 C 
ATOM     22  C   UNL     1      35.542 -19.538 -21.499  0.00  0.00    +0.077 C 
BRANCH  22  24
ATOM     23  O   UNL     1      35.629 -16.567 -21.627  0.00  0.00    -0.268 OA
ATOM     24  N   UNL     1      35.290 -18.673 -22.628  0.00  0.00    -0.155 N 
ATOM     25  N   UNL     1      35.012 -19.358 -23.787  0.00  0.00    -0.170 NA
ATOM     26  C   UNL     1      35.328 -17.274 -22.589  0.00  0.00    +0.272 C 
ATOM     27  C   UNL     1      34.988 -16.563 -23.846  0.00  0.00    +0.062 C 
ATOM     28  C   UNL     1      34.746 -18.681 -24.850  0.00  0.00    +0.118 C 
ATOM     29  C   UNL     1      34.702 -17.228 -24.960  0.00  0.00    +0.027 C 
ENDBRANCH  22  24
ENDBRANCH   6  17
TORSDOF 3
ENDMDL
MODEL 5
REMARK VINA RESULT:     -10.2      7.797     15.029
REMARK  Name = 24743471
REMARK  3 active torsions:
REMARK  status: ('A' for Active; 'I' for Inactive)
REMARK    1  A    between atoms: C_1  and  N_7
REMARK    2  A    between atoms: C_6  and  C_17
REMARK    3  A    between atoms: C_22  and  N_24
REMARK                            x       y       z     vdW  Elec       q    Type
REMARK                         _______ _______ _______ _____ _____    ______ ____
ROOT
ATOM      1  C   UNL     1      32.825  -8.752 -23.243  0.00  0.00    +0.048 C 
ATOM      2  C   UNL     1      33.919  -9.123 -24.025  0.00  0.00    +0.015 C 
ATOM      3  C   UNL     1      32.072  -9.728 -22.589  0.00  0.00    +0.015 C 
ATOM      4  C   UNL     1      34.260 -10.470 -24.153  0.00  0.00    +0.001 C 
ATOM      5  C   UNL     1      32.414 -11.075 -22.717  0.00  0.00    +0.001 C 
ATOM      6  C   UNL     1      33.508 -11.445 -23.499  0.00  0.00    +0.000 C 
ENDROOT
BRANCH   1   7
ATOM      7  N   UNL     1      32.486  -7.420 -23.115  0.00  0.00    -0.311 N 
ATOM      8  N   UNL     1      33.611  -4.758 -25.075  0.00  0.00    +0.387 N 
ATOM      9  C   UNL     1      32.571  -5.044 -23.039  0.00  0.00    -0.003 C 
ATOM     10  C   UNL     1      33.420  -6.303 -23.287  0.00  0.00    +0.050 C 
ATOM     11  C   UNL     1      31.325  -5.533 -22.322  0.00  0.00    +0.021 C 
ATOM     12  C   UNL     1      32.334  -4.464 -24.427  0.00  0.00    -0.076 C 
ATOM     13  C   UNL     1      33.902  -6.155 -24.735  0.00  0.00    -0.057 C 
ATOM     14  C   UNL     1      31.129  -6.956 -22.834  0.00  0.00    +0.091 C 
ATOM     15  C   UNL     1      33.571  -4.533 -26.512  0.00  0.00    -0.101 C 
ATOM     16  H   UNL     1      34.349  -4.133 -24.748  0.00  0.00    -0.080 HD
ENDBRANCH   1   7
BRANCH   6  17
ATOM     17  C   UNL     1      33.862 -12.842 -23.631  0.00  0.00    +0.000 C 
ATOM     18  C   UNL     1      34.292 -13.560 -22.515  0.00  0.00    +0.001 C 
ATOM     19  C   UNL     1      33.773 -13.469 -24.874  0.00  0.00    +0.001 C 
ATOM     20  C   UNL     1      34.633 -14.907 -22.642  0.00  0.00    +0.017 C 
ATOM     21  C   UNL     1      34.114 -14.816 -25.001  0.00  0.00    +0.017 C 
ATOM     22  C   UNL     1      34.545 -15.534 -23.885  0.00  0.00    +0.077 C 
BRANCH  22  24
ATOM     23  O   UNL     1      33.762 -17.465 -26.009  0.00  0.00    -0.268 OA
ATOM     24  N   UNL     1      34.898 -16.929 -24.016  0.00  0.00    -0.155 N 
ATOM     25  N   UNL     1      35.740 -17.372 -23.023  0.00  0.00    -0.170 NA
ATOM     26  C   UNL     1      34.458 -17.772 -25.042  0.00  0.00    +0.272 C 
ATOM     27  C   UNL     1      34.893 -19.190 -24.971  0.00  0.00    +0.062 C 
ATOM     28  C   UNL     1      36.097 -18.610 -23.031  0.00  0.00    +0.118 C 
ATOM     29  C   UNL     1      35.692 -19.620 -24.001  0.00  0.00    +0.027 C 
ENDBRANCH  22  24
ENDBRANCH   6  17
TORSDOF 3
ENDMDL
MODEL 6
REMARK VINA RESULT:      -9.4      6.703     11.491
REMARK  Name = 24743471
REMARK  3 active torsions:
REMARK  status: ('A' for Active; 'I' for Inactive)
REMARK    1  A    between atoms: C_1  and  N_7
REMARK    2  A    between atoms: C_6  and  C_17
REMARK    3  A    between atoms: C_22  and  N_24
REMARK                            x       y       z     vdW  Elec       q    Type
REMARK                         _______ _______ _______ _____ _____    ______ ____
ROOT
ATOM      1  C   UNL     1      34.630 -15.853 -23.993  0.00  0.00    +0.048 C 
ATOM      2  C   UNL     1      34.936 -15.190 -22.805  0.00  0.00    +0.015 C 
ATOM      3  C   UNL     1      33.995 -15.169 -25.030  0.00  0.00    +0.015 C 
ATOM      4  C   UNL     1      34.606 -13.843 -22.653  0.00  0.00    +0.001 C 
ATOM      5  C   UNL     1      33.666 -13.821 -24.877  0.00  0.00    +0.001 C 
ATOM      6  C   UNL     1      33.972 -13.159 -23.689  0.00  0.00    +0.000 C 
ENDROOT
BRANCH   1   7
ATOM      7  N   UNL     1      34.956 -17.186 -24.145  0.00  0.00    -0.311 N 
ATOM      8  N   UNL     1      35.212 -19.596 -21.631  0.00  0.00    +0.387 N 
ATOM      9  C   UNL     1      35.869 -19.359 -23.827  0.00  0.00    -0.003 C 
ATOM     10  C   UNL     1      35.808 -17.945 -23.225  0.00  0.00    +0.050 C 
ATOM     11  C   UNL     1      35.409 -19.204 -25.266  0.00  0.00    +0.021 C 
ATOM     12  C   UNL     1      34.951 -20.191 -22.941  0.00  0.00    -0.076 C 
ATOM     13  C   UNL     1      35.159 -18.147 -21.850  0.00  0.00    -0.057 C 
ATOM     14  C   UNL     1      34.446 -18.022 -25.230  0.00  0.00    +0.091 C 
ATOM     15  C   UNL     1      34.266 -20.041 -20.619  0.00  0.00    -0.101 C 
ATOM     16  H   UNL     1      36.120 -19.885 -21.264  0.00  0.00    -0.080 HD
ENDBRANCH   1   7
BRANCH   6  17
ATOM     17  C   UNL     1      33.630 -11.762 -23.532  0.00  0.00    +0.000 C 
ATOM     18  C   UNL     1      32.558 -11.394 -22.718  0.00  0.00    +0.001 C 
ATOM     19  C   UNL     1      34.371 -10.784 -24.194  0.00  0.00    +0.001 C 
ATOM     20  C   UNL     1      32.228 -10.047 -22.566  0.00  0.00    +0.017 C 
ATOM     21  C   UNL     1      34.041  -9.437 -24.042  0.00  0.00    +0.017 C 
ATOM     22  C   UNL     1      32.969  -9.069 -23.228  0.00  0.00    +0.077 C 
BRANCH  22  24
ATOM     23  O   UNL     1      33.421  -7.290 -20.886  0.00  0.00    -0.268 OA
ATOM     24  N   UNL     1      32.628  -7.674 -23.071  0.00  0.00    -0.155 N 
ATOM     25  N   UNL     1      32.050  -7.126 -24.193  0.00  0.00    -0.170 NA
ATOM     26  C   UNL     1      32.856  -6.920 -21.915  0.00  0.00    +0.272 C 
ATOM     27  C   UNL     1      32.384  -5.512 -21.934  0.00  0.00    +0.062 C 
ATOM     28  C   UNL     1      31.683  -5.892 -24.151  0.00  0.00    +0.118 C 
ATOM     29  C   UNL     1      31.811  -4.991 -23.013  0.00  0.00    +0.027 C 
ENDBRANCH  22  24
ENDBRANCH   6  17
TORSDOF 3
ENDMDL
