MODEL 1
REMARK VINA RESULT:     -10.7      0.000      0.000
REMARK  Name = 11154925
REMARK  9 active torsions:
REMARK  status: ('A' for Active; 'I' for Inactive)
REMARK    1  A    between atoms: C_6  and  O_11
REMARK    2  A    between atoms: C_8  and  O_24
REMARK    3  A    between atoms: O_11  and  C_12
REMARK    4  A    between atoms: C_12  and  C_13
REMARK    5  A    between atoms: C_13  and  O_15
REMARK    6  A    between atoms: O_15  and  C_17
REMARK    7  A    between atoms: C_17  and  C_18
REMARK    8  A    between atoms: C_18  and  N_20
REMARK    9  A    between atoms: O_24  and  C_29
REMARK                            x       y       z     vdW  Elec       q    Type
REMARK                         _______ _______ _______ _____ _____    ______ ____
ROOT
ATOM      1  N   UNL     1      34.181 -16.248 -25.712  0.00  0.00    -0.180 N 
ATOM      2  N   UNL     1      33.612 -15.682 -26.812  0.00  0.00    -0.151 NA
ATOM      3  N   UNL     1      33.819 -13.558 -25.676  0.00  0.00    -0.187 NA
ATOM      4  C   UNL     1      34.574 -15.536 -24.608  0.00  0.00    +0.126 C 
ATOM      5  C   UNL     1      35.105 -16.412 -23.690  0.00  0.00    +0.034 C 
ATOM      6  C   UNL     1      35.030 -17.707 -24.266  0.00  0.00    +0.153 C 
ATOM      7  C   UNL     1      34.456 -17.576 -25.515  0.00  0.00    +0.126 C 
ATOM      8  C   UNL     1      34.357 -14.132 -24.651  0.00  0.00    +0.247 C 
ATOM      9  C   UNL     1      35.660 -16.124 -22.352  0.00  0.00    +0.036 C 
ATOM     10  C   UNL     1      33.465 -14.386 -26.732  0.00  0.00    +0.220 C 
ENDROOT
BRANCH   6  11
ATOM     11  O   UNL     1      35.429 -18.872 -23.738  0.00  0.00    -0.470 OA
BRANCH  11  12
ATOM     12  C   UNL     1      34.625 -19.425 -22.690  0.00  0.00    +0.249 C 
BRANCH  12  13
ATOM     13  C   UNL     1      35.537 -20.082 -21.661  0.00  0.00    +0.212 C 
ATOM     14  C   UNL     1      36.837 -19.310 -21.496  0.00  0.00    +0.051 C 
BRANCH  13  15
ATOM     15  O   UNL     1      34.854 -20.109 -20.409  0.00  0.00    -0.450 OA
BRANCH  15  17
ATOM     16  O   UNL     1      32.752 -21.024 -20.643  0.00  0.00    -0.252 OA
ATOM     17  C   UNL     1      33.914 -21.095 -20.265  0.00  0.00    +0.296 C 
BRANCH  17  18
ATOM     18  C   UNL     1      34.538 -22.284 -19.560  0.00  0.00    +0.036 C 
ATOM     19  C   UNL     1      33.609 -22.814 -18.475  0.00  0.00    -0.013 C 
BRANCH  18  20
ATOM     20  N   UNL     1      35.798 -21.849 -18.961  0.00  0.00    +0.389 N 
ATOM     21  H   UNL     1      36.392 -22.660 -18.793  0.00  0.00    -0.088 HD
ATOM     22  H   UNL     1      35.608 -21.377 -18.076  0.00  0.00    -0.088 HD
ATOM     23  H   UNL     1      36.271 -21.205 -19.594  0.00  0.00    -0.088 HD
ENDBRANCH  18  20
ENDBRANCH  17  18
ENDBRANCH  15  17
ENDBRANCH  13  15
ENDBRANCH  12  13
ENDBRANCH  11  12
ENDBRANCH   6  11
BRANCH   8  24
ATOM     24  O   UNL     1      34.736 -13.405 -23.572  0.00  0.00    -0.433 OA
BRANCH  24  29
ATOM     25  F   UNL     1      34.997 -10.873 -24.602  0.00  0.00    -0.201 F 
ATOM     26  N   UNL     1      31.166  -9.385 -22.497  0.00  0.00    -0.316 N 
ATOM     27  C   UNL     1      33.007 -10.173 -23.483  0.00  0.00    +0.045 C 
ATOM     28  C   UNL     1      31.942 -10.513 -22.645  0.00  0.00    +0.050 C 
ATOM     29  C   UNL     1      33.816 -12.446 -23.271  0.00  0.00    +0.175 C 
ATOM     30  C   UNL     1      31.703  -8.347 -23.211  0.00  0.00    +0.026 C 
ATOM     31  C   UNL     1      33.961 -11.158 -23.802  0.00  0.00    +0.176 C 
ATOM     32  C   UNL     1      32.842  -8.804 -23.832  0.00  0.00    +0.014 C 
ATOM     33  C   UNL     1      31.785 -11.795 -22.107  0.00  0.00    +0.018 C 
ATOM     34  C   UNL     1      32.744 -12.757 -22.437  0.00  0.00    +0.041 C 
ATOM     35  C   UNL     1      31.065  -7.017 -23.224  0.00  0.00    +0.047 C 
ATOM     36  H   UNL     1      30.345  -9.333 -21.956  0.00  0.00    +0.152 HD
ENDBRANCH  24  29
ENDBRANCH   8  24
TORSDOF 9
ENDMDL
MODEL 2
REMARK VINA RESULT:     -10.7      6.679     11.248
REMARK  Name = 11154925
REMARK  9 active torsions:
REMARK  status: ('A' for Active; 'I' for Inactive)
REMARK    1  A    between atoms: C_6  and  O_11
REMARK    2  A    between atoms: C_8  and  O_24
REMARK    3  A    between atoms: O_11  and  C_12
REMARK    4  A    between atoms: C_12  and  C_13
REMARK    5  A    between atoms: C_13  and  O_15
REMARK    6  A    between atoms: O_15  and  C_17
REMARK    7  A    between atoms: C_17  and  C_18
REMARK    8  A    between atoms: C_18  and  N_20
REMARK    9  A    between atoms: O_24  and  C_29
REMARK                            x       y       z     vdW  Elec       q    Type
REMARK                         _______ _______ _______ _____ _____    ______ ____
ROOT
ATOM      1  N   UNL     1      32.615 -23.505 -15.231  0.00  0.00    -0.180 N 
ATOM      2  N   UNL     1      31.369 -23.131 -15.637  0.00  0.00    -0.151 NA
ATOM      3  N   UNL     1      32.291 -22.917 -17.861  0.00  0.00    -0.187 NA
ATOM      4  C   UNL     1      33.693 -23.598 -16.074  0.00  0.00    +0.126 C 
ATOM      5  C   UNL     1      34.785 -24.000 -15.341  0.00  0.00    +0.034 C 
ATOM      6  C   UNL     1      34.347 -24.156 -14.000  0.00  0.00    +0.153 C 
ATOM      7  C   UNL     1      33.002 -23.844 -13.961  0.00  0.00    +0.126 C 
ATOM      8  C   UNL     1      33.458 -23.277 -17.438  0.00  0.00    +0.247 C 
ATOM      9  C   UNL     1      36.168 -24.239 -15.801  0.00  0.00    +0.036 C 
ATOM     10  C   UNL     1      31.281 -22.861 -16.912  0.00  0.00    +0.220 C 
ENDROOT
BRANCH   6  11
ATOM     11  O   UNL     1      35.065 -24.534 -12.933  0.00  0.00    -0.470 OA
BRANCH  11  12
ATOM     12  C   UNL     1      36.038 -23.607 -12.439  0.00  0.00    +0.249 C 
BRANCH  12  13
ATOM     13  C   UNL     1      36.714 -24.208 -11.212  0.00  0.00    +0.212 C 
ATOM     14  C   UNL     1      35.693 -24.640 -10.170  0.00  0.00    +0.051 C 
BRANCH  13  15
ATOM     15  O   UNL     1      37.462 -25.350 -11.626  0.00  0.00    -0.450 OA
BRANCH  15  17
ATOM     16  O   UNL     1      39.152 -24.108 -12.580  0.00  0.00    -0.252 OA
ATOM     17  C   UNL     1      38.454 -25.113 -12.540  0.00  0.00    +0.296 C 
BRANCH  17  18
ATOM     18  C   UNL     1      38.548 -26.286 -13.496  0.00  0.00    +0.036 C 
ATOM     19  C   UNL     1      39.179 -25.858 -14.814  0.00  0.00    -0.013 C 
BRANCH  18  20
ATOM     20  N   UNL     1      37.195 -26.787 -13.737  0.00  0.00    +0.389 N 
ATOM     21  H   UNL     1      37.174 -27.794 -13.583  0.00  0.00    -0.088 HD
ATOM     22  H   UNL     1      36.925 -26.584 -14.699  0.00  0.00    -0.088 HD
ATOM     23  H   UNL     1      36.545 -26.330 -13.098  0.00  0.00    -0.088 HD
ENDBRANCH  18  20
ENDBRANCH  17  18
ENDBRANCH  15  17
ENDBRANCH  13  15
ENDBRANCH  12  13
ENDBRANCH  11  12
ENDBRANCH   6  11
BRANCH   8  24
ATOM     24  O   UNL     1      34.506 -23.361 -18.292  0.00  0.00    -0.433 OA
BRANCH  24  29
ATOM     25  F   UNL     1      36.886 -22.198 -19.017  0.00  0.00    -0.201 F 
ATOM     26  N   UNL     1      34.805 -19.156 -21.798  0.00  0.00    -0.316 N 
ATOM     27  C   UNL     1      35.742 -20.655 -20.436  0.00  0.00    +0.045 C 
ATOM     28  C   UNL     1      34.523 -20.202 -20.947  0.00  0.00    +0.050 C 
ATOM     29  C   UNL     1      34.519 -22.318 -19.168  0.00  0.00    +0.175 C 
ATOM     30  C   UNL     1      36.155 -18.933 -21.841  0.00  0.00    +0.026 C 
ATOM     31  C   UNL     1      35.739 -21.733 -19.530  0.00  0.00    +0.176 C 
ATOM     32  C   UNL     1      36.762 -19.845 -21.009  0.00  0.00    +0.014 C 
ATOM     33  C   UNL     1      33.297 -20.776 -20.595  0.00  0.00    +0.018 C 
ATOM     34  C   UNL     1      33.318 -21.846 -19.695  0.00  0.00    +0.041 C 
ATOM     35  C   UNL     1      36.727 -17.863 -22.679  0.00  0.00    +0.047 C 
ATOM     36  H   UNL     1      34.131 -18.643 -22.300  0.00  0.00    +0.152 HD
ENDBRANCH  24  29
ENDBRANCH   8  24
TORSDOF 9
ENDMDL
MODEL 3
REMARK VINA RESULT:     -10.3      4.222      7.637
REMARK  Name = 11154925
REMARK  9 active torsions:
REMARK  status: ('A' for Active; 'I' for Inactive)
REMARK    1  A    between atoms: C_6  and  O_11
REMARK    2  A    between atoms: C_8  and  O_24
REMARK    3  A    between atoms: O_11  and  C_12
REMARK    4  A    between atoms: C_12  and  C_13
REMARK    5  A    between atoms: C_13  and  O_15
REMARK    6  A    between atoms: O_15  and  C_17
REMARK    7  A    between atoms: C_17  and  C_18
REMARK    8  A    between atoms: C_18  and  N_20
REMARK    9  A    between atoms: O_24  and  C_29
REMARK                            x       y       z     vdW  Elec       q    Type
REMARK                         _______ _______ _______ _____ _____    ______ ____
ROOT
ATOM      1  N   UNL     1      34.004 -21.803 -19.408  0.00  0.00    -0.180 N 
ATOM      2  N   UNL     1      32.780 -21.697 -19.999  0.00  0.00    -0.151 NA
ATOM      3  N   UNL     1      33.794 -20.133 -21.539  0.00  0.00    -0.187 NA
ATOM      4  C   UNL     1      35.114 -21.119 -19.833  0.00  0.00    +0.126 C 
ATOM      5  C   UNL     1      36.171 -21.457 -19.020  0.00  0.00    +0.034 C 
ATOM      6  C   UNL     1      35.676 -22.383 -18.066  0.00  0.00    +0.153 C 
ATOM      7  C   UNL     1      34.335 -22.579 -18.329  0.00  0.00    +0.126 C 
ATOM      8  C   UNL     1      34.939 -20.262 -20.953  0.00  0.00    +0.247 C 
ATOM      9  C   UNL     1      37.569 -20.983 -19.078  0.00  0.00    +0.036 C 
ATOM     10  C   UNL     1      32.746 -20.878 -21.016  0.00  0.00    +0.220 C 
ENDROOT
BRANCH   6  11
ATOM     11  O   UNL     1      36.346 -22.986 -17.074  0.00  0.00    -0.470 OA
BRANCH  11  12
ATOM     12  C   UNL     1      35.864 -22.783 -15.741  0.00  0.00    +0.249 C 
BRANCH  12  13
ATOM     13  C   UNL     1      35.744 -24.134 -15.047  0.00  0.00    +0.212 C 
ATOM     14  C   UNL     1      34.367 -24.323 -14.431  0.00  0.00    +0.051 C 
BRANCH  13  15
ATOM     15  O   UNL     1      35.961 -25.157 -16.017  0.00  0.00    -0.450 OA
BRANCH  15  17
ATOM     16  O   UNL     1      36.791 -27.301 -16.169  0.00  0.00    -0.252 OA
ATOM     17  C   UNL     1      36.724 -26.216 -15.605  0.00  0.00    +0.296 C 
BRANCH  17  18
ATOM     18  C   UNL     1      37.468 -25.837 -14.338  0.00  0.00    +0.036 C 
ATOM     19  C   UNL     1      38.970 -25.801 -14.587  0.00  0.00    -0.013 C 
BRANCH  18  20
ATOM     20  N   UNL     1      37.162 -26.835 -13.315  0.00  0.00    +0.389 N 
ATOM     21  H   UNL     1      36.161 -26.826 -13.121  0.00  0.00    -0.088 HD
ATOM     22  H   UNL     1      37.675 -26.614 -12.461  0.00  0.00    -0.088 HD
ATOM     23  H   UNL     1      37.437 -27.759 -13.646  0.00  0.00    -0.088 HD
ENDBRANCH  18  20
ENDBRANCH  17  18
ENDBRANCH  15  17
ENDBRANCH  13  15
ENDBRANCH  12  13
ENDBRANCH  11  12
ENDBRANCH   6  11
BRANCH   8  24
ATOM     24  O   UNL     1      36.020 -19.575 -21.392  0.00  0.00    -0.433 OA
BRANCH  24  29
ATOM     25  F   UNL     1      35.515 -19.666 -24.090  0.00  0.00    -0.201 F 
ATOM     26  N   UNL     1      34.539 -15.157 -24.283  0.00  0.00    -0.316 N 
ATOM     27  C   UNL     1      35.024 -17.329 -24.115  0.00  0.00    +0.045 C 
ATOM     28  C   UNL     1      34.916 -16.138 -23.393  0.00  0.00    +0.050 C 
ATOM     29  C   UNL     1      35.654 -18.444 -22.058  0.00  0.00    +0.175 C 
ATOM     30  C   UNL     1      34.406 -15.686 -25.539  0.00  0.00    +0.026 C 
ATOM     31  C   UNL     1      35.400 -18.503 -23.434  0.00  0.00    +0.176 C 
ATOM     32  C   UNL     1      34.699 -17.028 -25.467  0.00  0.00    +0.014 C 
ATOM     33  C   UNL     1      35.167 -16.063 -22.018  0.00  0.00    +0.018 C 
ATOM     34  C   UNL     1      35.538 -17.242 -21.363  0.00  0.00    +0.041 C 
ATOM     35  C   UNL     1      34.009 -14.847 -26.685  0.00  0.00    +0.047 C 
ATOM     36  H   UNL     1      34.388 -14.213 -24.049  0.00  0.00    +0.152 HD
ENDBRANCH  24  29
ENDBRANCH   8  24
TORSDOF 9
ENDMDL
MODEL 4
REMARK VINA RESULT:     -10.3      2.620      4.736
REMARK  Name = 11154925
REMARK  9 active torsions:
REMARK  status: ('A' for Active; 'I' for Inactive)
REMARK    1  A    between atoms: C_6  and  O_11
REMARK    2  A    between atoms: C_8  and  O_24
REMARK    3  A    between atoms: O_11  and  C_12
REMARK    4  A    between atoms: C_12  and  C_13
REMARK    5  A    between atoms: C_13  and  O_15
REMARK    6  A    between atoms: O_15  and  C_17
REMARK    7  A    between atoms: C_17  and  C_18
REMARK    8  A    between atoms: C_18  and  N_20
REMARK    9  A    between atoms: O_24  and  C_29
REMARK                            x       y       z     vdW  Elec       q    Type
REMARK                         _______ _______ _______ _____ _____    ______ ____
ROOT
ATOM      1  N   UNL     1      32.815 -12.732 -21.927  0.00  0.00    -0.180 N 
ATOM      2  N   UNL     1      31.931 -12.486 -20.920  0.00  0.00    -0.151 NA
ATOM      3  N   UNL     1      31.455 -10.384 -22.015  0.00  0.00    -0.187 NA
ATOM      4  C   UNL     1      33.046 -11.866 -22.965  0.00  0.00    +0.126 C 
ATOM      5  C   UNL     1      33.990 -12.422 -23.795  0.00  0.00    +0.034 C 
ATOM      6  C   UNL     1      34.343 -13.677 -23.234  0.00  0.00    +0.153 C 
ATOM      7  C   UNL     1      33.602 -13.843 -22.081  0.00  0.00    +0.126 C 
ATOM      8  C   UNL     1      32.303 -10.655 -22.954  0.00  0.00    +0.247 C 
ATOM      9  C   UNL     1      34.564 -11.872 -25.040  0.00  0.00    +0.036 C 
ATOM     10  C   UNL     1      31.311 -11.341 -21.021  0.00  0.00    +0.220 C 
ENDROOT
BRANCH   6  11
ATOM     11  O   UNL     1      35.226 -14.573 -23.700  0.00  0.00    -0.470 OA
BRANCH  11  12
ATOM     12  C   UNL     1      34.754 -15.513 -24.671  0.00  0.00    +0.249 C 
BRANCH  12  13
ATOM     13  C   UNL     1      34.748 -16.904 -24.050  0.00  0.00    +0.212 C 
ATOM     14  C   UNL     1      34.673 -17.988 -25.113  0.00  0.00    +0.051 C 
BRANCH  13  15
ATOM     15  O   UNL     1      35.956 -17.069 -23.308  0.00  0.00    -0.450 OA
BRANCH  15  17
ATOM     16  O   UNL     1      35.295 -16.841 -21.112  0.00  0.00    -0.252 OA
ATOM     17  C   UNL     1      35.807 -17.492 -22.014  0.00  0.00    +0.296 C 
BRANCH  17  18
ATOM     18  C   UNL     1      36.379 -18.890 -21.874  0.00  0.00    +0.036 C 
ATOM     19  C   UNL     1      35.311 -19.862 -21.389  0.00  0.00    -0.013 C 
BRANCH  18  20
ATOM     20  N   UNL     1      37.475 -18.838 -20.908  0.00  0.00    +0.389 N 
ATOM     21  H   UNL     1      38.025 -19.693 -20.973  0.00  0.00    -0.088 HD
ATOM     22  H   UNL     1      37.093 -18.751 -19.966  0.00  0.00    -0.088 HD
ATOM     23  H   UNL     1      38.069 -18.034 -21.109  0.00  0.00    -0.088 HD
ENDBRANCH  18  20
ENDBRANCH  17  18
ENDBRANCH  15  17
ENDBRANCH  13  15
ENDBRANCH  12  13
ENDBRANCH  11  12
ENDBRANCH   6  11
BRANCH   8  24
ATOM     24  O   UNL     1      32.512  -9.781 -23.967  0.00  0.00    -0.433 OA
BRANCH  24  29
ATOM     25  F   UNL     1      31.035  -7.862 -25.264  0.00  0.00    -0.201 F 
ATOM     26  N   UNL     1      32.396  -4.540 -22.360  0.00  0.00    -0.316 N 
ATOM     27  C   UNL     1      31.781  -6.196 -23.725  0.00  0.00    +0.045 C 
ATOM     28  C   UNL     1      32.555  -5.886 -22.603  0.00  0.00    +0.050 C 
ATOM     29  C   UNL     1      32.521  -8.494 -23.521  0.00  0.00    +0.175 C 
ATOM     30  C   UNL     1      31.552  -3.990 -23.287  0.00  0.00    +0.026 C 
ATOM     31  C   UNL     1      31.765  -7.524 -24.192  0.00  0.00    +0.176 C 
ATOM     32  C   UNL     1      31.154  -4.990 -24.144  0.00  0.00    +0.014 C 
ATOM     33  C   UNL     1      33.316  -6.844 -21.924  0.00  0.00    +0.018 C 
ATOM     34  C   UNL     1      33.283  -8.156 -22.405  0.00  0.00    +0.041 C 
ATOM     35  C   UNL     1      31.210  -2.556 -23.255  0.00  0.00    +0.047 C 
ATOM     36  H   UNL     1      32.828  -4.046 -21.626  0.00  0.00    +0.152 HD
ENDBRANCH  24  29
ENDBRANCH   8  24
TORSDOF 9
ENDMDL
MODEL 5
REMARK VINA RESULT:     -10.1      3.023      9.210
REMARK  Name = 11154925
REMARK  9 active torsions:
REMARK  status: ('A' for Active; 'I' for Inactive)
REMARK    1  A    between atoms: C_6  and  O_11
REMARK    2  A    between atoms: C_8  and  O_24
REMARK    3  A    between atoms: O_11  and  C_12
REMARK    4  A    between atoms: C_12  and  C_13
REMARK    5  A    between atoms: C_13  and  O_15
REMARK    6  A    between atoms: O_15  and  C_17
REMARK    7  A    between atoms: C_17  and  C_18
REMARK    8  A    between atoms: C_18  and  N_20
REMARK    9  A    between atoms: O_24  and  C_29
REMARK                            x       y       z     vdW  Elec       q    Type
REMARK                         _______ _______ _______ _____ _____    ______ ____
ROOT
ATOM      1  N   UNL     1      34.577 -17.054 -24.621  0.00  0.00    -0.180 N 
ATOM      2  N   UNL     1      34.401 -17.915 -25.663  0.00  0.00    -0.151 NA
ATOM      3  N   UNL     1      35.400 -19.617 -24.267  0.00  0.00    -0.187 NA
ATOM      4  C   UNL     1      35.139 -17.416 -23.424  0.00  0.00    +0.126 C 
ATOM      5  C   UNL     1      35.165 -16.312 -22.603  0.00  0.00    +0.034 C 
ATOM      6  C   UNL     1      34.594 -15.241 -23.338  0.00  0.00    +0.153 C 
ATOM      7  C   UNL     1      34.239 -15.727 -24.580  0.00  0.00    +0.126 C 
ATOM      8  C   UNL     1      35.549 -18.771 -23.301  0.00  0.00    +0.247 C 
ATOM      9  C   UNL     1      35.674 -16.200 -21.221  0.00  0.00    +0.036 C 
ATOM     10  C   UNL     1      34.817 -19.131 -25.429  0.00  0.00    +0.220 C 
ENDROOT
BRANCH   6  11
ATOM     11  O   UNL     1      34.409 -13.973 -22.943  0.00  0.00    -0.470 OA
BRANCH  11  12
ATOM     12  C   UNL     1      33.158 -13.360 -23.273  0.00  0.00    +0.249 C 
BRANCH  12  13
ATOM     13  C   UNL     1      32.365 -13.133 -21.992  0.00  0.00    +0.212 C 
ATOM     14  C   UNL     1      32.866 -14.021 -20.863  0.00  0.00    +0.051 C 
BRANCH  13  15
ATOM     15  O   UNL     1      32.517 -11.768 -21.607  0.00  0.00    -0.450 OA
BRANCH  15  17
ATOM     16  O   UNL     1      30.350 -11.316 -20.967  0.00  0.00    -0.252 OA
ATOM     17  C   UNL     1      31.557 -11.278 -20.763  0.00  0.00    +0.296 C 
BRANCH  17  18
ATOM     18  C   UNL     1      32.223 -10.676 -19.541  0.00  0.00    +0.036 C 
ATOM     19  C   UNL     1      31.658 -11.286 -18.265  0.00  0.00    -0.013 C 
BRANCH  18  20
ATOM     20  N   UNL     1      31.974  -9.235 -19.550  0.00  0.00    +0.389 N 
ATOM     21  H   UNL     1      32.685  -8.772 -20.116  0.00  0.00    -0.088 HD
ATOM     22  H   UNL     1      32.013  -8.878 -18.595  0.00  0.00    -0.088 HD
ATOM     23  H   UNL     1      31.052  -9.051 -19.944  0.00  0.00    -0.088 HD
ENDBRANCH  18  20
ENDBRANCH  17  18
ENDBRANCH  15  17
ENDBRANCH  13  15
ENDBRANCH  12  13
ENDBRANCH  11  12
ENDBRANCH   6  11
BRANCH   8  24
ATOM     24  O   UNL     1      36.108 -19.154 -22.128  0.00  0.00    -0.433 OA
BRANCH  24  29
ATOM     25  F   UNL     1      37.056 -20.902 -20.234  0.00  0.00    -0.201 F 
ATOM     26  N   UNL     1      32.804 -22.207 -18.994  0.00  0.00    -0.316 N 
ATOM     27  C   UNL     1      34.828 -21.529 -19.645  0.00  0.00    +0.045 C 
ATOM     28  C   UNL     1      33.458 -21.366 -19.867  0.00  0.00    +0.050 C 
ATOM     29  C   UNL     1      35.238 -19.887 -21.378  0.00  0.00    +0.175 C 
ATOM     30  C   UNL     1      33.710 -22.893 -18.231  0.00  0.00    +0.026 C 
ATOM     31  C   UNL     1      35.734 -20.775 -20.415  0.00  0.00    +0.176 C 
ATOM     32  C   UNL     1      34.971 -22.495 -18.611  0.00  0.00    +0.014 C 
ATOM     33  C   UNL     1      32.948 -20.483 -20.824  0.00  0.00    +0.018 C 
ATOM     34  C   UNL     1      33.867 -19.744 -21.577  0.00  0.00    +0.041 C 
ATOM     35  C   UNL     1      33.272 -23.866 -17.212  0.00  0.00    +0.047 C 
ATOM     36  H   UNL     1      31.825 -22.301 -18.929  0.00  0.00    +0.152 HD
ENDBRANCH  24  29
ENDBRANCH   8  24
TORSDOF 9
ENDMDL
MODEL 6
REMARK VINA RESULT:     -10.0      3.901      7.195
REMARK  Name = 11154925
REMARK  9 active torsions:
REMARK  status: ('A' for Active; 'I' for Inactive)
REMARK    1  A    between atoms: C_6  and  O_11
REMARK    2  A    between atoms: C_8  and  O_24
REMARK    3  A    between atoms: O_11  and  C_12
REMARK    4  A    between atoms: C_12  and  C_13
REMARK    5  A    between atoms: C_13  and  O_15
REMARK    6  A    between atoms: O_15  and  C_17
REMARK    7  A    between atoms: C_17  and  C_18
REMARK    8  A    between atoms: C_18  and  N_20
REMARK    9  A    between atoms: O_24  and  C_29
REMARK                            x       y       z     vdW  Elec       q    Type
REMARK                         _______ _______ _______ _____ _____    ______ ____
ROOT
ATOM      1  N   UNL     1      34.011 -21.577 -19.795  0.00  0.00    -0.180 N 
ATOM      2  N   UNL     1      32.789 -21.466 -20.389  0.00  0.00    -0.151 NA
ATOM      3  N   UNL     1      33.789 -19.828 -21.860  0.00  0.00    -0.187 NA
ATOM      4  C   UNL     1      35.113 -20.861 -20.186  0.00  0.00    +0.126 C 
ATOM      5  C   UNL     1      36.170 -21.215 -19.380  0.00  0.00    +0.034 C 
ATOM      6  C   UNL     1      35.683 -22.186 -18.466  0.00  0.00    +0.153 C 
ATOM      7  C   UNL     1      34.347 -22.391 -18.746  0.00  0.00    +0.126 C 
ATOM      8  C   UNL     1      34.932 -19.963 -21.272  0.00  0.00    +0.247 C 
ATOM      9  C   UNL     1      37.561 -20.719 -19.409  0.00  0.00    +0.036 C 
ATOM     10  C   UNL     1      32.750 -20.608 -21.374  0.00  0.00    +0.220 C 
ENDROOT
BRANCH   6  11
ATOM     11  O   UNL     1      36.356 -22.817 -17.493  0.00  0.00    -0.470 OA
BRANCH  11  12
ATOM     12  C   UNL     1      36.090 -22.414 -16.146  0.00  0.00    +0.249 C 
BRANCH  12  13
ATOM     13  C   UNL     1      35.851 -23.656 -15.296  0.00  0.00    +0.212 C 
ATOM     14  C   UNL     1      34.445 -24.203 -15.494  0.00  0.00    +0.051 C 
BRANCH  13  15
ATOM     15  O   UNL     1      36.793 -24.654 -15.685  0.00  0.00    -0.450 OA
BRANCH  15  17
ATOM     16  O   UNL     1      39.001 -24.630 -15.028  0.00  0.00    -0.252 OA
ATOM     17  C   UNL     1      37.822 -24.874 -14.809  0.00  0.00    +0.296 C 
BRANCH  17  18
ATOM     18  C   UNL     1      37.272 -25.474 -13.529  0.00  0.00    +0.036 C 
ATOM     19  C   UNL     1      38.190 -25.166 -12.353  0.00  0.00    -0.013 C 
BRANCH  18  20
ATOM     20  N   UNL     1      37.170 -26.921 -13.710  0.00  0.00    +0.389 N 
ATOM     21  H   UNL     1      36.452 -27.126 -14.403  0.00  0.00    -0.088 HD
ATOM     22  H   UNL     1      36.922 -27.358 -12.823  0.00  0.00    -0.088 HD
ATOM     23  H   UNL     1      38.067 -27.287 -14.030  0.00  0.00    -0.088 HD
ENDBRANCH  18  20
ENDBRANCH  17  18
ENDBRANCH  15  17
ENDBRANCH  13  15
ENDBRANCH  12  13
ENDBRANCH  11  12
ENDBRANCH   6  11
BRANCH   8  24
ATOM     24  O   UNL     1      36.006 -19.243 -21.677  0.00  0.00    -0.433 OA
BRANCH  24  29
ATOM     25  F   UNL     1      35.552 -16.709 -20.722  0.00  0.00    -0.201 F 
ATOM     26  N   UNL     1      34.536 -15.073 -24.919  0.00  0.00    -0.316 N 
ATOM     27  C   UNL     1      35.038 -15.933 -22.921  0.00  0.00    +0.045 C 
ATOM     28  C   UNL     1      34.906 -16.236 -24.279  0.00  0.00    +0.050 C 
ATOM     29  C   UNL     1      35.643 -18.246 -22.531  0.00  0.00    +0.175 C 
ATOM     30  C   UNL     1      34.430 -14.050 -24.015  0.00  0.00    +0.026 C 
ATOM     31  C   UNL     1      35.414 -16.958 -22.032  0.00  0.00    +0.176 C 
ATOM     32  C   UNL     1      34.735 -14.551 -22.771  0.00  0.00    +0.014 C 
ATOM     33  C   UNL     1      35.132 -17.517 -24.792  0.00  0.00    +0.018 C 
ATOM     34  C   UNL     1      35.504 -18.519 -23.890  0.00  0.00    +0.041 C 
ATOM     35  C   UNL     1      34.045 -12.691 -24.439  0.00  0.00    +0.047 C 
ATOM     36  H   UNL     1      34.371 -14.991 -25.886  0.00  0.00    +0.152 HD
ENDBRANCH  24  29
ENDBRANCH   8  24
TORSDOF 9
ENDMDL
MODEL 7
REMARK VINA RESULT:      -9.7      5.144     12.734
REMARK  Name = 11154925
REMARK  9 active torsions:
REMARK  status: ('A' for Active; 'I' for Inactive)
REMARK    1  A    between atoms: C_6  and  O_11
REMARK    2  A    between atoms: C_8  and  O_24
REMARK    3  A    between atoms: O_11  and  C_12
REMARK    4  A    between atoms: C_12  and  C_13
REMARK    5  A    between atoms: C_13  and  O_15
REMARK    6  A    between atoms: O_15  and  C_17
REMARK    7  A    between atoms: C_17  and  C_18
REMARK    8  A    between atoms: C_18  and  N_20
REMARK    9  A    between atoms: O_24  and  C_29
REMARK                            x       y       z     vdW  Elec       q    Type
REMARK                         _______ _______ _______ _____ _____    ______ ____
ROOT
ATOM      1  N   UNL     1      34.148 -22.874 -18.518  0.00  0.00    -0.180 N 
ATOM      2  N   UNL     1      33.166 -23.672 -18.013  0.00  0.00    -0.151 NA
ATOM      3  N   UNL     1      34.290 -23.500 -15.880  0.00  0.00    -0.187 NA
ATOM      4  C   UNL     1      35.185 -22.380 -17.769  0.00  0.00    +0.126 C 
ATOM      5  C   UNL     1      35.988 -21.617 -18.585  0.00  0.00    +0.034 C 
ATOM      6  C   UNL     1      35.409 -21.653 -19.880  0.00  0.00    +0.153 C 
ATOM      7  C   UNL     1      34.274 -22.436 -19.810  0.00  0.00    +0.126 C 
ATOM      8  C   UNL     1      35.203 -22.744 -16.395  0.00  0.00    +0.247 C 
ATOM      9  C   UNL     1      37.221 -20.881 -18.241  0.00  0.00    +0.036 C 
ATOM     10  C   UNL     1      33.292 -23.936 -16.740  0.00  0.00    +0.220 C 
ENDROOT
BRANCH   6  11
ATOM     11  O   UNL     1      35.845 -21.054 -20.998  0.00  0.00    -0.470 OA
BRANCH  11  12
ATOM     12  C   UNL     1      35.031 -20.007 -21.539  0.00  0.00    +0.249 C 
BRANCH  12  13
ATOM     13  C   UNL     1      35.908 -18.792 -21.811  0.00  0.00    +0.212 C 
ATOM     14  C   UNL     1      37.330 -19.009 -21.318  0.00  0.00    +0.051 C 
BRANCH  13  15
ATOM     15  O   UNL     1      35.937 -18.566 -23.219  0.00  0.00    -0.450 OA
BRANCH  15  17
ATOM     16  O   UNL     1      35.422 -16.336 -22.952  0.00  0.00    -0.252 OA
ATOM     17  C   UNL     1      35.467 -17.350 -23.638  0.00  0.00    +0.296 C 
BRANCH  17  18
ATOM     18  C   UNL     1      35.007 -17.458 -25.079  0.00  0.00    +0.036 C 
ATOM     19  C   UNL     1      34.347 -16.162 -25.531  0.00  0.00    -0.013 C 
BRANCH  18  20
ATOM     20  N   UNL     1      34.049 -18.558 -25.170  0.00  0.00    +0.389 N 
ATOM     21  H   UNL     1      34.379 -19.343 -24.609  0.00  0.00    -0.088 HD
ATOM     22  H   UNL     1      33.959 -18.850 -26.143  0.00  0.00    -0.088 HD
ATOM     23  H   UNL     1      33.141 -18.249 -24.823  0.00  0.00    -0.088 HD
ENDBRANCH  18  20
ENDBRANCH  17  18
ENDBRANCH  15  17
ENDBRANCH  13  15
ENDBRANCH  12  13
ENDBRANCH  11  12
ENDBRANCH   6  11
BRANCH   8  24
ATOM     24  O   UNL     1      36.217 -22.269 -15.633  0.00  0.00    -0.433 OA
BRANCH  24  29
ATOM     25  F   UNL     1      38.689 -22.937 -16.627  0.00  0.00    -0.201 F 
ATOM     26  N   UNL     1      39.269 -26.307 -13.524  0.00  0.00    -0.316 N 
ATOM     27  C   UNL     1      38.920 -24.663 -14.993  0.00  0.00    +0.045 C 
ATOM     28  C   UNL     1      38.363 -25.343 -13.907  0.00  0.00    +0.050 C 
ATOM     29  C   UNL     1      36.931 -23.282 -15.067  0.00  0.00    +0.175 C 
ATOM     30  C   UNL     1      40.376 -26.260 -14.328  0.00  0.00    +0.026 C 
ATOM     31  C   UNL     1      38.190 -23.614 -15.583  0.00  0.00    +0.176 C 
ATOM     32  C   UNL     1      40.189 -25.253 -15.247  0.00  0.00    +0.014 C 
ATOM     33  C   UNL     1      37.107 -25.023 -13.380  0.00  0.00    +0.018 C 
ATOM     34  C   UNL     1      36.400 -23.977 -13.982  0.00  0.00    +0.041 C 
ATOM     35  C   UNL     1      41.503 -27.190 -14.134  0.00  0.00    +0.047 C 
ATOM     36  H   UNL     1      39.138 -26.938 -12.780  0.00  0.00    +0.152 HD
ENDBRANCH  24  29
ENDBRANCH   8  24
TORSDOF 9
ENDMDL
MODEL 8
REMARK VINA RESULT:      -9.4      3.652     10.755
REMARK  Name = 11154925
REMARK  9 active torsions:
REMARK  status: ('A' for Active; 'I' for Inactive)
REMARK    1  A    between atoms: C_6  and  O_11
REMARK    2  A    between atoms: C_8  and  O_24
REMARK    3  A    between atoms: O_11  and  C_12
REMARK    4  A    between atoms: C_12  and  C_13
REMARK    5  A    between atoms: C_13  and  O_15
REMARK    6  A    between atoms: O_15  and  C_17
REMARK    7  A    between atoms: C_17  and  C_18
REMARK    8  A    between atoms: C_18  and  N_20
REMARK    9  A    between atoms: O_24  and  C_29
REMARK                            x       y       z     vdW  Elec       q    Type
REMARK                         _______ _______ _______ _____ _____    ______ ____
ROOT
ATOM      1  N   UNL     1      31.912 -11.078 -22.200  0.00  0.00    -0.180 N 
ATOM      2  N   UNL     1      31.293 -11.937 -21.342  0.00  0.00    -0.151 NA
ATOM      3  N   UNL     1      33.018 -13.538 -21.892  0.00  0.00    -0.187 NA
ATOM      4  C   UNL     1      33.048 -11.392 -22.901  0.00  0.00    +0.126 C 
ATOM      5  C   UNL     1      33.402 -10.305 -23.666  0.00  0.00    +0.034 C 
ATOM      6  C   UNL     1      32.438  -9.294 -23.414  0.00  0.00    +0.153 C 
ATOM      7  C   UNL     1      31.530  -9.798 -22.504  0.00  0.00    +0.126 C 
ATOM      8  C   UNL     1      33.578 -12.694 -22.697  0.00  0.00    +0.247 C 
ATOM      9  C   UNL     1      34.547 -10.157 -24.587  0.00  0.00    +0.036 C 
ATOM     10  C   UNL     1      31.874 -13.103 -21.240  0.00  0.00    +0.220 C 
ENDROOT
BRANCH   6  11
ATOM     11  O   UNL     1      32.377  -8.060 -23.936  0.00  0.00    -0.470 OA
BRANCH  11  12
ATOM     12  C   UNL     1      31.254  -7.251 -23.573  0.00  0.00    +0.249 C 
BRANCH  12  13
ATOM     13  C   UNL     1      31.757  -5.978 -22.904  0.00  0.00    +0.212 C 
ATOM     14  C   UNL     1      32.136  -6.224 -21.452  0.00  0.00    +0.051 C 
BRANCH  13  15
ATOM     15  O   UNL     1      32.910  -5.526 -23.612  0.00  0.00    -0.450 OA
BRANCH  15  17
ATOM     16  O   UNL     1      31.931  -3.644 -24.511  0.00  0.00    -0.252 OA
ATOM     17  C   UNL     1      32.679  -4.608 -24.602  0.00  0.00    +0.296 C 
BRANCH  17  18
ATOM     18  C   UNL     1      33.490  -4.979 -25.829  0.00  0.00    +0.036 C 
ATOM     19  C   UNL     1      34.764  -5.712 -25.431  0.00  0.00    -0.013 C 
BRANCH  18  20
ATOM     20  N   UNL     1      33.832  -3.747 -26.538  0.00  0.00    +0.389 N 
ATOM     21  H   UNL     1      33.611  -3.852 -27.528  0.00  0.00    -0.088 HD
ATOM     22  H   UNL     1      34.829  -3.558 -26.430  0.00  0.00    -0.088 HD
ATOM     23  H   UNL     1      33.296  -2.971 -26.150  0.00  0.00    -0.088 HD
ENDBRANCH  18  20
ENDBRANCH  17  18
ENDBRANCH  15  17
ENDBRANCH  13  15
ENDBRANCH  12  13
ENDBRANCH  11  12
ENDBRANCH   6  11
BRANCH   8  24
ATOM     24  O   UNL     1      34.699 -13.030 -23.378  0.00  0.00    -0.433 OA
BRANCH  24  29
ATOM     25  F   UNL     1      35.657 -15.296 -22.157  0.00  0.00    -0.201 F 
ATOM     26  N   UNL     1      34.292 -18.010 -25.633  0.00  0.00    -0.316 N 
ATOM     27  C   UNL     1      34.924 -16.638 -23.991  0.00  0.00    +0.045 C 
ATOM     28  C   UNL     1      34.297 -16.691 -25.238  0.00  0.00    +0.050 C 
ATOM     29  C   UNL     1      34.569 -14.242 -23.986  0.00  0.00    +0.175 C 
ATOM     30  C   UNL     1      34.893 -18.790 -24.682  0.00  0.00    +0.026 C 
ATOM     31  C   UNL     1      35.062 -15.390 -23.354  0.00  0.00    +0.176 C 
ATOM     32  C   UNL     1      35.294 -17.969 -23.653  0.00  0.00    +0.014 C 
ATOM     33  C   UNL     1      33.800 -15.553 -25.882  0.00  0.00    +0.018 C 
ATOM     34  C   UNL     1      33.947 -14.325 -25.231  0.00  0.00    +0.041 C 
ATOM     35  C   UNL     1      35.021 -20.249 -24.856  0.00  0.00    +0.047 C 
ATOM     36  H   UNL     1      33.912 -18.344 -26.478  0.00  0.00    +0.152 HD
ENDBRANCH  24  29
ENDBRANCH   8  24
TORSDOF 9
ENDMDL
MODEL 9
REMARK VINA RESULT:      -9.4      4.207      7.372
REMARK  Name = 11154925
REMARK  9 active torsions:
REMARK  status: ('A' for Active; 'I' for Inactive)
REMARK    1  A    between atoms: C_6  and  O_11
REMARK    2  A    between atoms: C_8  and  O_24
REMARK    3  A    between atoms: O_11  and  C_12
REMARK    4  A    between atoms: C_12  and  C_13
REMARK    5  A    between atoms: C_13  and  O_15
REMARK    6  A    between atoms: O_15  and  C_17
REMARK    7  A    between atoms: C_17  and  C_18
REMARK    8  A    between atoms: C_18  and  N_20
REMARK    9  A    between atoms: O_24  and  C_29
REMARK                            x       y       z     vdW  Elec       q    Type
REMARK                         _______ _______ _______ _____ _____    ______ ____
ROOT
ATOM      1  N   UNL     1      33.991 -21.777 -19.445  0.00  0.00    -0.180 N 
ATOM      2  N   UNL     1      32.760 -21.654 -20.017  0.00  0.00    -0.151 NA
ATOM      3  N   UNL     1      33.766 -20.084 -21.556  0.00  0.00    -0.187 NA
ATOM      4  C   UNL     1      35.101 -21.099 -19.879  0.00  0.00    +0.126 C 
ATOM      5  C   UNL     1      36.167 -21.454 -19.085  0.00  0.00    +0.034 C 
ATOM      6  C   UNL     1      35.677 -22.385 -18.133  0.00  0.00    +0.153 C 
ATOM      7  C   UNL     1      34.331 -22.567 -18.378  0.00  0.00    +0.126 C 
ATOM      8  C   UNL     1      34.918 -20.229 -20.987  0.00  0.00    +0.247 C 
ATOM      9  C   UNL     1      37.568 -20.992 -19.158  0.00  0.00    +0.036 C 
ATOM     10  C   UNL     1      32.719 -20.825 -21.026  0.00  0.00    +0.220 C 
ENDROOT
BRANCH   6  11
ATOM     11  O   UNL     1      36.356 -23.004 -17.156  0.00  0.00    -0.470 OA
BRANCH  11  12
ATOM     12  C   UNL     1      35.831 -22.901 -15.828  0.00  0.00    +0.249 C 
BRANCH  12  13
ATOM     13  C   UNL     1      35.052 -24.169 -15.505  0.00  0.00    +0.212 C 
ATOM     14  C   UNL     1      35.983 -25.328 -15.183  0.00  0.00    +0.051 C 
BRANCH  13  15
ATOM     15  O   UNL     1      34.226 -23.912 -14.371  0.00  0.00    -0.450 OA
BRANCH  15  17
ATOM     16  O   UNL     1      32.448 -25.325 -13.982  0.00  0.00    -0.252 OA
ATOM     17  C   UNL     1      32.921 -24.312 -14.481  0.00  0.00    +0.296 C 
BRANCH  17  18
ATOM     18  C   UNL     1      32.157 -23.308 -15.322  0.00  0.00    +0.036 C 
ATOM     19  C   UNL     1      30.981 -22.737 -14.541  0.00  0.00    -0.013 C 
BRANCH  18  20
ATOM     20  N   UNL     1      31.669 -23.993 -16.518  0.00  0.00    +0.389 N 
ATOM     21  H   UNL     1      32.461 -24.337 -17.060  0.00  0.00    -0.088 HD
ATOM     22  H   UNL     1      31.127 -23.341 -17.085  0.00  0.00    -0.088 HD
ATOM     23  H   UNL     1      31.077 -24.777 -16.244  0.00  0.00    -0.088 HD
ENDBRANCH  18  20
ENDBRANCH  17  18
ENDBRANCH  15  17
ENDBRANCH  13  15
ENDBRANCH  12  13
ENDBRANCH  11  12
ENDBRANCH   6  11
BRANCH   8  24
ATOM     24  O   UNL     1      35.999 -19.547 -21.436  0.00  0.00    -0.433 OA
BRANCH  24  29
ATOM     25  F   UNL     1      35.493 -19.636 -24.134  0.00  0.00    -0.201 F 
ATOM     26  N   UNL     1      34.518 -15.127 -24.323  0.00  0.00    -0.316 N 
ATOM     27  C   UNL     1      35.003 -17.299 -24.156  0.00  0.00    +0.045 C 
ATOM     28  C   UNL     1      34.895 -16.109 -23.433  0.00  0.00    +0.050 C 
ATOM     29  C   UNL     1      35.633 -18.415 -22.101  0.00  0.00    +0.175 C 
ATOM     30  C   UNL     1      34.384 -15.655 -25.579  0.00  0.00    +0.026 C 
ATOM     31  C   UNL     1      35.379 -18.474 -23.477  0.00  0.00    +0.176 C 
ATOM     32  C   UNL     1      34.677 -16.997 -25.508  0.00  0.00    +0.014 C 
ATOM     33  C   UNL     1      35.147 -16.035 -22.059  0.00  0.00    +0.018 C 
ATOM     34  C   UNL     1      35.518 -17.214 -21.405  0.00  0.00    +0.041 C 
ATOM     35  C   UNL     1      33.987 -14.814 -26.724  0.00  0.00    +0.047 C 
ATOM     36  H   UNL     1      34.368 -14.183 -24.088  0.00  0.00    +0.152 HD
ENDBRANCH  24  29
ENDBRANCH   8  24
TORSDOF 9
ENDMDL
