MODEL 1
REMARK VINA RESULT:     -12.0      0.000      0.000
REMARK  Name = 42628063
REMARK  6 active torsions:
REMARK  status: ('A' for Active; 'I' for Inactive)
REMARK    1  A    between atoms: C_1  and  N_3
REMARK    2  A    between atoms: C_1  and  C_21
REMARK    3  A    between atoms: C_4  and  N_10
REMARK    4  A    between atoms: C_11  and  C_15
REMARK    5  A    between atoms: N_20  and  C_24
REMARK    6  A    between atoms: C_27  and  N_31
REMARK                            x       y       z     vdW  Elec       q    Type
REMARK                         _______ _______ _______ _____ _____    ______ ____
ROOT
ATOM      1  C   UNL     1      35.812 -21.372 -20.595  0.00  0.00    +0.010 C 
ENDROOT
BRANCH   1   3
ATOM      2  F   UNL     1      33.635 -22.586 -16.876  0.00  0.00    -0.238 F 
ATOM      3  N   UNL     1      35.453 -21.595 -19.203  0.00  0.00    +0.396 N 
ATOM      4  C   UNL     1      35.963 -22.372 -17.080  0.00  0.00    +0.082 C 
ATOM      5  C   UNL     1      34.702 -23.089 -17.553  0.00  0.00    +0.156 C 
ATOM      6  C   UNL     1      36.618 -21.877 -18.363  0.00  0.00    -0.054 C 
ATOM      7  C   UNL     1      34.565 -22.750 -19.031  0.00  0.00    -0.039 C 
ATOM      8  H   UNL     1      34.994 -20.729 -18.924  0.00  0.00    -0.079 HD
BRANCH   4  10
ATOM      9  O   UNL     1      35.506 -23.366 -14.425  0.00  0.00    -0.270 OA
ATOM     10  N   UNL     1      36.838 -23.221 -16.319  0.00  0.00    -0.302 N 
ATOM     11  C   UNL     1      36.533 -23.655 -15.034  0.00  0.00    +0.252 C 
ATOM     12  H   UNL     1      37.688 -23.507 -16.725  0.00  0.00    +0.150 HD
BRANCH  11  15
ATOM     13 CL   UNL     1      41.100 -26.604 -14.012  0.00  0.00    -0.075 Cl
ATOM     14  S   UNL     1      38.982 -24.914 -15.225  0.00  0.00    -0.071 S 
ATOM     15  C   UNL     1      37.554 -24.508 -14.372  0.00  0.00    +0.084 C 
ATOM     16  C   UNL     1      37.534 -25.054 -13.107  0.00  0.00    +0.012 C 
ATOM     17  C   UNL     1      38.707 -25.817 -12.835  0.00  0.00    +0.019 C 
ATOM     18  C   UNL     1      39.578 -25.823 -13.902  0.00  0.00    +0.087 C 
ENDBRANCH  11  15
ENDBRANCH   4  10
ENDBRANCH   1   3
BRANCH   1  21
ATOM     19  O   UNL     1      33.881 -19.939 -20.793  0.00  0.00    -0.277 OA
ATOM     20  N   UNL     1      35.823 -19.454 -22.021  0.00  0.00    -0.284 N 
ATOM     21  C   UNL     1      35.034 -20.182 -21.132  0.00  0.00    +0.205 C 
ATOM     22  H   UNL     1      36.734 -19.793 -22.173  0.00  0.00    +0.155 HD
BRANCH  20  24
ATOM     23  F   UNL     1      35.095 -19.542 -24.710  0.00  0.00    -0.203 F 
ATOM     24  C   UNL     1      35.466 -18.282 -22.730  0.00  0.00    +0.078 C 
ATOM     25  C   UNL     1      35.106 -18.360 -24.076  0.00  0.00    +0.155 C 
ATOM     26  C   UNL     1      35.474 -17.047 -22.082  0.00  0.00    +0.018 C 
ATOM     27  C   UNL     1      34.762 -15.970 -24.124  0.00  0.00    +0.061 C 
ATOM     28  C   UNL     1      34.754 -17.205 -24.772  0.00  0.00    +0.046 C 
ATOM     29  C   UNL     1      35.121 -15.891 -22.778  0.00  0.00    +0.017 C 
BRANCH  27  31
ATOM     30  O   UNL     1      33.700 -15.896 -26.813  0.00  0.00    -0.269 OA
ATOM     31  N   UNL     1      34.396 -14.768 -24.848  0.00  0.00    -0.233 N 
ATOM     32  C   UNL     1      33.922 -14.863 -26.182  0.00  0.00    +0.257 C 
ATOM     33  C   UNL     1      34.486 -13.517 -24.235  0.00  0.00    +0.072 C 
ATOM     34  C   UNL     1      33.612 -13.573 -26.872  0.00  0.00    +0.059 C 
ATOM     35  C   UNL     1      34.170 -12.379 -24.862  0.00  0.00    +0.017 C 
ATOM     36  C   UNL     1      33.727 -12.411 -26.224  0.00  0.00    +0.006 C 
ENDBRANCH  27  31
ENDBRANCH  20  24
ENDBRANCH   1  21
TORSDOF 6
ENDMDL
MODEL 2
REMARK VINA RESULT:     -11.1      3.664      6.165
REMARK  Name = 42628063
REMARK  6 active torsions:
REMARK  status: ('A' for Active; 'I' for Inactive)
REMARK    1  A    between atoms: C_1  and  N_3
REMARK    2  A    between atoms: C_1  and  C_21
REMARK    3  A    between atoms: C_4  and  N_10
REMARK    4  A    between atoms: C_11  and  C_15
REMARK    5  A    between atoms: N_20  and  C_24
REMARK    6  A    between atoms: C_27  and  N_31
REMARK                            x       y       z     vdW  Elec       q    Type
REMARK                         _______ _______ _______ _____ _____    ______ ____
ROOT
ATOM      1  C   UNL     1      34.618 -17.412 -24.676  0.00  0.00    +0.010 C 
ENDROOT
BRANCH   1   3
ATOM      2  F   UNL     1      37.668 -18.541 -21.599  0.00  0.00    -0.238 F 
ATOM      3  N   UNL     1      35.456 -18.172 -23.760  0.00  0.00    +0.396 N 
ATOM      4  C   UNL     1      35.708 -19.741 -22.074  0.00  0.00    +0.082 C 
ATOM      5  C   UNL     1      36.313 -18.427 -21.588  0.00  0.00    +0.156 C 
ATOM      6  C   UNL     1      34.761 -19.328 -23.194  0.00  0.00    -0.054 C 
ATOM      7  C   UNL     1      35.888 -17.376 -22.606  0.00  0.00    -0.039 C 
ATOM      8  H   UNL     1      36.250 -18.458 -24.332  0.00  0.00    -0.079 HD
BRANCH   4  10
ATOM      9  O   UNL     1      36.921 -21.416 -20.083  0.00  0.00    -0.270 OA
ATOM     10  N   UNL     1      35.031 -20.465 -21.034  0.00  0.00    -0.302 N 
ATOM     11  C   UNL     1      35.704 -21.255 -20.108  0.00  0.00    +0.252 C 
ATOM     12  H   UNL     1      34.051 -20.398 -20.972  0.00  0.00    +0.150 HD
BRANCH  11  15
ATOM     13 CL   UNL     1      33.992 -23.950 -15.591  0.00  0.00    -0.075 Cl
ATOM     14  S   UNL     1      35.576 -22.536 -17.667  0.00  0.00    -0.071 S 
ATOM     15  C   UNL     1      34.857 -21.959 -19.110  0.00  0.00    +0.084 C 
ATOM     16  C   UNL     1      33.509 -22.234 -19.163  0.00  0.00    +0.012 C 
ATOM     17  C   UNL     1      33.059 -22.930 -18.004  0.00  0.00    +0.019 C 
ATOM     18  C   UNL     1      34.081 -23.158 -17.108  0.00  0.00    +0.087 C 
ENDBRANCH  11  15
ENDBRANCH   4  10
ENDBRANCH   1   3
BRANCH   1  21
ATOM     19  O   UNL     1      36.102 -15.510 -24.696  0.00  0.00    -0.277 OA
ATOM     20  N   UNL     1      33.807 -15.193 -24.314  0.00  0.00    -0.284 N 
ATOM     21  C   UNL     1      34.959 -15.935 -24.566  0.00  0.00    +0.205 C 
ATOM     22  H   UNL     1      32.968 -15.702 -24.244  0.00  0.00    +0.155 HD
BRANCH  20  24
ATOM     23  F   UNL     1      32.695 -14.077 -22.014  0.00  0.00    -0.203 F 
ATOM     24  C   UNL     1      33.704 -13.792 -24.146  0.00  0.00    +0.078 C 
ATOM     25  C   UNL     1      33.142 -13.264 -22.983  0.00  0.00    +0.155 C 
ATOM     26  C   UNL     1      34.165 -12.936 -25.147  0.00  0.00    +0.018 C 
ATOM     27  C   UNL     1      33.503 -11.028 -23.820  0.00  0.00    +0.061 C 
ATOM     28  C   UNL     1      33.041 -11.884 -22.820  0.00  0.00    +0.046 C 
ATOM     29  C   UNL     1      34.065 -11.554 -24.984  0.00  0.00    +0.017 C 
BRANCH  27  31
ATOM     30  O   UNL     1      35.663  -9.140 -24.187  0.00  0.00    -0.269 OA
ATOM     31  N   UNL     1      33.398  -9.592 -23.651  0.00  0.00    -0.233 N 
ATOM     32  C   UNL     1      34.546  -8.774 -23.823  0.00  0.00    +0.257 C 
ATOM     33  C   UNL     1      32.171  -9.001 -23.342  0.00  0.00    +0.072 C 
ATOM     34  C   UNL     1      34.361  -7.309 -23.584  0.00  0.00    +0.059 C 
ATOM     35  C   UNL     1      32.024  -7.684 -23.166  0.00  0.00    +0.017 C 
ATOM     36  C   UNL     1      33.157  -6.816 -23.285  0.00  0.00    +0.006 C 
ENDBRANCH  27  31
ENDBRANCH  20  24
ENDBRANCH   1  21
TORSDOF 6
ENDMDL
MODEL 3
REMARK VINA RESULT:     -11.0      4.531     12.171
REMARK  Name = 42628063
REMARK  6 active torsions:
REMARK  status: ('A' for Active; 'I' for Inactive)
REMARK    1  A    between atoms: C_1  and  N_3
REMARK    2  A    between atoms: C_1  and  C_21
REMARK    3  A    between atoms: C_4  and  N_10
REMARK    4  A    between atoms: C_11  and  C_15
REMARK    5  A    between atoms: N_20  and  C_24
REMARK    6  A    between atoms: C_27  and  N_31
REMARK                            x       y       z     vdW  Elec       q    Type
REMARK                         _______ _______ _______ _____ _____    ______ ____
ROOT
ATOM      1  C   UNL     1      35.128 -20.584 -21.403  0.00  0.00    +0.010 C 
ENDROOT
BRANCH   1   3
ATOM      2  F   UNL     1      36.199 -17.554 -24.520  0.00  0.00    -0.238 F 
ATOM      3  N   UNL     1      35.544 -19.358 -22.066  0.00  0.00    +0.396 N 
ATOM      4  C   UNL     1      35.382 -17.067 -22.375  0.00  0.00    +0.082 C 
ATOM      5  C   UNL     1      35.118 -17.742 -23.717  0.00  0.00    +0.156 C 
ATOM      6  C   UNL     1      35.116 -18.158 -21.346  0.00  0.00    -0.054 C 
ATOM      7  C   UNL     1      34.970 -19.226 -23.410  0.00  0.00    -0.039 C 
ATOM      8  H   UNL     1      36.560 -19.428 -22.102  0.00  0.00    -0.079 HD
BRANCH   4  10
ATOM      9  O   UNL     1      35.390 -14.646 -23.918  0.00  0.00    -0.270 OA
ATOM     10  N   UNL     1      34.559 -15.909 -22.158  0.00  0.00    -0.302 N 
ATOM     11  C   UNL     1      34.632 -14.775 -22.961  0.00  0.00    +0.252 C 
ATOM     12  H   UNL     1      33.918 -15.918 -21.412  0.00  0.00    +0.150 HD
BRANCH  11  15
ATOM     13 CL   UNL     1      31.070 -11.533 -20.243  0.00  0.00    -0.075 Cl
ATOM     14  S   UNL     1      32.891 -13.714 -21.100  0.00  0.00    -0.071 S 
ATOM     15  C   UNL     1      33.732 -13.652 -22.591  0.00  0.00    +0.084 C 
ATOM     16  C   UNL     1      33.452 -12.503 -23.295  0.00  0.00    +0.012 C 
ATOM     17  C   UNL     1      32.533 -11.661 -22.603  0.00  0.00    +0.019 C 
ATOM     18  C   UNL     1      32.148 -12.200 -21.395  0.00  0.00    +0.087 C 
ENDBRANCH  11  15
ENDBRANCH   4  10
ENDBRANCH   1   3
BRANCH   1  21
ATOM     19  O   UNL     1      37.062 -20.230 -20.003  0.00  0.00    -0.277 OA
ATOM     20  N   UNL     1      35.402 -21.749 -19.334  0.00  0.00    -0.284 N 
ATOM     21  C   UNL     1      35.998 -20.815 -20.178  0.00  0.00    +0.205 C 
ATOM     22  H   UNL     1      34.538 -22.116 -19.631  0.00  0.00    +0.155 HD
BRANCH  20  24
ATOM     23  F   UNL     1      33.757 -23.113 -17.543  0.00  0.00    -0.203 F 
ATOM     24  C   UNL     1      35.893 -22.233 -18.098  0.00  0.00    +0.078 C 
ATOM     25  C   UNL     1      35.043 -22.911 -17.223  0.00  0.00    +0.155 C 
ATOM     26  C   UNL     1      37.229 -22.029 -17.753  0.00  0.00    +0.018 C 
ATOM     27  C   UNL     1      36.866 -23.184 -15.663  0.00  0.00    +0.061 C 
ATOM     28  C   UNL     1      35.530 -23.387 -16.006  0.00  0.00    +0.046 C 
ATOM     29  C   UNL     1      37.716 -22.505 -16.536  0.00  0.00    +0.017 C 
BRANCH  27  31
ATOM     30  O   UNL     1      38.240 -25.700 -15.279  0.00  0.00    -0.269 OA
ATOM     31  N   UNL     1      37.372 -23.678 -14.397  0.00  0.00    -0.233 N 
ATOM     32  C   UNL     1      37.995 -24.951 -14.332  0.00  0.00    +0.257 C 
ATOM     33  C   UNL     1      37.272 -22.900 -13.241  0.00  0.00    +0.072 C 
ATOM     34  C   UNL     1      38.447 -25.405 -12.981  0.00  0.00    +0.059 C 
ATOM     35  C   UNL     1      37.714 -23.314 -12.049  0.00  0.00    +0.017 C 
ATOM     36  C   UNL     1      38.313 -24.608 -11.917  0.00  0.00    +0.006 C 
ENDBRANCH  27  31
ENDBRANCH  20  24
ENDBRANCH   1  21
TORSDOF 6
ENDMDL
MODEL 4
REMARK VINA RESULT:     -11.0      7.525     13.787
REMARK  Name = 42628063
REMARK  6 active torsions:
REMARK  status: ('A' for Active; 'I' for Inactive)
REMARK    1  A    between atoms: C_1  and  N_3
REMARK    2  A    between atoms: C_1  and  C_21
REMARK    3  A    between atoms: C_4  and  N_10
REMARK    4  A    between atoms: C_11  and  C_15
REMARK    5  A    between atoms: N_20  and  C_24
REMARK    6  A    between atoms: C_27  and  N_31
REMARK                            x       y       z     vdW  Elec       q    Type
REMARK                         _______ _______ _______ _____ _____    ______ ____
ROOT
ATOM      1  C   UNL     1      33.908 -12.716 -25.467  0.00  0.00    +0.010 C 
ENDROOT
BRANCH   1   3
ATOM      2  F   UNL     1      36.727  -9.385 -24.468  0.00  0.00    -0.238 F 
ATOM      3  N   UNL     1      34.553 -11.589 -24.811  0.00  0.00    +0.396 N 
ATOM      4  C   UNL     1      34.463  -9.480 -23.854  0.00  0.00    +0.082 C 
ATOM      5  C   UNL     1      35.475  -9.436 -24.996  0.00  0.00    +0.156 C 
ATOM      6  C   UNL     1      33.593 -10.691 -24.169  0.00  0.00    -0.054 C 
ATOM      7  C   UNL     1      35.301 -10.747 -25.752  0.00  0.00    -0.039 C 
ATOM      8  H   UNL     1      35.173 -12.023 -24.128  0.00  0.00    -0.079 HD
BRANCH   4  10
ATOM      9  O   UNL     1      32.843  -8.683 -21.623  0.00  0.00    -0.270 OA
ATOM     10  N   UNL     1      33.691  -8.274 -23.743  0.00  0.00    -0.302 N 
ATOM     11  C   UNL     1      32.932  -7.969 -22.618  0.00  0.00    +0.252 C 
ATOM     12  H   UNL     1      33.700  -7.637 -24.493  0.00  0.00    +0.150 HD
BRANCH  11  15
ATOM     13 CL   UNL     1      30.999  -3.025 -24.172  0.00  0.00    -0.075 Cl
ATOM     14  S   UNL     1      32.460  -5.600 -23.954  0.00  0.00    -0.071 S 
ATOM     15  C   UNL     1      32.170  -6.694 -22.669  0.00  0.00    +0.084 C 
ATOM     16  C   UNL     1      31.211  -6.227 -21.797  0.00  0.00    +0.012 C 
ATOM     17  C   UNL     1      30.708  -4.953 -22.189  0.00  0.00    +0.019 C 
ATOM     18  C   UNL     1      31.301  -4.496 -23.346  0.00  0.00    +0.087 C 
ENDBRANCH  11  15
ENDBRANCH   4  10
ENDBRANCH   1   3
BRANCH   1  21
ATOM     19  O   UNL     1      32.687 -13.922 -23.771  0.00  0.00    -0.277 OA
ATOM     20  N   UNL     1      34.792 -14.697 -24.463  0.00  0.00    -0.284 N 
ATOM     21  C   UNL     1      33.698 -13.835 -24.460  0.00  0.00    +0.205 C 
ATOM     22  H   UNL     1      35.519 -14.475 -25.088  0.00  0.00    +0.155 HD
BRANCH  20  24
ATOM     23  F   UNL     1      34.982 -14.550 -21.685  0.00  0.00    -0.203 F 
ATOM     24  C   UNL     1      34.980 -15.855 -23.672  0.00  0.00    +0.078 C 
ATOM     25  C   UNL     1      35.071 -15.748 -22.283  0.00  0.00    +0.155 C 
ATOM     26  C   UNL     1      35.075 -17.106 -24.281  0.00  0.00    +0.018 C 
ATOM     27  C   UNL     1      35.350 -18.141 -22.115  0.00  0.00    +0.061 C 
ATOM     28  C   UNL     1      35.256 -16.890 -21.505  0.00  0.00    +0.046 C 
ATOM     29  C   UNL     1      35.259 -18.249 -23.503  0.00  0.00    +0.017 C 
BRANCH  27  31
ATOM     30  O   UNL     1      37.877 -19.032 -21.027  0.00  0.00    -0.269 OA
ATOM     31  N   UNL     1      35.542 -19.329 -21.307  0.00  0.00    -0.233 N 
ATOM     32  C   UNL     1      36.844 -19.681 -20.865  0.00  0.00    +0.257 C 
ATOM     33  C   UNL     1      34.452 -20.121 -20.939  0.00  0.00    +0.072 C 
ATOM     34  C   UNL     1      36.960 -20.946 -20.075  0.00  0.00    +0.059 C 
ATOM     35  C   UNL     1      34.577 -21.231 -20.204  0.00  0.00    +0.017 C 
ATOM     36  C   UNL     1      35.872 -21.656 -19.767  0.00  0.00    +0.006 C 
ENDBRANCH  27  31
ENDBRANCH  20  24
ENDBRANCH   1  21
TORSDOF 6
ENDMDL
MODEL 5
REMARK VINA RESULT:     -11.0      1.434      1.733
REMARK  Name = 42628063
REMARK  6 active torsions:
REMARK  status: ('A' for Active; 'I' for Inactive)
REMARK    1  A    between atoms: C_1  and  N_3
REMARK    2  A    between atoms: C_1  and  C_21
REMARK    3  A    between atoms: C_4  and  N_10
REMARK    4  A    between atoms: C_11  and  C_15
REMARK    5  A    between atoms: N_20  and  C_24
REMARK    6  A    between atoms: C_27  and  N_31
REMARK                            x       y       z     vdW  Elec       q    Type
REMARK                         _______ _______ _______ _____ _____    ______ ____
ROOT
ATOM      1  C   UNL     1      35.616 -21.277 -20.647  0.00  0.00    +0.010 C 
ENDROOT
BRANCH   1   3
ATOM      2  F   UNL     1      32.659 -22.978 -17.748  0.00  0.00    -0.238 F 
ATOM      3  N   UNL     1      34.928 -21.656 -19.422  0.00  0.00    +0.396 N 
ATOM      4  C   UNL     1      34.933 -22.599 -17.306  0.00  0.00    +0.082 C 
ATOM      5  C   UNL     1      33.905 -23.345 -18.151  0.00  0.00    +0.156 C 
ATOM      6  C   UNL     1      35.854 -21.942 -18.326  0.00  0.00    -0.054 C 
ATOM      7  C   UNL     1      34.129 -22.875 -19.583  0.00  0.00    -0.039 C 
ATOM      8  H   UNL     1      34.339 -20.851 -19.212  0.00  0.00    -0.079 HD
BRANCH   4  10
ATOM      9  O   UNL     1      37.462 -22.053 -16.061  0.00  0.00    -0.270 OA
ATOM     10  N   UNL     1      35.650 -23.460 -16.406  0.00  0.00    -0.302 N 
ATOM     11  C   UNL     1      36.875 -23.111 -15.848  0.00  0.00    +0.252 C 
ATOM     12  H   UNL     1      35.257 -24.332 -16.174  0.00  0.00    +0.150 HD
BRANCH  11  15
ATOM     13 CL   UNL     1      37.719 -26.792 -11.808  0.00  0.00    -0.075 Cl
ATOM     14  S   UNL     1      36.589 -24.763 -13.656  0.00  0.00    -0.071 S 
ATOM     15  C   UNL     1      37.500 -24.121 -14.956  0.00  0.00    +0.084 C 
ATOM     16  C   UNL     1      38.767 -24.657 -15.014  0.00  0.00    +0.012 C 
ATOM     17  C   UNL     1      38.995 -25.606 -13.975  0.00  0.00    +0.019 C 
ATOM     18  C   UNL     1      37.891 -25.760 -13.165  0.00  0.00    +0.087 C 
ENDBRANCH  11  15
ENDBRANCH   4  10
ENDBRANCH   1   3
BRANCH   1  21
ATOM     19  O   UNL     1      33.609 -20.130 -21.336  0.00  0.00    -0.277 OA
ATOM     20  N   UNL     1      35.708 -19.283 -21.961  0.00  0.00    -0.284 N 
ATOM     21  C   UNL     1      34.835 -20.178 -21.347  0.00  0.00    +0.205 C 
ATOM     22  H   UNL     1      36.668 -19.475 -21.863  0.00  0.00    +0.155 HD
BRANCH  20  24
ATOM     23  F   UNL     1      35.556 -16.767 -20.771  0.00  0.00    -0.203 F 
ATOM     24  C   UNL     1      35.375 -18.129 -22.710  0.00  0.00    +0.078 C 
ATOM     25  C   UNL     1      35.307 -16.883 -22.084  0.00  0.00    +0.155 C 
ATOM     26  C   UNL     1      35.113 -18.238 -24.076  0.00  0.00    +0.018 C 
ATOM     27  C   UNL     1      34.718 -15.857 -24.189  0.00  0.00    +0.061 C 
ATOM     28  C   UNL     1      34.978 -15.748 -22.824  0.00  0.00    +0.046 C 
ATOM     29  C   UNL     1      34.785 -17.102 -24.815  0.00  0.00    +0.017 C 
BRANCH  27  31
ATOM     30  O   UNL     1      33.689 -15.863 -26.892  0.00  0.00    -0.269 OA
ATOM     31  N   UNL     1      34.376 -14.676 -24.959  0.00  0.00    -0.233 N 
ATOM     32  C   UNL     1      33.916 -14.811 -26.295  0.00  0.00    +0.257 C 
ATOM     33  C   UNL     1      34.474 -13.405 -24.388  0.00  0.00    +0.072 C 
ATOM     34  C   UNL     1      33.631 -13.542 -27.032  0.00  0.00    +0.059 C 
ATOM     35  C   UNL     1      34.181 -12.286 -25.058  0.00  0.00    +0.017 C 
ATOM     36  C   UNL     1      33.753 -12.360 -26.423  0.00  0.00    +0.006 C 
ENDBRANCH  27  31
ENDBRANCH  20  24
ENDBRANCH   1  21
TORSDOF 6
ENDMDL
MODEL 6
REMARK VINA RESULT:     -10.9      4.859     12.096
REMARK  Name = 42628063
REMARK  6 active torsions:
REMARK  status: ('A' for Active; 'I' for Inactive)
REMARK    1  A    between atoms: C_1  and  N_3
REMARK    2  A    between atoms: C_1  and  C_21
REMARK    3  A    between atoms: C_4  and  N_10
REMARK    4  A    between atoms: C_11  and  C_15
REMARK    5  A    between atoms: N_20  and  C_24
REMARK    6  A    between atoms: C_27  and  N_31
REMARK                            x       y       z     vdW  Elec       q    Type
REMARK                         _______ _______ _______ _____ _____    ______ ____
ROOT
ATOM      1  C   UNL     1      34.018 -20.898 -20.979  0.00  0.00    +0.010 C 
ENDROOT
BRANCH   1   3
ATOM      2  F   UNL     1      37.773 -18.549 -21.632  0.00  0.00    -0.238 F 
ATOM      3  N   UNL     1      34.983 -19.812 -21.065  0.00  0.00    +0.396 N 
ATOM      4  C   UNL     1      35.592 -17.696 -21.786  0.00  0.00    +0.082 C 
ATOM      5  C   UNL     1      36.614 -18.690 -22.329  0.00  0.00    +0.156 C 
ATOM      6  C   UNL     1      34.369 -18.548 -21.471  0.00  0.00    -0.054 C 
ATOM      7  C   UNL     1      36.030 -20.071 -22.060  0.00  0.00    -0.039 C 
ATOM      8  H   UNL     1      35.372 -19.753 -20.124  0.00  0.00    -0.079 HD
BRANCH   4  10
ATOM      9  O   UNL     1      34.585 -15.086 -21.140  0.00  0.00    -0.270 OA
ATOM     10  N   UNL     1      35.290 -16.640 -22.712  0.00  0.00    -0.302 N 
ATOM     11  C   UNL     1      34.804 -15.401 -22.306  0.00  0.00    +0.252 C 
ATOM     12  H   UNL     1      35.435 -16.798 -23.672  0.00  0.00    +0.150 HD
BRANCH  11  15
ATOM     13 CL   UNL     1      33.530 -13.154 -27.197  0.00  0.00    -0.075 Cl
ATOM     14  S   UNL     1      34.128 -15.002 -24.952  0.00  0.00    -0.071 S 
ATOM     15  C   UNL     1      34.518 -14.424 -23.389  0.00  0.00    +0.084 C 
ATOM     16  C   UNL     1      34.515 -13.048 -23.330  0.00  0.00    +0.012 C 
ATOM     17  C   UNL     1      34.189 -12.460 -24.586  0.00  0.00    +0.019 C 
ATOM     18  C   UNL     1      33.954 -13.410 -25.557  0.00  0.00    +0.087 C 
ENDBRANCH  11  15
ENDBRANCH   4  10
ENDBRANCH   1   3
BRANCH   1  21
ATOM     19  O   UNL     1      33.044 -21.787 -18.959  0.00  0.00    -0.277 OA
ATOM     20  N   UNL     1      35.379 -21.674 -19.175  0.00  0.00    -0.284 N 
ATOM     21  C   UNL     1      34.059 -21.503 -19.586  0.00  0.00    +0.205 C 
ATOM     22  H   UNL     1      36.074 -21.394 -19.813  0.00  0.00    +0.155 HD
BRANCH  20  24
ATOM     23  F   UNL     1      37.834 -20.925 -18.087  0.00  0.00    -0.203 F 
ATOM     24  C   UNL     1      35.837 -22.205 -17.946  0.00  0.00    +0.078 C 
ATOM     25  C   UNL     1      37.072 -21.810 -17.428  0.00  0.00    +0.155 C 
ATOM     26  C   UNL     1      35.054 -23.127 -17.251  0.00  0.00    +0.018 C 
ATOM     27  C   UNL     1      36.737 -23.255 -15.522  0.00  0.00    +0.061 C 
ATOM     28  C   UNL     1      37.521 -22.334 -16.217  0.00  0.00    +0.046 C 
ATOM     29  C   UNL     1      35.503 -23.651 -16.039  0.00  0.00    +0.017 C 
BRANCH  27  31
ATOM     30  O   UNL     1      38.262 -25.693 -15.220  0.00  0.00    -0.269 OA
ATOM     31  N   UNL     1      37.204 -23.801 -14.263  0.00  0.00    -0.233 N 
ATOM     32  C   UNL     1      37.912 -25.031 -14.244  0.00  0.00    +0.257 C 
ATOM     33  C   UNL     1      36.983 -23.115 -13.067  0.00  0.00    +0.072 C 
ATOM     34  C   UNL     1      38.317 -25.546 -12.900  0.00  0.00    +0.059 C 
ATOM     35  C   UNL     1      37.384 -23.580 -11.879  0.00  0.00    +0.017 C 
ATOM     36  C   UNL     1      38.065 -24.837 -11.796  0.00  0.00    +0.006 C 
ENDBRANCH  27  31
ENDBRANCH  20  24
ENDBRANCH   1  21
TORSDOF 6
ENDMDL
MODEL 7
REMARK VINA RESULT:     -10.4      4.846     12.246
REMARK  Name = 42628063
REMARK  6 active torsions:
REMARK  status: ('A' for Active; 'I' for Inactive)
REMARK    1  A    between atoms: C_1  and  N_3
REMARK    2  A    between atoms: C_1  and  C_21
REMARK    3  A    between atoms: C_4  and  N_10
REMARK    4  A    between atoms: C_11  and  C_15
REMARK    5  A    between atoms: N_20  and  C_24
REMARK    6  A    between atoms: C_27  and  N_31
REMARK                            x       y       z     vdW  Elec       q    Type
REMARK                         _______ _______ _______ _____ _____    ______ ____
ROOT
ATOM      1  C   UNL     1      34.374 -20.684 -20.926  0.00  0.00    +0.010 C 
ENDROOT
BRANCH   1   3
ATOM      2  F   UNL     1      37.205 -18.629 -23.720  0.00  0.00    -0.238 F 
ATOM      3  N   UNL     1      35.260 -19.705 -21.538  0.00  0.00    +0.396 N 
ATOM      4  C   UNL     1      35.699 -17.553 -22.277  0.00  0.00    +0.082 C 
ATOM      5  C   UNL     1      35.876 -18.502 -23.459  0.00  0.00    +0.156 C 
ATOM      6  C   UNL     1      34.824 -18.329 -21.300  0.00  0.00    -0.054 C 
ATOM      7  C   UNL     1      35.323 -19.843 -22.997  0.00  0.00    -0.039 C 
ATOM      8  H   UNL     1      36.165 -19.889 -21.108  0.00  0.00    -0.079 HD
BRANCH   4  10
ATOM      9  O   UNL     1      34.926 -15.430 -20.506  0.00  0.00    -0.270 OA
ATOM     10  N   UNL     1      35.110 -16.297 -22.650  0.00  0.00    -0.302 N 
ATOM     11  C   UNL     1      34.766 -15.323 -21.719  0.00  0.00    +0.252 C 
ATOM     12  H   UNL     1      34.943 -16.118 -23.603  0.00  0.00    +0.150 HD
BRANCH  11  15
ATOM     13 CL   UNL     1      31.513 -10.901 -22.395  0.00  0.00    -0.075 Cl
ATOM     14  S   UNL     1      32.838 -13.371 -21.417  0.00  0.00    -0.071 S 
ATOM     15  C   UNL     1      34.143 -14.088 -22.263  0.00  0.00    +0.084 C 
ATOM     16  C   UNL     1      34.468 -13.389 -23.403  0.00  0.00    +0.012 C 
ATOM     17  C   UNL     1      33.634 -12.247 -23.587  0.00  0.00    +0.019 C 
ATOM     18  C   UNL     1      32.704 -12.119 -22.578  0.00  0.00    +0.087 C 
ENDBRANCH  11  15
ENDBRANCH   4  10
ENDBRANCH   1   3
BRANCH   1  21
ATOM     19  O   UNL     1      36.087 -22.347 -20.579  0.00  0.00    -0.277 OA
ATOM     20  N   UNL     1      34.777 -21.627 -18.768  0.00  0.00    -0.284 N 
ATOM     21  C   UNL     1      35.193 -21.659 -20.097  0.00  0.00    +0.205 C 
ATOM     22  H   UNL     1      34.044 -21.007 -18.556  0.00  0.00    +0.155 HD
BRANCH  20  24
ATOM     23  F   UNL     1      37.424 -21.371 -17.930  0.00  0.00    -0.203 F 
ATOM     24  C   UNL     1      35.288 -22.384 -17.686  0.00  0.00    +0.078 C 
ATOM     25  C   UNL     1      36.618 -22.232 -17.291  0.00  0.00    +0.155 C 
ATOM     26  C   UNL     1      34.460 -23.284 -17.015  0.00  0.00    +0.018 C 
ATOM     27  C   UNL     1      36.291 -23.877 -15.554  0.00  0.00    +0.061 C 
ATOM     28  C   UNL     1      37.119 -22.979 -16.226  0.00  0.00    +0.046 C 
ATOM     29  C   UNL     1      34.962 -24.030 -15.948  0.00  0.00    +0.017 C 
BRANCH  27  31
ATOM     30  O   UNL     1      36.822 -22.856 -12.901  0.00  0.00    -0.269 OA
ATOM     31  N   UNL     1      36.812 -24.654 -14.445  0.00  0.00    -0.233 N 
ATOM     32  C   UNL     1      37.067 -24.025 -13.199  0.00  0.00    +0.257 C 
ATOM     33  C   UNL     1      37.044 -26.024 -14.587  0.00  0.00    +0.072 C 
ATOM     34  C   UNL     1      37.647 -24.887 -12.124  0.00  0.00    +0.059 C 
ATOM     35  C   UNL     1      37.532 -26.782 -13.599  0.00  0.00    +0.017 C 
ATOM     36  C   UNL     1      37.849 -26.191 -12.334  0.00  0.00    +0.006 C 
ENDBRANCH  27  31
ENDBRANCH  20  24
ENDBRANCH   1  21
TORSDOF 6
ENDMDL
MODEL 8
REMARK VINA RESULT:     -10.3      4.850      8.057
REMARK  Name = 42628063
REMARK  6 active torsions:
REMARK  status: ('A' for Active; 'I' for Inactive)
REMARK    1  A    between atoms: C_1  and  N_3
REMARK    2  A    between atoms: C_1  and  C_21
REMARK    3  A    between atoms: C_4  and  N_10
REMARK    4  A    between atoms: C_11  and  C_15
REMARK    5  A    between atoms: N_20  and  C_24
REMARK    6  A    between atoms: C_27  and  N_31
REMARK                            x       y       z     vdW  Elec       q    Type
REMARK                         _______ _______ _______ _____ _____    ______ ____
ROOT
ATOM      1  C   UNL     1      34.472 -15.156 -25.091  0.00  0.00    +0.010 C 
ENDROOT
BRANCH   1   3
ATOM      2  F   UNL     1      35.388 -14.595 -20.745  0.00  0.00    -0.238 F 
ATOM      3  N   UNL     1      35.048 -15.291 -23.761  0.00  0.00    +0.396 N 
ATOM      4  C   UNL     1      35.674 -16.590 -21.947  0.00  0.00    +0.082 C 
ATOM      5  C   UNL     1      34.697 -15.528 -21.451  0.00  0.00    +0.156 C 
ATOM      6  C   UNL     1      35.411 -16.673 -23.446  0.00  0.00    -0.054 C 
ATOM      7  C   UNL     1      34.117 -14.884 -22.704  0.00  0.00    -0.039 C 
ATOM      8  H   UNL     1      35.869 -14.686 -23.786  0.00  0.00    -0.079 HD
BRANCH   4  10
ATOM      9  O   UNL     1      37.601 -18.712 -21.789  0.00  0.00    -0.270 OA
ATOM     10  N   UNL     1      35.501 -17.859 -21.297  0.00  0.00    -0.302 N 
ATOM     11  C   UNL     1      36.495 -18.832 -21.271  0.00  0.00    +0.252 C 
ATOM     12  H   UNL     1      34.644 -18.048 -20.852  0.00  0.00    +0.150 HD
BRANCH  11  15
ATOM     13 CL   UNL     1      33.716 -23.176 -19.273  0.00  0.00    -0.075 Cl
ATOM     14  S   UNL     1      34.530 -20.654 -20.610  0.00  0.00    -0.071 S 
ATOM     15  C   UNL     1      36.150 -20.101 -20.580  0.00  0.00    +0.084 C 
ATOM     16  C   UNL     1      36.975 -20.953 -19.880  0.00  0.00    +0.012 C 
ATOM     17  C   UNL     1      36.268 -22.076 -19.360  0.00  0.00    +0.019 C 
ATOM     18  C   UNL     1      34.929 -22.038 -19.684  0.00  0.00    +0.087 C 
ENDBRANCH  11  15
ENDBRANCH   4  10
ENDBRANCH   1   3
BRANCH   1  21
ATOM     19  O   UNL     1      33.238 -13.426 -26.233  0.00  0.00    -0.277 OA
ATOM     20  N   UNL     1      34.225 -12.972 -24.152  0.00  0.00    -0.284 N 
ATOM     21  C   UNL     1      33.897 -13.759 -25.254  0.00  0.00    +0.205 C 
ATOM     22  H   UNL     1      34.760 -13.407 -23.450  0.00  0.00    +0.155 HD
BRANCH  20  24
ATOM     23  F   UNL     1      31.987 -12.275 -22.643  0.00  0.00    -0.203 F 
ATOM     24  C   UNL     1      33.878 -11.619 -23.924  0.00  0.00    +0.078 C 
ATOM     25  C   UNL     1      32.751 -11.303 -23.164  0.00  0.00    +0.155 C 
ATOM     26  C   UNL     1      34.664 -10.600 -24.462  0.00  0.00    +0.018 C 
ATOM     27  C   UNL     1      33.197  -8.951 -23.478  0.00  0.00    +0.061 C 
ATOM     28  C   UNL     1      32.411  -9.970 -22.941  0.00  0.00    +0.046 C 
ATOM     29  C   UNL     1      34.324  -9.266 -24.238  0.00  0.00    +0.017 C 
BRANCH  27  31
ATOM     30  O   UNL     1      33.520  -7.539 -20.974  0.00  0.00    -0.269 OA
ATOM     31  N   UNL     1      32.844  -7.564 -23.246  0.00  0.00    -0.233 N 
ATOM     32  C   UNL     1      33.015  -6.996 -21.957  0.00  0.00    +0.257 C 
ATOM     33  C   UNL     1      32.357  -6.773 -24.289  0.00  0.00    +0.072 C 
ATOM     34  C   UNL     1      32.582  -5.574 -21.792  0.00  0.00    +0.059 C 
ATOM     35  C   UNL     1      32.007  -5.492 -24.125  0.00  0.00    +0.017 C 
ATOM     36  C   UNL     1      32.118  -4.880 -22.835  0.00  0.00    +0.006 C 
ENDBRANCH  27  31
ENDBRANCH  20  24
ENDBRANCH   1  21
TORSDOF 6
ENDMDL
MODEL 9
REMARK VINA RESULT:     -10.3      5.099      7.412
REMARK  Name = 42628063
REMARK  6 active torsions:
REMARK  status: ('A' for Active; 'I' for Inactive)
REMARK    1  A    between atoms: C_1  and  N_3
REMARK    2  A    between atoms: C_1  and  C_21
REMARK    3  A    between atoms: C_4  and  N_10
REMARK    4  A    between atoms: C_11  and  C_15
REMARK    5  A    between atoms: N_20  and  C_24
REMARK    6  A    between atoms: C_27  and  N_31
REMARK                            x       y       z     vdW  Elec       q    Type
REMARK                         _______ _______ _______ _____ _____    ______ ____
ROOT
ATOM      1  C   UNL     1      35.615 -23.995 -15.680  0.00  0.00    +0.010 C 
ENDROOT
BRANCH   1   3
ATOM      2  F   UNL     1      32.165 -25.409 -13.202  0.00  0.00    -0.238 F 
ATOM      3  N   UNL     1      34.327 -24.528 -15.264  0.00  0.00    +0.396 N 
ATOM      4  C   UNL     1      32.012 -24.554 -15.382  0.00  0.00    +0.082 C 
ATOM      5  C   UNL     1      32.407 -24.288 -13.933  0.00  0.00    +0.156 C 
ATOM      6  C   UNL     1      33.248 -24.168 -16.185  0.00  0.00    -0.054 C 
ATOM      7  C   UNL     1      33.905 -24.015 -13.956  0.00  0.00    -0.039 C 
ATOM      8  H   UNL     1      34.473 -25.536 -15.238  0.00  0.00    -0.079 HD
BRANCH   4  10
ATOM      9  O   UNL     1      29.273 -25.274 -14.915  0.00  0.00    -0.270 OA
ATOM     10  N   UNL     1      30.850 -23.816 -15.792  0.00  0.00    -0.302 N 
ATOM     11  C   UNL     1      29.554 -24.243 -15.520  0.00  0.00    +0.252 C 
ATOM     12  H   UNL     1      30.975 -22.973 -16.284  0.00  0.00    +0.150 HD
BRANCH  11  15
ATOM     13 CL   UNL     1      26.011 -21.630 -18.868  0.00  0.00    -0.075 Cl
ATOM     14  S   UNL     1      28.172 -23.310 -17.719  0.00  0.00    -0.071 S 
ATOM     15  C   UNL     1      28.459 -23.380 -16.032  0.00  0.00    +0.084 C 
ATOM     16  C   UNL     1      27.587 -22.582 -15.326  0.00  0.00    +0.012 C 
ATOM     17  C   UNL     1      26.670 -21.903 -16.180  0.00  0.00    +0.019 C 
ATOM     18  C   UNL     1      26.877 -22.210 -17.508  0.00  0.00    +0.087 C 
ENDBRANCH  11  15
ENDBRANCH   4  10
ENDBRANCH   1   3
BRANCH   1  21
ATOM     19  O   UNL     1      35.091 -21.659 -15.973  0.00  0.00    -0.277 OA
ATOM     20  N   UNL     1      35.614 -22.978 -17.843  0.00  0.00    -0.284 N 
ATOM     21  C   UNL     1      35.401 -22.727 -16.490  0.00  0.00    +0.205 C 
ATOM     22  H   UNL     1      35.864 -23.900 -18.080  0.00  0.00    +0.155 HD
BRANCH  20  24
ATOM     23  F   UNL     1      33.152 -22.306 -18.963  0.00  0.00    -0.203 F 
ATOM     24  C   UNL     1      35.515 -22.062 -18.916  0.00  0.00    +0.078 C 
ATOM     25  C   UNL     1      34.266 -21.746 -19.455  0.00  0.00    +0.155 C 
ATOM     26  C   UNL     1      36.667 -21.472 -19.437  0.00  0.00    +0.018 C 
ATOM     27  C   UNL     1      35.323 -20.253 -21.032  0.00  0.00    +0.061 C 
ATOM     28  C   UNL     1      34.171 -20.843 -20.512  0.00  0.00    +0.046 C 
ATOM     29  C   UNL     1      36.571 -20.568 -20.495  0.00  0.00    +0.017 C 
BRANCH  27  31
ATOM     30  O   UNL     1      36.050 -17.457 -20.912  0.00  0.00    -0.269 OA
ATOM     31  N   UNL     1      35.224 -19.313 -22.132  0.00  0.00    -0.233 N 
ATOM     32  C   UNL     1      35.576 -17.953 -21.934  0.00  0.00    +0.257 C 
ATOM     33  C   UNL     1      34.805 -19.740 -23.394  0.00  0.00    +0.072 C 
ATOM     34  C   UNL     1      35.400 -17.042 -23.107  0.00  0.00    +0.059 C 
ATOM     35  C   UNL     1      34.687 -18.912 -24.437  0.00  0.00    +0.017 C 
ATOM     36  C   UNL     1      34.988 -17.521 -24.283  0.00  0.00    +0.006 C 
ENDBRANCH  27  31
ENDBRANCH  20  24
ENDBRANCH   1  21
TORSDOF 6
ENDMDL
