MODEL 1
REMARK VINA RESULT:     -11.6      0.000      0.000
REMARK  Name = 44814409
REMARK  5 active torsions:
REMARK  status: ('A' for Active; 'I' for Inactive)
REMARK    1  A    between atoms: N_2  and  C_22
REMARK    2  A    between atoms: C_3  and  C_7
REMARK    3  A    between atoms: C_9  and  C_14
REMARK    4  A    between atoms: C_21  and  C_26
REMARK    5  A    between atoms: C_29  and  N_33
REMARK                            x       y       z     vdW  Elec       q    Type
REMARK                         _______ _______ _______ _____ _____    ______ ____
ROOT
ATOM      1  O   UNL     1      32.698 -21.252 -20.494  0.00  0.00    -0.267 OA
ATOM      2  N   UNL     1      34.034 -21.874 -18.662  0.00  0.00    -0.278 N 
ATOM      3  C   UNL     1      33.773 -21.281 -19.905  0.00  0.00    +0.275 C 
ATOM      4  H   UNL     1      34.961 -21.801 -18.335  0.00  0.00    +0.155 HD
ENDROOT
BRANCH   3   7
ATOM      5  F   UNL     1      37.996 -18.657 -22.379  0.00  0.00    -0.202 F 
ATOM      6  N   UNL     1      34.628 -19.721 -21.522  0.00  0.00    -0.399 NA
ATOM      7  C   UNL     1      34.931 -20.601 -20.542  0.00  0.00    +0.167 C 
ATOM      8  C   UNL     1      36.222 -20.883 -20.125  0.00  0.00    +0.092 C 
ATOM      9  C   UNL     1      35.672 -19.094 -22.109  0.00  0.00    +0.162 C 
ATOM     10  C   UNL     1      37.269 -20.218 -20.754  0.00  0.00    +0.014 C 
ATOM     11  C   UNL     1      36.997 -19.304 -21.766  0.00  0.00    +0.166 C 
BRANCH   9  14
ATOM     12  F   UNL     1      34.971 -19.943 -24.689  0.00  0.00    -0.204 F 
ATOM     13  F   UNL     1      35.628 -16.324 -21.674  0.00  0.00    -0.204 F 
ATOM     14  C   UNL     1      35.310 -18.160 -23.151  0.00  0.00    +0.087 C 
ATOM     15  C   UNL     1      34.969 -18.629 -24.419  0.00  0.00    +0.145 C 
ATOM     16  C   UNL     1      35.301 -16.790 -22.888  0.00  0.00    +0.145 C 
ATOM     17  C   UNL     1      34.618 -17.727 -25.425  0.00  0.00    +0.030 C 
ATOM     18  C   UNL     1      34.952 -15.888 -23.893  0.00  0.00    +0.030 C 
ATOM     19  C   UNL     1      34.612 -16.358 -25.162  0.00  0.00    +0.005 C 
ENDBRANCH   9  14
ENDBRANCH   3   7
BRANCH   2  22
ATOM     20  N   UNL     1      30.850 -22.955 -17.183  0.00  0.00    -0.241 NA
ATOM     21  C   UNL     1      33.582 -23.456 -16.869  0.00  0.00    -0.006 C 
ATOM     22  C   UNL     1      33.144 -22.552 -17.830  0.00  0.00    +0.066 C 
ATOM     23  C   UNL     1      32.656 -24.110 -16.064  0.00  0.00    +0.018 C 
ATOM     24  C   UNL     1      31.780 -22.339 -17.946  0.00  0.00    +0.113 C 
ATOM     25  C   UNL     1      31.313 -23.828 -16.259  0.00  0.00    +0.099 C 
BRANCH  21  26
ATOM     26  C   UNL     1      35.037 -23.744 -16.680  0.00  0.00    +0.022 C 
ATOM     27  C   UNL     1      36.754 -24.753 -15.100  0.00  0.00    -0.002 C 
ATOM     28  C   UNL     1      35.261 -24.496 -15.356  0.00  0.00    +0.004 C 
ATOM     29  C   UNL     1      37.334 -22.693 -16.461  0.00  0.00    -0.065 C 
ATOM     30  C   UNL     1      35.843 -22.432 -16.713  0.00  0.00    -0.017 C 
ATOM     31  C   UNL     1      37.550 -23.441 -15.140  0.00  0.00    -0.022 C 
ATOM     32  C   UNL     1      36.954 -25.465 -13.763  0.00  0.00    -0.000 C 
BRANCH  29  33
ATOM     33  N   UNL     1      38.061 -21.425 -16.438  0.00  0.00    +0.382 N 
ATOM     34  H   UNL     1      38.406 -21.248 -15.495  0.00  0.00    -0.089 HD
ATOM     35  H   UNL     1      37.436 -20.669 -16.719  0.00  0.00    -0.089 HD
ATOM     36  H   UNL     1      38.848 -21.472 -17.084  0.00  0.00    -0.089 HD
ENDBRANCH  29  33
ENDBRANCH  21  26
ENDBRANCH   2  22
TORSDOF 5
ENDMDL
MODEL 2
REMARK VINA RESULT:     -11.6      0.005      1.464
REMARK  Name = 44814409
REMARK  5 active torsions:
REMARK  status: ('A' for Active; 'I' for Inactive)
REMARK    1  A    between atoms: N_2  and  C_22
REMARK    2  A    between atoms: C_3  and  C_7
REMARK    3  A    between atoms: C_9  and  C_14
REMARK    4  A    between atoms: C_21  and  C_26
REMARK    5  A    between atoms: C_29  and  N_33
REMARK                            x       y       z     vdW  Elec       q    Type
REMARK                         _______ _______ _______ _____ _____    ______ ____
ROOT
ATOM      1  O   UNL     1      32.702 -21.263 -20.497  0.00  0.00    -0.267 OA
ATOM      2  N   UNL     1      34.035 -21.874 -18.658  0.00  0.00    -0.278 N 
ATOM      3  C   UNL     1      33.776 -21.287 -19.904  0.00  0.00    +0.275 C 
ATOM      4  H   UNL     1      34.960 -21.797 -18.329  0.00  0.00    +0.155 HD
ENDROOT
BRANCH   3   7
ATOM      5  F   UNL     1      37.997 -18.653 -22.372  0.00  0.00    -0.202 F 
ATOM      6  N   UNL     1      34.630 -19.724 -21.520  0.00  0.00    -0.399 NA
ATOM      7  C   UNL     1      34.933 -20.604 -20.539  0.00  0.00    +0.167 C 
ATOM      8  C   UNL     1      36.224 -20.884 -20.120  0.00  0.00    +0.092 C 
ATOM      9  C   UNL     1      35.673 -19.094 -22.105  0.00  0.00    +0.162 C 
ATOM     10  C   UNL     1      37.270 -20.216 -20.747  0.00  0.00    +0.014 C 
ATOM     11  C   UNL     1      36.998 -19.303 -21.760  0.00  0.00    +0.166 C 
BRANCH   9  14
ATOM     12  F   UNL     1      35.626 -16.325 -21.669  0.00  0.00    -0.204 F 
ATOM     13  F   UNL     1      34.975 -19.945 -24.685  0.00  0.00    -0.204 F 
ATOM     14  C   UNL     1      35.311 -18.161 -23.147  0.00  0.00    +0.087 C 
ATOM     15  C   UNL     1      35.301 -16.792 -22.884  0.00  0.00    +0.145 C 
ATOM     16  C   UNL     1      34.971 -18.631 -24.416  0.00  0.00    +0.145 C 
ATOM     17  C   UNL     1      34.952 -15.891 -23.891  0.00  0.00    +0.030 C 
ATOM     18  C   UNL     1      34.621 -17.731 -25.423  0.00  0.00    +0.030 C 
ATOM     19  C   UNL     1      34.611 -16.361 -25.159  0.00  0.00    +0.005 C 
ENDBRANCH   9  14
ENDBRANCH   3   7
BRANCH   2  22
ATOM     20  N   UNL     1      30.850 -22.957 -17.181  0.00  0.00    -0.241 NA
ATOM     21  C   UNL     1      33.582 -23.459 -16.867  0.00  0.00    -0.006 C 
ATOM     22  C   UNL     1      33.145 -22.554 -17.827  0.00  0.00    +0.066 C 
ATOM     23  C   UNL     1      32.656 -24.113 -16.063  0.00  0.00    +0.018 C 
ATOM     24  C   UNL     1      31.781 -22.341 -17.944  0.00  0.00    +0.113 C 
ATOM     25  C   UNL     1      31.313 -23.830 -16.258  0.00  0.00    +0.099 C 
BRANCH  21  26
ATOM     26  C   UNL     1      35.037 -23.746 -16.678  0.00  0.00    +0.022 C 
ATOM     27  C   UNL     1      36.753 -24.757 -15.099  0.00  0.00    -0.002 C 
ATOM     28  C   UNL     1      35.261 -24.499 -15.354  0.00  0.00    +0.004 C 
ATOM     29  C   UNL     1      37.334 -22.696 -16.458  0.00  0.00    -0.065 C 
ATOM     30  C   UNL     1      35.843 -22.435 -16.709  0.00  0.00    -0.017 C 
ATOM     31  C   UNL     1      37.550 -23.445 -15.137  0.00  0.00    -0.022 C 
ATOM     32  C   UNL     1      36.954 -25.470 -13.762  0.00  0.00    -0.000 C 
BRANCH  29  33
ATOM     33  N   UNL     1      38.061 -21.428 -16.433  0.00  0.00    +0.382 N 
ATOM     34  H   UNL     1      38.265 -21.171 -15.467  0.00  0.00    -0.089 HD
ATOM     35  H   UNL     1      37.491 -20.700 -16.865  0.00  0.00    -0.089 HD
ATOM     36  H   UNL     1      38.935 -21.526 -16.950  0.00  0.00    -0.089 HD
ENDBRANCH  29  33
ENDBRANCH  21  26
ENDBRANCH   2  22
TORSDOF 5
ENDMDL
MODEL 3
REMARK VINA RESULT:     -10.7      4.199      9.843
REMARK  Name = 44814409
REMARK  5 active torsions:
REMARK  status: ('A' for Active; 'I' for Inactive)
REMARK    1  A    between atoms: N_2  and  C_22
REMARK    2  A    between atoms: C_3  and  C_7
REMARK    3  A    between atoms: C_9  and  C_14
REMARK    4  A    between atoms: C_21  and  C_26
REMARK    5  A    between atoms: C_29  and  N_33
REMARK                            x       y       z     vdW  Elec       q    Type
REMARK                         _______ _______ _______ _____ _____    ______ ____
ROOT
ATOM      1  O   UNL     1      35.341 -14.376 -20.583  0.00  0.00    -0.267 OA
ATOM      2  N   UNL     1      33.323 -14.318 -21.790  0.00  0.00    -0.278 N 
ATOM      3  C   UNL     1      34.577 -14.829 -21.429  0.00  0.00    +0.275 C 
ATOM      4  H   UNL     1      32.841 -14.812 -22.492  0.00  0.00    +0.155 HD
ENDROOT
BRANCH   3   7
ATOM      5  F   UNL     1      36.098 -19.537 -23.953  0.00  0.00    -0.202 F 
ATOM      6  N   UNL     1      35.042 -17.188 -21.388  0.00  0.00    -0.399 NA
ATOM      7  C   UNL     1      34.989 -16.067 -22.141  0.00  0.00    +0.167 C 
ATOM      8  C   UNL     1      35.289 -16.027 -23.494  0.00  0.00    +0.092 C 
ATOM      9  C   UNL     1      35.414 -18.322 -22.023  0.00  0.00    +0.162 C 
ATOM     10  C   UNL     1      35.668 -17.213 -24.111  0.00  0.00    +0.014 C 
ATOM     11  C   UNL     1      35.734 -18.387 -23.369  0.00  0.00    +0.166 C 
BRANCH   9  14
ATOM     12  F   UNL     1      37.779 -19.170 -20.778  0.00  0.00    -0.204 F 
ATOM     13  F   UNL     1      33.142 -19.896 -21.549  0.00  0.00    -0.204 F 
ATOM     14  C   UNL     1      35.459 -19.499 -21.187  0.00  0.00    +0.087 C 
ATOM     15  C   UNL     1      36.658 -19.883 -20.588  0.00  0.00    +0.145 C 
ATOM     16  C   UNL     1      34.303 -20.251 -20.979  0.00  0.00    +0.145 C 
ATOM     17  C   UNL     1      36.702 -21.019 -19.780  0.00  0.00    +0.030 C 
ATOM     18  C   UNL     1      34.346 -21.388 -20.172  0.00  0.00    +0.030 C 
ATOM     19  C   UNL     1      35.546 -21.772 -19.573  0.00  0.00    +0.005 C 
ENDBRANCH   9  14
ENDBRANCH   3   7
BRANCH   2  22
ATOM     20  N   UNL     1      31.692 -12.097 -19.359  0.00  0.00    -0.241 NA
ATOM     21  C   UNL     1      32.360 -12.100 -22.073  0.00  0.00    -0.006 C 
ATOM     22  C   UNL     1      32.673 -13.195 -21.276  0.00  0.00    +0.066 C 
ATOM     23  C   UNL     1      31.714 -11.003 -21.515  0.00  0.00    +0.018 C 
ATOM     24  C   UNL     1      32.321 -13.145 -19.937  0.00  0.00    +0.113 C 
ATOM     25  C   UNL     1      31.405 -11.050 -20.165  0.00  0.00    +0.099 C 
BRANCH  21  26
ATOM     26  C   UNL     1      32.707 -12.076 -23.527  0.00  0.00    +0.022 C 
ATOM     27  C   UNL     1      33.290 -13.523 -25.534  0.00  0.00    -0.002 C 
ATOM     28  C   UNL     1      32.873 -13.512 -24.056  0.00  0.00    +0.004 C 
ATOM     29  C   UNL     1      34.402 -11.264 -25.229  0.00  0.00    -0.065 C 
ATOM     30  C   UNL     1      33.990 -11.255 -23.751  0.00  0.00    -0.017 C 
ATOM     31  C   UNL     1      34.567 -12.697 -25.749  0.00  0.00    -0.022 C 
ATOM     32  C   UNL     1      33.487 -14.957 -26.026  0.00  0.00    -0.000 C 
BRANCH  29  33
ATOM     33  N   UNL     1      35.653 -10.528 -25.399  0.00  0.00    +0.382 N 
ATOM     34  H   UNL     1      36.071 -10.352 -24.485  0.00  0.00    -0.089 HD
ATOM     35  H   UNL     1      35.465  -9.639 -25.863  0.00  0.00    -0.089 HD
ATOM     36  H   UNL     1      36.297 -11.078 -25.967  0.00  0.00    -0.089 HD
ENDBRANCH  29  33
ENDBRANCH  21  26
ENDBRANCH   2  22
TORSDOF 5
ENDMDL
MODEL 4
REMARK VINA RESULT:     -10.7      7.294     11.213
REMARK  Name = 44814409
REMARK  5 active torsions:
REMARK  status: ('A' for Active; 'I' for Inactive)
REMARK    1  A    between atoms: N_2  and  C_22
REMARK    2  A    between atoms: C_3  and  C_7
REMARK    3  A    between atoms: C_9  and  C_14
REMARK    4  A    between atoms: C_21  and  C_26
REMARK    5  A    between atoms: C_29  and  N_33
REMARK                            x       y       z     vdW  Elec       q    Type
REMARK                         _______ _______ _______ _____ _____    ______ ____
ROOT
ATOM      1  O   UNL     1      31.903 -14.575 -20.150  0.00  0.00    -0.267 OA
ATOM      2  N   UNL     1      33.813 -13.744 -21.241  0.00  0.00    -0.278 N 
ATOM      3  C   UNL     1      32.636 -13.651 -20.485  0.00  0.00    +0.275 C 
ATOM      4  H   UNL     1      34.280 -12.895 -21.418  0.00  0.00    +0.155 HD
ENDROOT
BRANCH   3   7
ATOM      5  F   UNL     1      31.326  -8.478 -18.945  0.00  0.00    -0.202 F 
ATOM      6  N   UNL     1      32.425 -11.301 -20.953  0.00  0.00    -0.399 NA
ATOM      7  C   UNL     1      32.276 -12.281 -20.034  0.00  0.00    +0.167 C 
ATOM      8  C   UNL     1      31.820 -12.070 -18.742  0.00  0.00    +0.092 C 
ATOM      9  C   UNL     1      32.099 -10.051 -20.556  0.00  0.00    +0.162 C 
ATOM     10  C   UNL     1      31.496 -10.769 -18.371  0.00  0.00    +0.014 C 
ATOM     11  C   UNL     1      31.635  -9.735 -19.289  0.00  0.00    +0.166 C 
BRANCH   9  14
ATOM     12  F   UNL     1      30.698 -10.112 -22.985  0.00  0.00    -0.204 F 
ATOM     13  F   UNL     1      33.853  -7.891 -20.203  0.00  0.00    -0.204 F 
ATOM     14  C   UNL     1      32.270  -9.031 -21.564  0.00  0.00    +0.087 C 
ATOM     15  C   UNL     1      31.552  -9.103 -22.758  0.00  0.00    +0.145 C 
ATOM     16  C   UNL     1      33.154  -7.974 -21.344  0.00  0.00    +0.145 C 
ATOM     17  C   UNL     1      31.717  -8.117 -23.731  0.00  0.00    +0.030 C 
ATOM     18  C   UNL     1      33.320  -6.988 -22.318  0.00  0.00    +0.030 C 
ATOM     19  C   UNL     1      32.601  -7.061 -23.511  0.00  0.00    +0.005 C 
ENDBRANCH   9  14
ENDBRANCH   3   7
BRANCH   2  22
ATOM     20  N   UNL     1      35.526 -16.992 -21.361  0.00  0.00    -0.241 NA
ATOM     21  C   UNL     1      34.478 -15.109 -23.143  0.00  0.00    -0.006 C 
ATOM     22  C   UNL     1      34.404 -14.890 -21.772  0.00  0.00    +0.066 C 
ATOM     23  C   UNL     1      35.076 -16.269 -23.624  0.00  0.00    +0.018 C 
ATOM     24  C   UNL     1      34.937 -15.853 -20.931  0.00  0.00    +0.113 C 
ATOM     25  C   UNL     1      35.579 -17.170 -22.700  0.00  0.00    +0.099 C 
BRANCH  21  26
ATOM     26  C   UNL     1      33.925 -14.119 -24.117  0.00  0.00    +0.022 C 
ATOM     27  C   UNL     1      33.621 -13.606 -26.588  0.00  0.00    -0.002 C 
ATOM     28  C   UNL     1      34.123 -14.627 -25.557  0.00  0.00    +0.004 C 
ATOM     29  C   UNL     1      34.092 -11.730 -24.947  0.00  0.00    -0.065 C 
ATOM     30  C   UNL     1      34.599 -12.749 -23.919  0.00  0.00    -0.017 C 
ATOM     31  C   UNL     1      34.293 -12.241 -26.379  0.00  0.00    -0.022 C 
ATOM     32  C   UNL     1      33.863 -14.114 -28.009  0.00  0.00    -0.000 C 
BRANCH  29  33
ATOM     33  N   UNL     1      34.793 -10.459 -24.772  0.00  0.00    +0.382 N 
ATOM     34  H   UNL     1      34.122  -9.730 -24.534  0.00  0.00    -0.089 HD
ATOM     35  H   UNL     1      35.271 -10.212 -25.639  0.00  0.00    -0.089 HD
ATOM     36  H   UNL     1      35.477 -10.549 -24.021  0.00  0.00    -0.089 HD
ENDBRANCH  29  33
ENDBRANCH  21  26
ENDBRANCH   2  22
TORSDOF 5
ENDMDL
MODEL 5
REMARK VINA RESULT:     -10.3      4.670      8.849
REMARK  Name = 44814409
REMARK  5 active torsions:
REMARK  status: ('A' for Active; 'I' for Inactive)
REMARK    1  A    between atoms: N_2  and  C_22
REMARK    2  A    between atoms: C_3  and  C_7
REMARK    3  A    between atoms: C_9  and  C_14
REMARK    4  A    between atoms: C_21  and  C_26
REMARK    5  A    between atoms: C_29  and  N_33
REMARK                            x       y       z     vdW  Elec       q    Type
REMARK                         _______ _______ _______ _____ _____    ______ ____
ROOT
ATOM      1  O   UNL     1      37.883 -21.025 -17.080  0.00  0.00    -0.267 OA
ATOM      2  N   UNL     1      36.375 -22.692 -17.772  0.00  0.00    -0.278 N 
ATOM      3  C   UNL     1      37.441 -22.168 -17.028  0.00  0.00    +0.275 C 
ATOM      4  H   UNL     1      36.153 -23.636 -17.601  0.00  0.00    +0.155 HD
ENDROOT
BRANCH   3   7
ATOM      5  F   UNL     1      39.664 -25.650 -13.316  0.00  0.00    -0.202 F 
ATOM      6  N   UNL     1      37.444 -23.227 -14.869  0.00  0.00    -0.399 NA
ATOM      7  C   UNL     1      38.068 -23.109 -16.062  0.00  0.00    +0.167 C 
ATOM      8  C   UNL     1      39.219 -23.799 -16.408  0.00  0.00    +0.092 C 
ATOM      9  C   UNL     1      38.003 -24.081 -13.982  0.00  0.00    +0.162 C 
ATOM     10  C   UNL     1      39.763 -24.667 -15.468  0.00  0.00    +0.014 C 
ATOM     11  C   UNL     1      39.150 -24.817 -14.230  0.00  0.00    +0.166 C 
BRANCH   9  14
ATOM     12  F   UNL     1      36.419 -26.302 -13.330  0.00  0.00    -0.204 F 
ATOM     13  F   UNL     1      38.158 -22.068 -12.035  0.00  0.00    -0.204 F 
ATOM     14  C   UNL     1      37.309 -24.182 -12.719  0.00  0.00    +0.087 C 
ATOM     15  C   UNL     1      36.532 -25.306 -12.438  0.00  0.00    +0.145 C 
ATOM     16  C   UNL     1      37.416 -23.155 -11.780  0.00  0.00    +0.145 C 
ATOM     17  C   UNL     1      35.863 -25.403 -11.218  0.00  0.00    +0.030 C 
ATOM     18  C   UNL     1      36.746 -23.252 -10.560  0.00  0.00    +0.030 C 
ATOM     19  C   UNL     1      35.969 -24.377 -10.280  0.00  0.00    +0.005 C 
ENDBRANCH   9  14
ENDBRANCH   3   7
BRANCH   2  22
ATOM     20  N   UNL     1      35.497 -20.569 -20.639  0.00  0.00    -0.241 NA
ATOM     21  C   UNL     1      34.207 -22.179 -18.752  0.00  0.00    -0.006 C 
ATOM     22  C   UNL     1      35.590 -22.042 -18.724  0.00  0.00    +0.066 C 
ATOM     23  C   UNL     1      33.468 -21.511 -19.722  0.00  0.00    +0.018 C 
ATOM     24  C   UNL     1      36.182 -21.233 -19.681  0.00  0.00    +0.113 C 
ATOM     25  C   UNL     1      34.154 -20.726 -20.634  0.00  0.00    +0.099 C 
BRANCH  21  26
ATOM     26  C   UNL     1      33.493 -23.034 -17.755  0.00  0.00    +0.022 C 
ATOM     27  C   UNL     1      31.270 -23.416 -16.581  0.00  0.00    -0.002 C 
ATOM     28  C   UNL     1      32.020 -22.598 -17.643  0.00  0.00    +0.004 C 
ATOM     29  C   UNL     1      33.448 -23.775 -15.331  0.00  0.00    -0.065 C 
ATOM     30  C   UNL     1      34.197 -22.953 -16.388  0.00  0.00    -0.017 C 
ATOM     31  C   UNL     1      31.983 -23.335 -15.224  0.00  0.00    -0.022 C 
ATOM     32  C   UNL     1      29.823 -22.941 -16.460  0.00  0.00    -0.000 C 
BRANCH  29  33
ATOM     33  N   UNL     1      34.105 -23.630 -14.034  0.00  0.00    +0.382 N 
ATOM     34  H   UNL     1      34.577 -24.501 -13.792  0.00  0.00    -0.089 HD
ATOM     35  H   UNL     1      33.408 -23.412 -13.321  0.00  0.00    -0.089 HD
ATOM     36  H   UNL     1      34.789 -22.874 -14.082  0.00  0.00    -0.089 HD
ENDBRANCH  29  33
ENDBRANCH  21  26
ENDBRANCH   2  22
TORSDOF 5
ENDMDL
MODEL 6
REMARK VINA RESULT:     -10.1      4.176     10.296
REMARK  Name = 44814409
REMARK  5 active torsions:
REMARK  status: ('A' for Active; 'I' for Inactive)
REMARK    1  A    between atoms: N_2  and  C_22
REMARK    2  A    between atoms: C_3  and  C_7
REMARK    3  A    between atoms: C_9  and  C_14
REMARK    4  A    between atoms: C_21  and  C_26
REMARK    5  A    between atoms: C_29  and  N_33
REMARK                            x       y       z     vdW  Elec       q    Type
REMARK                         _______ _______ _______ _____ _____    ______ ____
ROOT
ATOM      1  O   UNL     1      35.206 -14.921 -20.641  0.00  0.00    -0.267 OA
ATOM      2  N   UNL     1      33.509 -14.630 -22.242  0.00  0.00    -0.278 N 
ATOM      3  C   UNL     1      34.577 -15.295 -21.626  0.00  0.00    +0.275 C 
ATOM      4  H   UNL     1      33.117 -15.077 -23.028  0.00  0.00    +0.155 HD
ENDROOT
BRANCH   3   7
ATOM      5  F   UNL     1      35.946 -20.242 -23.745  0.00  0.00    -0.202 F 
ATOM      6  N   UNL     1      34.954 -17.658 -21.390  0.00  0.00    -0.399 NA
ATOM      7  C   UNL     1      34.950 -16.600 -22.231  0.00  0.00    +0.167 C 
ATOM      8  C   UNL     1      35.265 -16.679 -23.579  0.00  0.00    +0.092 C 
ATOM      9  C   UNL     1      35.289 -18.852 -21.928  0.00  0.00    +0.162 C 
ATOM     10  C   UNL     1      35.605 -17.925 -24.094  0.00  0.00    +0.014 C 
ATOM     11  C   UNL     1      35.620 -19.037 -23.260  0.00  0.00    +0.166 C 
BRANCH   9  14
ATOM     12  F   UNL     1      37.635 -19.777 -20.701  0.00  0.00    -0.204 F 
ATOM     13  F   UNL     1      32.929 -20.204 -21.245  0.00  0.00    -0.204 F 
ATOM     14  C   UNL     1      35.282 -19.959 -20.999  0.00  0.00    +0.087 C 
ATOM     15  C   UNL     1      36.473 -20.385 -20.414  0.00  0.00    +0.145 C 
ATOM     16  C   UNL     1      34.083 -20.601 -20.689  0.00  0.00    +0.145 C 
ATOM     17  C   UNL     1      36.466 -21.453 -19.516  0.00  0.00    +0.030 C 
ATOM     18  C   UNL     1      34.075 -21.670 -19.793  0.00  0.00    +0.030 C 
ATOM     19  C   UNL     1      35.268 -22.096 -19.207  0.00  0.00    +0.005 C 
ENDBRANCH   9  14
ENDBRANCH   3   7
BRANCH   2  22
ATOM     20  N   UNL     1      31.503 -12.199 -20.353  0.00  0.00    -0.241 NA
ATOM     21  C   UNL     1      33.163 -12.247 -22.602  0.00  0.00    -0.006 C 
ATOM     22  C   UNL     1      32.931 -13.413 -21.881  0.00  0.00    +0.066 C 
ATOM     23  C   UNL     1      32.566 -11.057 -22.200  0.00  0.00    +0.018 C 
ATOM     24  C   UNL     1      32.101 -13.336 -20.774  0.00  0.00    +0.113 C 
ATOM     25  C   UNL     1      31.752 -11.086 -21.079  0.00  0.00    +0.099 C 
BRANCH  21  26
ATOM     26  C   UNL     1      34.047 -12.245 -23.807  0.00  0.00    +0.022 C 
ATOM     27  C   UNL     1      35.365 -10.762 -25.396  0.00  0.00    -0.002 C 
ATOM     28  C   UNL     1      34.504 -10.809 -24.126  0.00  0.00    +0.004 C 
ATOM     29  C   UNL     1      34.173 -12.821 -26.273  0.00  0.00    -0.065 C 
ATOM     30  C   UNL     1      33.308 -12.867 -25.006  0.00  0.00    -0.017 C 
ATOM     31  C   UNL     1      34.623 -11.389 -26.585  0.00  0.00    -0.022 C 
ATOM     32  C   UNL     1      35.774  -9.323 -25.715  0.00  0.00    -0.000 C 
BRANCH  29  33
ATOM     33  N   UNL     1      33.422 -13.363 -27.404  0.00  0.00    +0.382 N 
ATOM     34  H   UNL     1      32.836 -14.134 -27.086  0.00  0.00    -0.089 HD
ATOM     35  H   UNL     1      34.073 -13.702 -28.113  0.00  0.00    -0.089 HD
ATOM     36  H   UNL     1      32.834 -12.632 -27.804  0.00  0.00    -0.089 HD
ENDBRANCH  29  33
ENDBRANCH  21  26
ENDBRANCH   2  22
TORSDOF 5
ENDMDL
MODEL 7
REMARK VINA RESULT:      -9.7      7.185     11.760
REMARK  Name = 44814409
REMARK  5 active torsions:
REMARK  status: ('A' for Active; 'I' for Inactive)
REMARK    1  A    between atoms: N_2  and  C_22
REMARK    2  A    between atoms: C_3  and  C_7
REMARK    3  A    between atoms: C_9  and  C_14
REMARK    4  A    between atoms: C_21  and  C_26
REMARK    5  A    between atoms: C_29  and  N_33
REMARK                            x       y       z     vdW  Elec       q    Type
REMARK                         _______ _______ _______ _____ _____    ______ ____
ROOT
ATOM      1  O   UNL     1      35.547  -9.953 -24.393  0.00  0.00    -0.267 OA
ATOM      2  N   UNL     1      33.282  -9.827 -23.773  0.00  0.00    -0.278 N 
ATOM      3  C   UNL     1      34.421 -10.434 -24.319  0.00  0.00    +0.275 C 
ATOM      4  H   UNL     1      32.455 -10.362 -23.796  0.00  0.00    +0.155 HD
ENDROOT
BRANCH   3   7
ATOM      5  F   UNL     1      33.739 -15.652 -26.093  0.00  0.00    -0.202 F 
ATOM      6  N   UNL     1      34.584 -12.811 -23.991  0.00  0.00    -0.399 NA
ATOM      7  C   UNL     1      34.224 -11.816 -24.832  0.00  0.00    +0.167 C 
ATOM      8  C   UNL     1      33.700 -12.021 -26.098  0.00  0.00    +0.092 C 
ATOM      9  C   UNL     1      34.408 -14.072 -24.444  0.00  0.00    +0.162 C 
ATOM     10  C   UNL     1      33.535 -13.334 -26.528  0.00  0.00    +0.014 C 
ATOM     11  C   UNL     1      33.893 -14.384 -25.691  0.00  0.00    +0.166 C 
BRANCH   9  14
ATOM     12  F   UNL     1      35.587 -16.465 -25.308  0.00  0.00    -0.204 F 
ATOM     13  F   UNL     1      34.041 -13.812 -21.676  0.00  0.00    -0.204 F 
ATOM     14  C   UNL     1      34.803 -15.109 -23.518  0.00  0.00    +0.087 C 
ATOM     15  C   UNL     1      35.386 -16.283 -23.994  0.00  0.00    +0.145 C 
ATOM     16  C   UNL     1      34.601 -14.935 -22.149  0.00  0.00    +0.145 C 
ATOM     17  C   UNL     1      35.768 -17.284 -23.100  0.00  0.00    +0.030 C 
ATOM     18  C   UNL     1      34.982 -15.936 -21.255  0.00  0.00    +0.030 C 
ATOM     19  C   UNL     1      35.565 -17.110 -21.731  0.00  0.00    +0.005 C 
ENDBRANCH   9  14
ENDBRANCH   3   7
BRANCH   2  22
ATOM     20  N   UNL     1      33.752  -6.214 -23.298  0.00  0.00    -0.241 NA
ATOM     21  C   UNL     1      32.441  -8.339 -22.041  0.00  0.00    -0.006 C 
ATOM     22  C   UNL     1      33.175  -8.560 -23.200  0.00  0.00    +0.066 C 
ATOM     23  C   UNL     1      32.362  -7.056 -21.509  0.00  0.00    +0.018 C 
ATOM     24  C   UNL     1      33.806  -7.475 -23.786  0.00  0.00    +0.113 C 
ATOM     25  C   UNL     1      33.029  -6.038 -22.170  0.00  0.00    +0.099 C 
BRANCH  21  26
ATOM     26  C   UNL     1      31.729  -9.457 -21.349  0.00  0.00    +0.022 C 
ATOM     27  C   UNL     1      31.511 -10.718 -19.153  0.00  0.00    -0.002 C 
ATOM     28  C   UNL     1      32.178  -9.540 -19.878  0.00  0.00    +0.004 C 
ATOM     29  C   UNL     1      31.321 -11.959 -21.357  0.00  0.00    -0.065 C 
ATOM     30  C   UNL     1      31.991 -10.785 -22.082  0.00  0.00    -0.017 C 
ATOM     31  C   UNL     1      31.774 -12.037 -19.894  0.00  0.00    -0.022 C 
ATOM     32  C   UNL     1      32.001 -10.805 -17.708  0.00  0.00    -0.000 C 
BRANCH  29  33
ATOM     33  N   UNL     1      31.639 -13.210 -22.042  0.00  0.00    +0.382 N 
ATOM     34  H   UNL     1      32.642 -13.256 -22.218  0.00  0.00    -0.089 HD
ATOM     35  H   UNL     1      31.136 -13.249 -22.929  0.00  0.00    -0.089 HD
ATOM     36  H   UNL     1      31.360 -13.998 -21.458  0.00  0.00    -0.089 HD
ENDBRANCH  29  33
ENDBRANCH  21  26
ENDBRANCH   2  22
TORSDOF 5
ENDMDL
MODEL 8
REMARK VINA RESULT:      -9.2      3.566      9.103
REMARK  Name = 44814409
REMARK  5 active torsions:
REMARK  status: ('A' for Active; 'I' for Inactive)
REMARK    1  A    between atoms: N_2  and  C_22
REMARK    2  A    between atoms: C_3  and  C_7
REMARK    3  A    between atoms: C_9  and  C_14
REMARK    4  A    between atoms: C_21  and  C_26
REMARK    5  A    between atoms: C_29  and  N_33
REMARK                            x       y       z     vdW  Elec       q    Type
REMARK                         _______ _______ _______ _____ _____    ______ ____
ROOT
ATOM      1  O   UNL     1      34.408 -18.448 -25.014  0.00  0.00    -0.267 OA
ATOM      2  N   UNL     1      34.933 -16.298 -24.217  0.00  0.00    -0.278 N 
ATOM      3  C   UNL     1      34.929 -17.700 -24.193  0.00  0.00    +0.275 C 
ATOM      4  H   UNL     1      35.403 -15.856 -23.473  0.00  0.00    +0.155 HD
ENDROOT
BRANCH   3   7
ATOM      5  F   UNL     1      37.536 -20.106 -19.921  0.00  0.00    -0.202 F 
ATOM      6  N   UNL     1      34.969 -19.232 -22.340  0.00  0.00    -0.399 NA
ATOM      7  C   UNL     1      35.662 -18.320 -23.058  0.00  0.00    +0.167 C 
ATOM      8  C   UNL     1      36.971 -17.954 -22.791  0.00  0.00    +0.092 C 
ATOM      9  C   UNL     1      35.624 -19.805 -21.306  0.00  0.00    +0.162 C 
ATOM     10  C   UNL     1      37.611 -18.566 -21.718  0.00  0.00    +0.014 C 
ATOM     11  C   UNL     1      36.931 -19.510 -20.957  0.00  0.00    +0.166 C 
BRANCH   9  14
ATOM     12  F   UNL     1      32.928 -19.381 -20.661  0.00  0.00    -0.204 F 
ATOM     13  F   UNL     1      36.734 -22.224 -20.422  0.00  0.00    -0.204 F 
ATOM     14  C   UNL     1      34.853 -20.775 -20.563  0.00  0.00    +0.087 C 
ATOM     15  C   UNL     1      33.515 -20.521 -20.265  0.00  0.00    +0.145 C 
ATOM     16  C   UNL     1      35.448 -21.965 -20.144  0.00  0.00    +0.145 C 
ATOM     17  C   UNL     1      32.770 -21.458 -19.548  0.00  0.00    +0.030 C 
ATOM     18  C   UNL     1      34.704 -22.902 -19.427  0.00  0.00    +0.030 C 
ATOM     19  C   UNL     1      33.365 -22.647 -19.128  0.00  0.00    +0.005 C 
ENDBRANCH   9  14
ENDBRANCH   3   7
BRANCH   2  22
ATOM     20  N   UNL     1      33.720 -15.094 -27.470  0.00  0.00    -0.241 NA
ATOM     21  C   UNL     1      33.851 -14.204 -24.823  0.00  0.00    -0.006 C 
ATOM     22  C   UNL     1      34.355 -15.453 -25.165  0.00  0.00    +0.066 C 
ATOM     23  C   UNL     1      33.282 -13.398 -25.803  0.00  0.00    +0.018 C 
ATOM     24  C   UNL     1      34.266 -15.849 -26.489  0.00  0.00    +0.113 C 
ATOM     25  C   UNL     1      33.241 -13.885 -27.099  0.00  0.00    +0.099 C 
BRANCH  21  26
ATOM     26  C   UNL     1      33.908 -13.703 -23.415  0.00  0.00    +0.022 C 
ATOM     27  C   UNL     1      34.306 -14.384 -20.998  0.00  0.00    -0.002 C 
ATOM     28  C   UNL     1      34.298 -14.848 -22.462  0.00  0.00    +0.004 C 
ATOM     29  C   UNL     1      32.565 -12.626 -21.555  0.00  0.00    -0.065 C 
ATOM     30  C   UNL     1      32.552 -13.092 -23.016  0.00  0.00    -0.017 C 
ATOM     31  C   UNL     1      32.953 -13.770 -20.611  0.00  0.00    -0.022 C 
ATOM     32  C   UNL     1      34.658 -15.545 -20.068  0.00  0.00    -0.000 C 
BRANCH  29  33
ATOM     33  N   UNL     1      31.248 -12.107 -21.190  0.00  0.00    +0.382 N 
ATOM     34  H   UNL     1      30.549 -12.841 -21.305  0.00  0.00    -0.089 HD
ATOM     35  H   UNL     1      31.014 -11.318 -21.793  0.00  0.00    -0.089 HD
ATOM     36  H   UNL     1      31.260 -11.800 -20.218  0.00  0.00    -0.089 HD
ENDBRANCH  29  33
ENDBRANCH  21  26
ENDBRANCH   2  22
TORSDOF 5
ENDMDL
MODEL 9
REMARK VINA RESULT:      -9.0      2.146      3.041
REMARK  Name = 44814409
REMARK  5 active torsions:
REMARK  status: ('A' for Active; 'I' for Inactive)
REMARK    1  A    between atoms: N_2  and  C_22
REMARK    2  A    between atoms: C_3  and  C_7
REMARK    3  A    between atoms: C_9  and  C_14
REMARK    4  A    between atoms: C_21  and  C_26
REMARK    5  A    between atoms: C_29  and  N_33
REMARK                            x       y       z     vdW  Elec       q    Type
REMARK                         _______ _______ _______ _____ _____    ______ ____
ROOT
ATOM      1  O   UNL     1      34.028 -24.021 -18.791  0.00  0.00    -0.267 OA
ATOM      2  N   UNL     1      33.881 -22.922 -16.718  0.00  0.00    -0.278 N 
ATOM      3  C   UNL     1      34.359 -23.128 -18.019  0.00  0.00    +0.275 C 
ATOM      4  H   UNL     1      34.259 -22.150 -16.237  0.00  0.00    +0.155 HD
ENDROOT
BRANCH   3   7
ATOM      5  F   UNL     1      37.973 -19.375 -19.942  0.00  0.00    -0.202 F 
ATOM      6  N   UNL     1      35.069 -21.544 -19.684  0.00  0.00    -0.399 NA
ATOM      7  C   UNL     1      35.352 -22.130 -18.499  0.00  0.00    +0.167 C 
ATOM      8  C   UNL     1      36.481 -21.851 -17.745  0.00  0.00    +0.092 C 
ATOM      9  C   UNL     1      35.962 -20.634 -20.131  0.00  0.00    +0.162 C 
ATOM     10  C   UNL     1      37.376 -20.909 -18.240  0.00  0.00    +0.014 C 
ATOM     11  C   UNL     1      37.119 -20.284 -19.455  0.00  0.00    +0.166 C 
BRANCH   9  14
ATOM     12  F   UNL     1      33.322 -20.514 -21.068  0.00  0.00    -0.204 F 
ATOM     13  F   UNL     1      37.912 -19.508 -21.803  0.00  0.00    -0.204 F 
ATOM     14  C   UNL     1      35.626 -20.028 -21.399  0.00  0.00    +0.087 C 
ATOM     15  C   UNL     1      34.299 -19.991 -21.825  0.00  0.00    +0.145 C 
ATOM     16  C   UNL     1      36.631 -19.480 -22.197  0.00  0.00    +0.145 C 
ATOM     17  C   UNL     1      33.975 -19.406 -23.049  0.00  0.00    +0.030 C 
ATOM     18  C   UNL     1      36.308 -18.895 -23.422  0.00  0.00    +0.030 C 
ATOM     19  C   UNL     1      34.979 -18.859 -23.847  0.00  0.00    +0.005 C 
ENDBRANCH   9  14
ENDBRANCH   3   7
BRANCH   2  22
ATOM     20  N   UNL     1      30.653 -24.454 -15.862  0.00  0.00    -0.241 NA
ATOM     21  C   UNL     1      33.263 -24.372 -14.863  0.00  0.00    -0.006 C 
ATOM     22  C   UNL     1      32.937 -23.674 -16.020  0.00  0.00    +0.066 C 
ATOM     23  C   UNL     1      32.287 -25.111 -14.204  0.00  0.00    +0.018 C 
ATOM     24  C   UNL     1      31.630 -23.747 -16.475  0.00  0.00    +0.113 C 
ATOM     25  C   UNL     1      31.009 -25.119 -14.740  0.00  0.00    +0.099 C 
BRANCH  21  26
ATOM     26  C   UNL     1      34.651 -24.346 -14.309  0.00  0.00    +0.022 C 
ATOM     27  C   UNL     1      36.884 -25.562 -14.278  0.00  0.00    -0.002 C 
ATOM     28  C   UNL     1      35.470 -25.522 -14.875  0.00  0.00    +0.004 C 
ATOM     29  C   UNL     1      36.022 -24.432 -12.177  0.00  0.00    -0.065 C 
ATOM     30  C   UNL     1      34.607 -24.396 -12.771  0.00  0.00    -0.017 C 
ATOM     31  C   UNL     1      36.830 -25.605 -12.744  0.00  0.00    -0.022 C 
ATOM     32  C   UNL     1      37.664 -26.758 -14.824  0.00  0.00    -0.000 C 
BRANCH  29  33
ATOM     33  N   UNL     1      35.945 -24.540 -10.722  0.00  0.00    +0.382 N 
ATOM     34  H   UNL     1      36.872 -24.737 -10.345  0.00  0.00    -0.089 HD
ATOM     35  H   UNL     1      35.309 -25.297 -10.470  0.00  0.00    -0.089 HD
ATOM     36  H   UNL     1      35.599 -23.663 -10.333  0.00  0.00    -0.089 HD
ENDBRANCH  29  33
ENDBRANCH  21  26
ENDBRANCH   2  22
TORSDOF 5
ENDMDL
