MODEL 1
REMARK VINA RESULT:     -11.4      0.000      0.000
REMARK  Name = 9890801
REMARK  11 active torsions:
REMARK  status: ('A' for Active; 'I' for Inactive)
REMARK    1  A    between atoms: N_1  and  S_2
REMARK    2  A    between atoms: N_1  and  C_11
REMARK    3  A    between atoms: N_1  and  C_22
REMARK    4  A    between atoms: S_2  and  C_6
REMARK    5  A    between atoms: C_11  and  C_13
REMARK    6  A    between atoms: C_12  and  C_18
REMARK    7  A    between atoms: C_22  and  C_23
REMARK    8  A    between atoms: C_26  and  O_29
REMARK    9  A    between atoms: O_29  and  C_30
REMARK   10  A    between atoms: C_30  and  C_32
REMARK   11  A    between atoms: C_32  and  O_33
REMARK                            x       y       z     vdW  Elec       q    Type
REMARK                         _______ _______ _______ _____ _____    ______ ____
ROOT
ATOM      1  N   UNL     1      34.674 -23.158 -16.306  0.00  0.00    -0.147 NA
ENDROOT
BRANCH   1   2
ATOM      2  S   UNL     1      35.936 -24.234 -15.832  0.00  0.00    +0.065 S 
ATOM      3  O   UNL     1      37.206 -23.740 -16.333  0.00  0.00    -0.153 OA
ATOM      4  O   UNL     1      35.539 -25.601 -16.118  0.00  0.00    -0.153 OA
BRANCH   2   6
ATOM      5  N   UNL     1      34.958 -24.554 -11.929  0.00  0.00    -0.241 NA
ATOM      6  C   UNL     1      35.960 -24.051 -14.070  0.00  0.00    +0.141 C 
ATOM      7  C   UNL     1      36.945 -23.298 -13.441  0.00  0.00    +0.023 C 
ATOM      8  C   UNL     1      34.998 -24.654 -13.276  0.00  0.00    +0.119 C 
ATOM      9  C   UNL     1      36.938 -23.172 -12.056  0.00  0.00    +0.022 C 
ATOM     10  C   UNL     1      35.931 -23.815 -11.352  0.00  0.00    +0.099 C 
ENDBRANCH   2   6
ENDBRANCH   1   2
BRANCH   1  11
ATOM     11  C   UNL     1      34.036 -23.378 -17.628  0.00  0.00    +0.122 C 
BRANCH  11  13
ATOM     12  C   UNL     1      35.265 -20.502 -20.551  0.00  0.00    -0.023 C 
ATOM     13  C   UNL     1      34.465 -22.376 -18.646  0.00  0.00    -0.004 C 
ATOM     14  C   UNL     1      33.913 -20.808 -20.399  0.00  0.00    -0.005 C 
ATOM     15  C   UNL     1      36.218 -21.132 -19.750  0.00  0.00    -0.005 C 
ATOM     16  C   UNL     1      33.513 -21.745 -19.448  0.00  0.00    -0.003 C 
ATOM     17  C   UNL     1      35.817 -22.070 -18.797  0.00  0.00    -0.003 C 
BRANCH  12  18
ATOM     18  C   UNL     1      35.707 -19.470 -21.602  0.00  0.00    +0.019 C 
ATOM     19  C   UNL     1      35.227 -19.914 -23.000  0.00  0.00    +0.004 C 
ATOM     20  C   UNL     1      37.247 -19.360 -21.605  0.00  0.00    +0.004 C 
ATOM     21  C   UNL     1      35.149 -18.050 -21.357  0.00  0.00    +0.004 C 
ENDBRANCH  12  18
ENDBRANCH  11  13
ENDBRANCH   1  11
BRANCH   1  22
ATOM     22  C   UNL     1      33.688 -22.752 -15.272  0.00  0.00    +0.123 C 
BRANCH  22  23
ATOM     23  C   UNL     1      32.327 -23.336 -15.523  0.00  0.00    -0.001 C 
ATOM     24  C   UNL     1      31.392 -22.629 -16.279  0.00  0.00    +0.034 C 
ATOM     25  C   UNL     1      31.998 -24.586 -14.998  0.00  0.00    -0.003 C 
ATOM     26  C   UNL     1      30.128 -23.172 -16.511  0.00  0.00    +0.139 C 
ATOM     27  C   UNL     1      30.733 -25.128 -15.230  0.00  0.00    +0.003 C 
ATOM     28  C   UNL     1      29.798 -24.422 -15.986  0.00  0.00    +0.037 C 
BRANCH  26  29
ATOM     29  O   UNL     1      29.215 -22.482 -17.248  0.00  0.00    -0.464 OA
BRANCH  29  30
ATOM     30  C   UNL     1      27.918 -23.063 -17.382  0.00  0.00    +0.314 C 
BRANCH  30  32
ATOM     31  O   UNL     1      26.738 -21.000 -17.888  0.00  0.00    -0.246 OA
ATOM     32  C   UNL     1      26.865 -22.004 -17.204  0.00  0.00    +0.359 C 
BRANCH  32  33
ATOM     33  O   UNL     1      26.057 -22.319 -16.160  0.00  0.00    -0.478 OA
ATOM     34  H   UNL     1      26.395 -22.806 -15.435  0.00  0.00    +0.295 HD
ENDBRANCH  32  33
ENDBRANCH  30  32
ENDBRANCH  29  30
ENDBRANCH  26  29
ENDBRANCH  22  23
ENDBRANCH   1  22
TORSDOF 11
ENDMDL
MODEL 2
REMARK VINA RESULT:     -11.2      0.595      1.544
REMARK  Name = 9890801
REMARK  11 active torsions:
REMARK  status: ('A' for Active; 'I' for Inactive)
REMARK    1  A    between atoms: N_1  and  S_2
REMARK    2  A    between atoms: N_1  and  C_11
REMARK    3  A    between atoms: N_1  and  C_22
REMARK    4  A    between atoms: S_2  and  C_6
REMARK    5  A    between atoms: C_11  and  C_13
REMARK    6  A    between atoms: C_12  and  C_18
REMARK    7  A    between atoms: C_22  and  C_23
REMARK    8  A    between atoms: C_26  and  O_29
REMARK    9  A    between atoms: O_29  and  C_30
REMARK   10  A    between atoms: C_30  and  C_32
REMARK   11  A    between atoms: C_32  and  O_33
REMARK                            x       y       z     vdW  Elec       q    Type
REMARK                         _______ _______ _______ _____ _____    ______ ____
ROOT
ATOM      1  N   UNL     1      34.894 -23.120 -16.280  0.00  0.00    -0.147 NA
ENDROOT
BRANCH   1   2
ATOM      2  S   UNL     1      36.167 -24.187 -15.814  0.00  0.00    +0.065 S 
ATOM      3  O   UNL     1      37.424 -23.706 -16.358  0.00  0.00    -0.153 OA
ATOM      4  O   UNL     1      35.761 -25.559 -16.058  0.00  0.00    -0.153 OA
BRANCH   2   6
ATOM      5  N   UNL     1      37.220 -22.842 -12.156  0.00  0.00    -0.241 NA
ATOM      6  C   UNL     1      36.235 -23.963 -14.058  0.00  0.00    +0.141 C 
ATOM      7  C   UNL     1      35.406 -24.690 -13.210  0.00  0.00    +0.023 C 
ATOM      8  C   UNL     1      37.117 -23.060 -13.486  0.00  0.00    +0.119 C 
ATOM      9  C   UNL     1      35.483 -24.493 -11.835  0.00  0.00    +0.022 C 
ATOM     10  C   UNL     1      36.398 -23.566 -11.364  0.00  0.00    +0.099 C 
ENDBRANCH   2   6
ENDBRANCH   1   2
BRANCH   1  11
ATOM     11  C   UNL     1      34.224 -23.367 -17.581  0.00  0.00    +0.122 C 
BRANCH  11  13
ATOM     12  C   UNL     1      35.313 -20.503 -20.570  0.00  0.00    -0.023 C 
ATOM     13  C   UNL     1      34.603 -22.369 -18.622  0.00  0.00    -0.004 C 
ATOM     14  C   UNL     1      36.299 -21.103 -19.787  0.00  0.00    -0.005 C 
ATOM     15  C   UNL     1      33.972 -20.836 -20.380  0.00  0.00    -0.005 C 
ATOM     16  C   UNL     1      35.944 -22.035 -18.813  0.00  0.00    -0.003 C 
ATOM     17  C   UNL     1      33.617 -21.770 -19.405  0.00  0.00    -0.003 C 
BRANCH  12  18
ATOM     18  C   UNL     1      35.704 -19.472 -21.643  0.00  0.00    +0.019 C 
ATOM     19  C   UNL     1      37.234 -19.273 -21.639  0.00  0.00    +0.004 C 
ATOM     20  C   UNL     1      35.015 -18.124 -21.342  0.00  0.00    +0.004 C 
ATOM     21  C   UNL     1      35.299 -19.881 -23.077  0.00  0.00    +0.004 C 
ENDBRANCH  12  18
ENDBRANCH  11  13
ENDBRANCH   1  11
BRANCH   1  22
ATOM     22  C   UNL     1      33.934 -22.689 -15.232  0.00  0.00    +0.123 C 
BRANCH  22  23
ATOM     23  C   UNL     1      32.575 -23.301 -15.418  0.00  0.00    -0.001 C 
ATOM     24  C   UNL     1      31.641 -22.686 -16.252  0.00  0.00    +0.034 C 
ATOM     25  C   UNL     1      32.248 -24.485 -14.757  0.00  0.00    -0.003 C 
ATOM     26  C   UNL     1      30.379 -23.255 -16.424  0.00  0.00    +0.139 C 
ATOM     27  C   UNL     1      30.985 -25.054 -14.929  0.00  0.00    +0.003 C 
ATOM     28  C   UNL     1      30.051 -24.439 -15.763  0.00  0.00    +0.037 C 
BRANCH  26  29
ATOM     29  O   UNL     1      29.466 -22.655 -17.235  0.00  0.00    -0.464 OA
BRANCH  29  30
ATOM     30  C   UNL     1      28.183 -23.274 -17.338  0.00  0.00    +0.314 C 
BRANCH  30  32
ATOM     31  O   UNL     1      26.468 -22.464 -15.819  0.00  0.00    -0.246 OA
ATOM     32  C   UNL     1      27.122 -22.330 -16.842  0.00  0.00    +0.359 C 
BRANCH  32  33
ATOM     33  O   UNL     1      26.987 -21.287 -17.699  0.00  0.00    -0.478 OA
ATOM     34  H   UNL     1      26.449 -21.372 -18.461  0.00  0.00    +0.295 HD
ENDBRANCH  32  33
ENDBRANCH  30  32
ENDBRANCH  29  30
ENDBRANCH  26  29
ENDBRANCH  22  23
ENDBRANCH   1  22
TORSDOF 11
ENDMDL
MODEL 3
REMARK VINA RESULT:     -10.5      1.821      2.172
REMARK  Name = 9890801
REMARK  11 active torsions:
REMARK  status: ('A' for Active; 'I' for Inactive)
REMARK    1  A    between atoms: N_1  and  S_2
REMARK    2  A    between atoms: N_1  and  C_11
REMARK    3  A    between atoms: N_1  and  C_22
REMARK    4  A    between atoms: S_2  and  C_6
REMARK    5  A    between atoms: C_11  and  C_13
REMARK    6  A    between atoms: C_12  and  C_18
REMARK    7  A    between atoms: C_22  and  C_23
REMARK    8  A    between atoms: C_26  and  O_29
REMARK    9  A    between atoms: O_29  and  C_30
REMARK   10  A    between atoms: C_30  and  C_32
REMARK   11  A    between atoms: C_32  and  O_33
REMARK                            x       y       z     vdW  Elec       q    Type
REMARK                         _______ _______ _______ _____ _____    ______ ____
ROOT
ATOM      1  N   UNL     1      33.697 -23.037 -16.580  0.00  0.00    -0.147 NA
ENDROOT
BRANCH   1   2
ATOM      2  S   UNL     1      34.640 -24.127 -15.631  0.00  0.00    +0.065 S 
ATOM      3  O   UNL     1      34.585 -25.452 -16.220  0.00  0.00    -0.153 OA
ATOM      4  O   UNL     1      34.310 -23.955 -14.228  0.00  0.00    -0.153 OA
BRANCH   2   6
ATOM      5  N   UNL     1      38.668 -23.866 -15.636  0.00  0.00    -0.241 NA
ATOM      6  C   UNL     1      36.287 -23.517 -15.862  0.00  0.00    +0.141 C 
ATOM      7  C   UNL     1      36.515 -22.266 -16.424  0.00  0.00    +0.023 C 
ATOM      8  C   UNL     1      37.387 -24.272 -15.488  0.00  0.00    +0.119 C 
ATOM      9  C   UNL     1      37.820 -21.814 -16.593  0.00  0.00    +0.022 C 
ATOM     10  C   UNL     1      38.851 -22.645 -16.186  0.00  0.00    +0.099 C 
ENDBRANCH   2   6
ENDBRANCH   1   2
BRANCH   1  11
ATOM     11  C   UNL     1      33.447 -23.393 -17.998  0.00  0.00    +0.122 C 
BRANCH  11  13
ATOM     12  C   UNL     1      34.973 -20.468 -20.726  0.00  0.00    -0.023 C 
ATOM     13  C   UNL     1      33.979 -22.374 -18.949  0.00  0.00    -0.004 C 
ATOM     14  C   UNL     1      33.600 -20.557 -20.496  0.00  0.00    -0.005 C 
ATOM     15  C   UNL     1      35.849 -21.332 -20.069  0.00  0.00    -0.005 C 
ATOM     16  C   UNL     1      33.103 -21.510 -19.607  0.00  0.00    -0.003 C 
ATOM     17  C   UNL     1      35.352 -22.285 -19.179  0.00  0.00    -0.003 C 
BRANCH  12  18
ATOM     18  C   UNL     1      35.522 -19.418 -21.708  0.00  0.00    +0.019 C 
ATOM     19  C   UNL     1      35.100 -19.784 -23.148  0.00  0.00    +0.004 C 
ATOM     20  C   UNL     1      37.062 -19.384 -21.623  0.00  0.00    +0.004 C 
ATOM     21  C   UNL     1      35.017 -17.984 -21.434  0.00  0.00    +0.004 C 
ENDBRANCH  12  18
ENDBRANCH  11  13
ENDBRANCH   1  11
BRANCH   1  22
ATOM     22  C   UNL     1      32.508 -22.416 -15.942  0.00  0.00    +0.123 C 
BRANCH  22  23
ATOM     23  C   UNL     1      31.296 -23.300 -16.017  0.00  0.00    -0.001 C 
ATOM     24  C   UNL     1      30.189 -22.905 -16.768  0.00  0.00    +0.034 C 
ATOM     25  C   UNL     1      31.277 -24.516 -15.333  0.00  0.00    -0.003 C 
ATOM     26  C   UNL     1      29.064 -23.726 -16.836  0.00  0.00    +0.139 C 
ATOM     27  C   UNL     1      30.150 -25.336 -15.401  0.00  0.00    +0.003 C 
ATOM     28  C   UNL     1      29.044 -24.941 -16.153  0.00  0.00    +0.037 C 
BRANCH  26  29
ATOM     29  O   UNL     1      27.982 -23.340 -17.568  0.00  0.00    -0.464 OA
BRANCH  29  30
ATOM     30  C   UNL     1      27.220 -22.240 -17.071  0.00  0.00    +0.314 C 
BRANCH  30  32
ATOM     31  O   UNL     1      26.051 -22.192 -19.200  0.00  0.00    -0.246 OA
ATOM     32  C   UNL     1      26.433 -21.619 -18.191  0.00  0.00    +0.359 C 
BRANCH  32  33
ATOM     33  O   UNL     1      26.197 -20.310 -17.925  0.00  0.00    -0.478 OA
ATOM     34  H   UNL     1      26.669 -19.876 -17.242  0.00  0.00    +0.295 HD
ENDBRANCH  32  33
ENDBRANCH  30  32
ENDBRANCH  29  30
ENDBRANCH  26  29
ENDBRANCH  22  23
ENDBRANCH   1  22
TORSDOF 11
ENDMDL
MODEL 4
REMARK VINA RESULT:      -9.9      2.174      2.908
REMARK  Name = 9890801
REMARK  11 active torsions:
REMARK  status: ('A' for Active; 'I' for Inactive)
REMARK    1  A    between atoms: N_1  and  S_2
REMARK    2  A    between atoms: N_1  and  C_11
REMARK    3  A    between atoms: N_1  and  C_22
REMARK    4  A    between atoms: S_2  and  C_6
REMARK    5  A    between atoms: C_11  and  C_13
REMARK    6  A    between atoms: C_12  and  C_18
REMARK    7  A    between atoms: C_22  and  C_23
REMARK    8  A    between atoms: C_26  and  O_29
REMARK    9  A    between atoms: O_29  and  C_30
REMARK   10  A    between atoms: C_30  and  C_32
REMARK   11  A    between atoms: C_32  and  O_33
REMARK                            x       y       z     vdW  Elec       q    Type
REMARK                         _______ _______ _______ _____ _____    ______ ____
ROOT
ATOM      1  N   UNL     1      34.566 -23.800 -13.592  0.00  0.00    -0.147 NA
ENDROOT
BRANCH   1   2
ATOM      2  S   UNL     1      35.735 -24.315 -12.433  0.00  0.00    +0.065 S 
ATOM      3  O   UNL     1      35.166 -25.362 -11.604  0.00  0.00    -0.153 OA
ATOM      4  O   UNL     1      36.335 -23.153 -11.802  0.00  0.00    -0.153 OA
BRANCH   2   6
ATOM      5  N   UNL     1      37.991 -27.077 -14.324  0.00  0.00    -0.241 NA
ATOM      6  C   UNL     1      36.980 -25.065 -13.445  0.00  0.00    +0.141 C 
ATOM      7  C   UNL     1      37.902 -24.289 -14.139  0.00  0.00    +0.023 C 
ATOM      8  C   UNL     1      37.066 -26.442 -13.570  0.00  0.00    +0.119 C 
ATOM      9  C   UNL     1      38.869 -24.906 -14.927  0.00  0.00    +0.022 C 
ATOM     10  C   UNL     1      38.870 -26.291 -14.985  0.00  0.00    +0.099 C 
ENDBRANCH   2   6
ENDBRANCH   1   2
BRANCH   1  11
ATOM     11  C   UNL     1      34.368 -24.643 -14.797  0.00  0.00    +0.122 C 
BRANCH  11  13
ATOM     12  C   UNL     1      34.996 -22.487 -18.441  0.00  0.00    -0.023 C 
ATOM     13  C   UNL     1      34.587 -23.893 -16.066  0.00  0.00    -0.004 C 
ATOM     14  C   UNL     1      33.837 -23.245 -18.270  0.00  0.00    -0.005 C 
ATOM     15  C   UNL     1      35.951 -22.433 -17.426  0.00  0.00    -0.005 C 
ATOM     16  C   UNL     1      33.633 -23.947 -17.083  0.00  0.00    -0.003 C 
ATOM     17  C   UNL     1      35.746 -23.135 -16.237  0.00  0.00    -0.003 C 
BRANCH  12  18
ATOM     18  C   UNL     1      35.223 -21.714 -19.752  0.00  0.00    +0.019 C 
ATOM     19  C   UNL     1      35.467 -22.709 -20.906  0.00  0.00    +0.004 C 
ATOM     20  C   UNL     1      36.454 -20.795 -19.604  0.00  0.00    +0.004 C 
ATOM     21  C   UNL     1      34.032 -20.820 -20.163  0.00  0.00    +0.004 C 
ENDBRANCH  12  18
ENDBRANCH  11  13
ENDBRANCH   1  11
BRANCH   1  22
ATOM     22  C   UNL     1      33.285 -23.246 -13.083  0.00  0.00    +0.123 C 
BRANCH  22  23
ATOM     23  C   UNL     1      32.099 -23.753 -13.853  0.00  0.00    -0.001 C 
ATOM     24  C   UNL     1      31.293 -22.862 -14.560  0.00  0.00    +0.034 C 
ATOM     25  C   UNL     1      31.805 -25.117 -13.860  0.00  0.00    -0.003 C 
ATOM     26  C   UNL     1      30.192 -23.333 -15.274  0.00  0.00    +0.139 C 
ATOM     27  C   UNL     1      30.702 -25.588 -14.575  0.00  0.00    +0.003 C 
ATOM     28  C   UNL     1      29.896 -24.696 -15.282  0.00  0.00    +0.037 C 
BRANCH  26  29
ATOM     29  O   UNL     1      29.403 -22.464 -15.963  0.00  0.00    -0.464 OA
BRANCH  29  30
ATOM     30  C   UNL     1      28.001 -22.732 -15.979  0.00  0.00    +0.314 C 
BRANCH  30  32
ATOM     31  O   UNL     1      26.936 -21.340 -17.662  0.00  0.00    -0.246 OA
ATOM     32  C   UNL     1      27.436 -22.405 -17.334  0.00  0.00    +0.359 C 
BRANCH  32  33
ATOM     33  O   UNL     1      27.560 -23.473 -18.162  0.00  0.00    -0.478 OA
ATOM     34  H   UNL     1      28.179 -24.148 -17.967  0.00  0.00    +0.295 HD
ENDBRANCH  32  33
ENDBRANCH  30  32
ENDBRANCH  29  30
ENDBRANCH  26  29
ENDBRANCH  22  23
ENDBRANCH   1  22
TORSDOF 11
ENDMDL
MODEL 5
REMARK VINA RESULT:      -9.9      3.007      6.820
REMARK  Name = 9890801
REMARK  11 active torsions:
REMARK  status: ('A' for Active; 'I' for Inactive)
REMARK    1  A    between atoms: N_1  and  S_2
REMARK    2  A    between atoms: N_1  and  C_11
REMARK    3  A    between atoms: N_1  and  C_22
REMARK    4  A    between atoms: S_2  and  C_6
REMARK    5  A    between atoms: C_11  and  C_13
REMARK    6  A    between atoms: C_12  and  C_18
REMARK    7  A    between atoms: C_22  and  C_23
REMARK    8  A    between atoms: C_26  and  O_29
REMARK    9  A    between atoms: O_29  and  C_30
REMARK   10  A    between atoms: C_30  and  C_32
REMARK   11  A    between atoms: C_32  and  O_33
REMARK                            x       y       z     vdW  Elec       q    Type
REMARK                         _______ _______ _______ _____ _____    ______ ____
ROOT
ATOM      1  N   UNL     1      35.929 -23.418 -16.090  0.00  0.00    -0.147 NA
ENDROOT
BRANCH   1   2
ATOM      2  S   UNL     1      36.446 -24.909 -15.391  0.00  0.00    +0.065 S 
ATOM      3  O   UNL     1      37.825 -25.165 -15.765  0.00  0.00    -0.153 OA
ATOM      4  O   UNL     1      35.440 -25.928 -15.628  0.00  0.00    -0.153 OA
BRANCH   2   6
ATOM      5  N   UNL     1      35.465 -24.939 -11.476  0.00  0.00    -0.241 NA
ATOM      6  C   UNL     1      36.430 -24.549 -13.657  0.00  0.00    +0.141 C 
ATOM      7  C   UNL     1      37.322 -23.634 -13.107  0.00  0.00    +0.023 C 
ATOM      8  C   UNL     1      35.530 -25.169 -12.806  0.00  0.00    +0.119 C 
ATOM      9  C   UNL     1      37.287 -23.372 -11.741  0.00  0.00    +0.022 C 
ATOM     10  C   UNL     1      36.347 -24.045 -10.976  0.00  0.00    +0.099 C 
ENDBRANCH   2   6
ENDBRANCH   1   2
BRANCH   1  11
ATOM     11  C   UNL     1      35.034 -22.550 -15.286  0.00  0.00    +0.122 C 
BRANCH  11  13
ATOM     12  C   UNL     1      30.914 -23.660 -15.621  0.00  0.00    -0.023 C 
ATOM     13  C   UNL     1      33.599 -22.937 -15.403  0.00  0.00    -0.004 C 
ATOM     14  C   UNL     1      31.522 -23.609 -14.367  0.00  0.00    -0.005 C 
ATOM     15  C   UNL     1      31.648 -23.351 -16.767  0.00  0.00    -0.005 C 
ATOM     16  C   UNL     1      32.864 -23.247 -14.258  0.00  0.00    -0.003 C 
ATOM     17  C   UNL     1      32.991 -22.989 -16.657  0.00  0.00    -0.003 C 
BRANCH  12  18
ATOM     18  C   UNL     1      29.434 -24.062 -15.743  0.00  0.00    +0.019 C 
ATOM     19  C   UNL     1      28.538 -22.862 -15.367  0.00  0.00    +0.004 C 
ATOM     20  C   UNL     1      29.136 -25.238 -14.788  0.00  0.00    +0.004 C 
ATOM     21  C   UNL     1      29.024 -24.511 -17.163  0.00  0.00    +0.004 C 
ENDBRANCH  12  18
ENDBRANCH  11  13
ENDBRANCH   1  11
BRANCH   1  22
ATOM     22  C   UNL     1      36.928 -22.631 -16.857  0.00  0.00    +0.123 C 
BRANCH  22  23
ATOM     23  C   UNL     1      36.356 -22.068 -18.127  0.00  0.00    -0.001 C 
ATOM     24  C   UNL     1      37.013 -21.031 -18.789  0.00  0.00    +0.034 C 
ATOM     25  C   UNL     1      35.167 -22.583 -18.643  0.00  0.00    -0.003 C 
ATOM     26  C   UNL     1      36.482 -20.509 -19.967  0.00  0.00    +0.139 C 
ATOM     27  C   UNL     1      34.635 -22.059 -19.823  0.00  0.00    +0.003 C 
ATOM     28  C   UNL     1      35.292 -21.022 -20.485  0.00  0.00    +0.037 C 
BRANCH  26  29
ATOM     29  O   UNL     1      37.121 -19.495 -20.613  0.00  0.00    -0.464 OA
BRANCH  29  30
ATOM     30  C   UNL     1      36.737 -19.243 -21.965  0.00  0.00    +0.314 C 
BRANCH  30  32
ATOM     31  O   UNL     1      35.521 -17.295 -21.172  0.00  0.00    -0.246 OA
ATOM     32  C   UNL     1      36.106 -17.882 -22.068  0.00  0.00    +0.359 C 
BRANCH  32  33
ATOM     33  O   UNL     1      36.280 -17.381 -23.317  0.00  0.00    -0.478 OA
ATOM     34  H   UNL     1      35.752 -16.666 -23.614  0.00  0.00    +0.295 HD
ENDBRANCH  32  33
ENDBRANCH  30  32
ENDBRANCH  29  30
ENDBRANCH  26  29
ENDBRANCH  22  23
ENDBRANCH   1  22
TORSDOF 11
ENDMDL
MODEL 6
REMARK VINA RESULT:      -9.8      2.567      6.499
REMARK  Name = 9890801
REMARK  11 active torsions:
REMARK  status: ('A' for Active; 'I' for Inactive)
REMARK    1  A    between atoms: N_1  and  S_2
REMARK    2  A    between atoms: N_1  and  C_11
REMARK    3  A    between atoms: N_1  and  C_22
REMARK    4  A    between atoms: S_2  and  C_6
REMARK    5  A    between atoms: C_11  and  C_13
REMARK    6  A    between atoms: C_12  and  C_18
REMARK    7  A    between atoms: C_22  and  C_23
REMARK    8  A    between atoms: C_26  and  O_29
REMARK    9  A    between atoms: O_29  and  C_30
REMARK   10  A    between atoms: C_30  and  C_32
REMARK   11  A    between atoms: C_32  and  O_33
REMARK                            x       y       z     vdW  Elec       q    Type
REMARK                         _______ _______ _______ _____ _____    ______ ____
ROOT
ATOM      1  N   UNL     1      33.673 -23.453 -16.702  0.00  0.00    -0.147 NA
ENDROOT
BRANCH   1   2
ATOM      2  S   UNL     1      32.647 -23.659 -15.331  0.00  0.00    +0.065 S 
ATOM      3  O   UNL     1      32.754 -22.497 -14.468  0.00  0.00    -0.153 OA
ATOM      4  O   UNL     1      32.847 -24.984 -14.772  0.00  0.00    -0.153 OA
BRANCH   2   6
ATOM      5  N   UNL     1      29.288 -22.380 -17.169  0.00  0.00    -0.241 NA
ATOM      6  C   UNL     1      31.029 -23.631 -16.051  0.00  0.00    +0.141 C 
ATOM      7  C   UNL     1      30.236 -24.773 -16.076  0.00  0.00    +0.023 C 
ATOM      8  C   UNL     1      30.513 -22.470 -16.606  0.00  0.00    +0.119 C 
ATOM      9  C   UNL     1      28.969 -24.720 -16.648  0.00  0.00    +0.022 C 
ATOM     10  C   UNL     1      28.546 -23.510 -17.176  0.00  0.00    +0.099 C 
ENDBRANCH   2   6
ENDBRANCH   1   2
BRANCH   1  11
ATOM     11  C   UNL     1      33.040 -23.429 -18.043  0.00  0.00    +0.122 C 
BRANCH  11  13
ATOM     12  C   UNL     1      34.858 -20.584 -20.675  0.00  0.00    -0.023 C 
ATOM     13  C   UNL     1      33.674 -22.438 -18.960  0.00  0.00    -0.004 C 
ATOM     14  C   UNL     1      33.503 -20.477 -20.362  0.00  0.00    -0.005 C 
ATOM     15  C   UNL     1      35.621 -21.617 -20.132  0.00  0.00    -0.005 C 
ATOM     16  C   UNL     1      32.911 -21.404 -19.505  0.00  0.00    -0.003 C 
ATOM     17  C   UNL     1      35.029 -22.545 -19.274  0.00  0.00    -0.003 C 
BRANCH  12  18
ATOM     18  C   UNL     1      35.511 -19.563 -21.623  0.00  0.00    +0.019 C 
ATOM     19  C   UNL     1      37.028 -19.494 -21.346  0.00  0.00    +0.004 C 
ATOM     20  C   UNL     1      34.889 -18.169 -21.392  0.00  0.00    +0.004 C 
ATOM     21  C   UNL     1      35.334 -19.899 -23.120  0.00  0.00    +0.004 C 
ENDBRANCH  12  18
ENDBRANCH  11  13
ENDBRANCH   1  11
BRANCH   1  22
ATOM     22  C   UNL     1      34.785 -22.474 -16.593  0.00  0.00    +0.123 C 
BRANCH  22  23
ATOM     23  C   UNL     1      36.073 -23.120 -16.168  0.00  0.00    -0.001 C 
ATOM     24  C   UNL     1      36.050 -24.284 -15.400  0.00  0.00    +0.034 C 
ATOM     25  C   UNL     1      37.292 -22.555 -16.541  0.00  0.00    -0.003 C 
ATOM     26  C   UNL     1      37.246 -24.883 -15.006  0.00  0.00    +0.139 C 
ATOM     27  C   UNL     1      38.489 -23.154 -16.146  0.00  0.00    +0.003 C 
ATOM     28  C   UNL     1      38.466 -24.319 -15.378  0.00  0.00    +0.037 C 
BRANCH  26  29
ATOM     29  O   UNL     1      37.225 -26.019 -14.255  0.00  0.00    -0.464 OA
BRANCH  29  30
ATOM     30  C   UNL     1      38.128 -26.084 -13.151  0.00  0.00    +0.314 C 
BRANCH  30  32
ATOM     31  O   UNL     1      38.075 -24.535 -11.279  0.00  0.00    -0.246 OA
ATOM     32  C   UNL     1      37.527 -25.388 -11.961  0.00  0.00    +0.359 C 
BRANCH  32  33
ATOM     33  O   UNL     1      36.267 -25.842 -11.741  0.00  0.00    -0.478 OA
ATOM     34  H   UNL     1      36.026 -26.168 -10.897  0.00  0.00    +0.295 HD
ENDBRANCH  32  33
ENDBRANCH  30  32
ENDBRANCH  29  30
ENDBRANCH  26  29
ENDBRANCH  22  23
ENDBRANCH   1  22
TORSDOF 11
ENDMDL
MODEL 7
REMARK VINA RESULT:      -9.5      2.111      6.395
REMARK  Name = 9890801
REMARK  11 active torsions:
REMARK  status: ('A' for Active; 'I' for Inactive)
REMARK    1  A    between atoms: N_1  and  S_2
REMARK    2  A    between atoms: N_1  and  C_11
REMARK    3  A    between atoms: N_1  and  C_22
REMARK    4  A    between atoms: S_2  and  C_6
REMARK    5  A    between atoms: C_11  and  C_13
REMARK    6  A    between atoms: C_12  and  C_18
REMARK    7  A    between atoms: C_22  and  C_23
REMARK    8  A    between atoms: C_26  and  O_29
REMARK    9  A    between atoms: O_29  and  C_30
REMARK   10  A    between atoms: C_30  and  C_32
REMARK   11  A    between atoms: C_32  and  O_33
REMARK                            x       y       z     vdW  Elec       q    Type
REMARK                         _______ _______ _______ _____ _____    ______ ____
ROOT
ATOM      1  N   UNL     1      34.299 -23.009 -17.586  0.00  0.00    -0.147 NA
ENDROOT
BRANCH   1   2
ATOM      2  S   UNL     1      33.753 -22.918 -19.220  0.00  0.00    +0.065 S 
ATOM      3  O   UNL     1      32.384 -22.436 -19.247  0.00  0.00    -0.153 OA
ATOM      4  O   UNL     1      34.090 -24.149 -19.911  0.00  0.00    -0.153 OA
BRANCH   2   6
ATOM      5  N   UNL     1      34.936 -19.548 -21.101  0.00  0.00    -0.241 NA
ATOM      6  C   UNL     1      34.773 -21.638 -19.898  0.00  0.00    +0.141 C 
ATOM      7  C   UNL     1      36.158 -21.688 -19.782  0.00  0.00    +0.023 C 
ATOM      8  C   UNL     1      34.216 -20.556 -20.561  0.00  0.00    +0.119 C 
ATOM      9  C   UNL     1      36.933 -20.668 -20.324  0.00  0.00    +0.022 C 
ATOM     10  C   UNL     1      36.278 -19.630 -20.968  0.00  0.00    +0.099 C 
ENDBRANCH   2   6
ENDBRANCH   1   2
BRANCH   1  11
ATOM     11  C   UNL     1      35.747 -22.814 -17.327  0.00  0.00    +0.122 C 
BRANCH  11  13
ATOM     12  C   UNL     1      36.978 -24.412 -13.551  0.00  0.00    -0.023 C 
ATOM     13  C   UNL     1      36.176 -23.371 -16.012  0.00  0.00    -0.004 C 
ATOM     14  C   UNL     1      37.084 -23.043 -13.797  0.00  0.00    -0.005 C 
ATOM     15  C   UNL     1      36.470 -25.261 -14.535  0.00  0.00    -0.005 C 
ATOM     16  C   UNL     1      36.684 -22.523 -15.027  0.00  0.00    -0.003 C 
ATOM     17  C   UNL     1      36.069 -24.740 -15.766  0.00  0.00    -0.003 C 
BRANCH  12  18
ATOM     18  C   UNL     1      37.422 -24.987 -12.196  0.00  0.00    +0.019 C 
ATOM     19  C   UNL     1      38.655 -24.213 -11.682  0.00  0.00    +0.004 C 
ATOM     20  C   UNL     1      37.790 -26.477 -12.360  0.00  0.00    +0.004 C 
ATOM     21  C   UNL     1      36.339 -24.903 -11.097  0.00  0.00    +0.004 C 
ENDBRANCH  12  18
ENDBRANCH  11  13
ENDBRANCH   1  11
BRANCH   1  22
ATOM     22  C   UNL     1      33.456 -22.376 -16.540  0.00  0.00    +0.123 C 
BRANCH  22  23
ATOM     23  C   UNL     1      32.495 -23.349 -15.917  0.00  0.00    -0.001 C 
ATOM     24  C   UNL     1      31.150 -23.335 -16.286  0.00  0.00    +0.034 C 
ATOM     25  C   UNL     1      32.949 -24.266 -14.969  0.00  0.00    -0.003 C 
ATOM     26  C   UNL     1      30.259 -24.238 -15.707  0.00  0.00    +0.139 C 
ATOM     27  C   UNL     1      32.057 -25.169 -14.390  0.00  0.00    +0.003 C 
ATOM     28  C   UNL     1      30.712 -25.155 -14.759  0.00  0.00    +0.037 C 
BRANCH  26  29
ATOM     29  O   UNL     1      28.946 -24.224 -16.065  0.00  0.00    -0.464 OA
BRANCH  29  30
ATOM     30  C   UNL     1      28.260 -22.975 -15.968  0.00  0.00    +0.314 C 
BRANCH  30  32
ATOM     31  O   UNL     1      27.184 -21.540 -17.608  0.00  0.00    -0.246 OA
ATOM     32  C   UNL     1      27.650 -22.626 -17.297  0.00  0.00    +0.359 C 
BRANCH  32  33
ATOM     33  O   UNL     1      27.689 -23.700 -18.126  0.00  0.00    -0.478 OA
ATOM     34  H   UNL     1      27.657 -24.566 -17.772  0.00  0.00    +0.295 HD
ENDBRANCH  32  33
ENDBRANCH  30  32
ENDBRANCH  29  30
ENDBRANCH  26  29
ENDBRANCH  22  23
ENDBRANCH   1  22
TORSDOF 11
ENDMDL
MODEL 8
REMARK VINA RESULT:      -9.4      3.029      7.689
REMARK  Name = 9890801
REMARK  11 active torsions:
REMARK  status: ('A' for Active; 'I' for Inactive)
REMARK    1  A    between atoms: N_1  and  S_2
REMARK    2  A    between atoms: N_1  and  C_11
REMARK    3  A    between atoms: N_1  and  C_22
REMARK    4  A    between atoms: S_2  and  C_6
REMARK    5  A    between atoms: C_11  and  C_13
REMARK    6  A    between atoms: C_12  and  C_18
REMARK    7  A    between atoms: C_22  and  C_23
REMARK    8  A    between atoms: C_26  and  O_29
REMARK    9  A    between atoms: O_29  and  C_30
REMARK   10  A    between atoms: C_30  and  C_32
REMARK   11  A    between atoms: C_32  and  O_33
REMARK                            x       y       z     vdW  Elec       q    Type
REMARK                         _______ _______ _______ _____ _____    ______ ____
ROOT
ATOM      1  N   UNL     1      33.246 -23.033 -16.047  0.00  0.00    -0.147 NA
ENDROOT
BRANCH   1   2
ATOM      2  S   UNL     1      32.151 -23.937 -15.068  0.00  0.00    +0.065 S 
ATOM      3  O   UNL     1      32.002 -23.284 -13.779  0.00  0.00    -0.153 OA
ATOM      4  O   UNL     1      32.505 -25.343 -15.118  0.00  0.00    -0.153 OA
BRANCH   2   6
ATOM      5  N   UNL     1      29.087 -22.319 -17.138  0.00  0.00    -0.241 NA
ATOM      6  C   UNL     1      30.615 -23.750 -15.931  0.00  0.00    +0.141 C 
ATOM      7  C   UNL     1      29.747 -24.824 -16.088  0.00  0.00    +0.023 C 
ATOM      8  C   UNL     1      30.242 -22.529 -16.470  0.00  0.00    +0.119 C 
ATOM      9  C   UNL     1      28.548 -24.647 -16.771  0.00  0.00    +0.022 C 
ATOM     10  C   UNL     1      28.268 -23.386 -17.273  0.00  0.00    +0.099 C 
ENDBRANCH   2   6
ENDBRANCH   1   2
BRANCH   1  11
ATOM     11  C   UNL     1      34.360 -22.325 -15.368  0.00  0.00    +0.122 C 
BRANCH  11  13
ATOM     12  C   UNL     1      37.805 -24.805 -14.820  0.00  0.00    -0.023 C 
ATOM     13  C   UNL     1      35.559 -23.189 -15.177  0.00  0.00    -0.004 C 
ATOM     14  C   UNL     1      37.868 -23.703 -15.673  0.00  0.00    -0.005 C 
ATOM     15  C   UNL     1      36.621 -25.099 -14.145  0.00  0.00    -0.005 C 
ATOM     16  C   UNL     1      36.745 -22.896 -15.852  0.00  0.00    -0.003 C 
ATOM     17  C   UNL     1      35.497 -24.291 -14.323  0.00  0.00    -0.003 C 
BRANCH  12  18
ATOM     18  C   UNL     1      39.043 -25.698 -14.625  0.00  0.00    +0.019 C 
ATOM     19  C   UNL     1      38.721 -27.138 -15.078  0.00  0.00    +0.004 C 
ATOM     20  C   UNL     1      39.442 -25.712 -13.134  0.00  0.00    +0.004 C 
ATOM     21  C   UNL     1      40.280 -25.232 -15.424  0.00  0.00    +0.004 C 
ENDBRANCH  12  18
ENDBRANCH  11  13
ENDBRANCH   1  11
BRANCH   1  22
ATOM     22  C   UNL     1      33.671 -23.628 -17.340  0.00  0.00    +0.123 C 
BRANCH  22  23
ATOM     23  C   UNL     1      33.800 -22.598 -18.425  0.00  0.00    -0.001 C 
ATOM     24  C   UNL     1      35.057 -22.274 -18.934  0.00  0.00    +0.034 C 
ATOM     25  C   UNL     1      32.661 -21.965 -18.924  0.00  0.00    -0.003 C 
ATOM     26  C   UNL     1      35.176 -21.317 -19.942  0.00  0.00    +0.139 C 
ATOM     27  C   UNL     1      32.781 -21.007 -19.932  0.00  0.00    +0.003 C 
ATOM     28  C   UNL     1      34.038 -20.683 -20.441  0.00  0.00    +0.037 C 
BRANCH  26  29
ATOM     29  O   UNL     1      36.403 -20.999 -20.439  0.00  0.00    -0.464 OA
BRANCH  29  30
ATOM     30  C   UNL     1      36.442 -20.095 -21.543  0.00  0.00    +0.314 C 
BRANCH  30  32
ATOM     31  O   UNL     1      37.851 -18.636 -20.205  0.00  0.00    -0.246 OA
ATOM     32  C   UNL     1      37.483 -19.037 -21.299  0.00  0.00    +0.359 C 
BRANCH  32  33
ATOM     33  O   UNL     1      37.970 -18.580 -22.479  0.00  0.00    -0.478 OA
ATOM     34  H   UNL     1      38.884 -18.393 -22.569  0.00  0.00    +0.295 HD
ENDBRANCH  32  33
ENDBRANCH  30  32
ENDBRANCH  29  30
ENDBRANCH  26  29
ENDBRANCH  22  23
ENDBRANCH   1  22
TORSDOF 11
ENDMDL
MODEL 9
REMARK VINA RESULT:      -9.4      2.341      6.742
REMARK  Name = 9890801
REMARK  11 active torsions:
REMARK  status: ('A' for Active; 'I' for Inactive)
REMARK    1  A    between atoms: N_1  and  S_2
REMARK    2  A    between atoms: N_1  and  C_11
REMARK    3  A    between atoms: N_1  and  C_22
REMARK    4  A    between atoms: S_2  and  C_6
REMARK    5  A    between atoms: C_11  and  C_13
REMARK    6  A    between atoms: C_12  and  C_18
REMARK    7  A    between atoms: C_22  and  C_23
REMARK    8  A    between atoms: C_26  and  O_29
REMARK    9  A    between atoms: O_29  and  C_30
REMARK   10  A    between atoms: C_30  and  C_32
REMARK   11  A    between atoms: C_32  and  O_33
REMARK                            x       y       z     vdW  Elec       q    Type
REMARK                         _______ _______ _______ _____ _____    ______ ____
ROOT
ATOM      1  N   UNL     1      33.680 -23.333 -16.962  0.00  0.00    -0.147 NA
ENDROOT
BRANCH   1   2
ATOM      2  S   UNL     1      32.232 -22.580 -16.404  0.00  0.00    +0.065 S 
ATOM      3  O   UNL     1      31.512 -22.021 -17.534  0.00  0.00    -0.153 OA
ATOM      4  O   UNL     1      32.534 -21.738 -15.262  0.00  0.00    -0.153 OA
BRANCH   2   6
ATOM      5  N   UNL     1      31.130 -25.876 -14.349  0.00  0.00    -0.241 NA
ATOM      6  C   UNL     1      31.286 -23.955 -15.808  0.00  0.00    +0.141 C 
ATOM      7  C   UNL     1      30.007 -24.208 -16.292  0.00  0.00    +0.023 C 
ATOM      8  C   UNL     1      31.798 -24.811 -14.845  0.00  0.00    +0.119 C 
ATOM      9  C   UNL     1      29.289 -25.295 -15.804  0.00  0.00    +0.022 C 
ATOM     10  C   UNL     1      29.890 -26.091 -14.842  0.00  0.00    +0.099 C 
ENDBRANCH   2   6
ENDBRANCH   1   2
BRANCH   1  11
ATOM     11  C   UNL     1      33.772 -23.677 -18.402  0.00  0.00    +0.122 C 
BRANCH  11  13
ATOM     12  C   UNL     1      35.232 -20.434 -20.785  0.00  0.00    -0.023 C 
ATOM     13  C   UNL     1      34.280 -22.547 -19.232  0.00  0.00    -0.004 C 
ATOM     14  C   UNL     1      36.130 -21.286 -20.142  0.00  0.00    -0.005 C 
ATOM     15  C   UNL     1      33.858 -20.637 -20.651  0.00  0.00    -0.005 C 
ATOM     16  C   UNL     1      35.654 -22.342 -19.366  0.00  0.00    -0.003 C 
ATOM     17  C   UNL     1      33.382 -21.695 -19.875  0.00  0.00    -0.003 C 
BRANCH  12  18
ATOM     18  C   UNL     1      35.756 -19.267 -21.639  0.00  0.00    +0.019 C 
ATOM     19  C   UNL     1      35.522 -19.572 -23.134  0.00  0.00    +0.004 C 
ATOM     20  C   UNL     1      37.268 -19.080 -21.389  0.00  0.00    +0.004 C 
ATOM     21  C   UNL     1      35.073 -17.915 -21.336  0.00  0.00    +0.004 C 
ENDBRANCH  12  18
ENDBRANCH  11  13
ENDBRANCH   1  11
BRANCH   1  22
ATOM     22  C   UNL     1      34.971 -22.831 -16.426  0.00  0.00    +0.123 C 
BRANCH  22  23
ATOM     23  C   UNL     1      35.520 -23.715 -15.342  0.00  0.00    -0.001 C 
ATOM     24  C   UNL     1      36.650 -24.496 -15.585  0.00  0.00    +0.034 C 
ATOM     25  C   UNL     1      34.900 -23.754 -14.094  0.00  0.00    -0.003 C 
ATOM     26  C   UNL     1      37.159 -25.317 -14.579  0.00  0.00    +0.139 C 
ATOM     27  C   UNL     1      35.409 -24.576 -13.087  0.00  0.00    +0.003 C 
ATOM     28  C   UNL     1      36.539 -25.357 -13.330  0.00  0.00    +0.037 C 
BRANCH  26  29
ATOM     29  O   UNL     1      38.261 -26.081 -14.814  0.00  0.00    -0.464 OA
BRANCH  29  30
ATOM     30  C   UNL     1      39.477 -25.678 -14.184  0.00  0.00    +0.314 C 
BRANCH  30  32
ATOM     31  O   UNL     1      40.820 -26.038 -16.177  0.00  0.00    -0.246 OA
ATOM     32  C   UNL     1      40.651 -26.183 -14.976  0.00  0.00    +0.359 C 
BRANCH  32  33
ATOM     33  O   UNL     1      41.519 -26.833 -14.161  0.00  0.00    -0.478 OA
ATOM     34  H   UNL     1      41.846 -27.677 -14.401  0.00  0.00    +0.295 HD
ENDBRANCH  32  33
ENDBRANCH  30  32
ENDBRANCH  29  30
ENDBRANCH  26  29
ENDBRANCH  22  23
ENDBRANCH   1  22
TORSDOF 11
ENDMDL
