MODEL 1
REMARK VINA RESULT:     -11.5      0.000      0.000
REMARK  Name = 11979006
REMARK  7 active torsions:
REMARK  status: ('A' for Active; 'I' for Inactive)
REMARK    1  A    between atoms: C_1  and  N_2
REMARK    2  A    between atoms: C_1  and  C_22
REMARK    3  A    between atoms: C_3  and  N_9
REMARK    4  A    between atoms: C_4  and  O_18
REMARK    5  A    between atoms: C_10  and  C_14
REMARK    6  A    between atoms: N_21  and  C_25
REMARK    7  A    between atoms: C_28  and  N_32
REMARK                            x       y       z     vdW  Elec       q    Type
REMARK                         _______ _______ _______ _____ _____    ______ ____
ROOT
ATOM      1  C   UNL     1      35.702 -21.428 -20.624  0.00  0.00    +0.010 C 
ENDROOT
BRANCH   1   2
ATOM      2  N   UNL     1      35.358 -21.651 -19.228  0.00  0.00    +0.396 N 
ATOM      3  C   UNL     1      35.883 -22.407 -17.107  0.00  0.00    +0.076 C 
ATOM      4  C   UNL     1      34.653 -23.186 -17.576  0.00  0.00    +0.106 C 
ATOM      5  C   UNL     1      36.532 -21.929 -18.399  0.00  0.00    -0.054 C 
ATOM      6  C   UNL     1      34.468 -22.804 -19.046  0.00  0.00    -0.045 C 
ATOM      7  H   UNL     1      34.903 -20.784 -18.944  0.00  0.00    -0.079 HD
BRANCH   3   9
ATOM      8  O   UNL     1      35.334 -23.414 -14.531  0.00  0.00    -0.270 OA
ATOM      9  N   UNL     1      36.772 -23.208 -16.312  0.00  0.00    -0.302 N 
ATOM     10  C   UNL     1      36.427 -23.671 -15.039  0.00  0.00    +0.252 C 
ATOM     11  H   UNL     1      37.657 -23.439 -16.676  0.00  0.00    +0.150 HD
BRANCH  10  14
ATOM     12 CL   UNL     1      40.975 -26.512 -13.928  0.00  0.00    -0.075 Cl
ATOM     13  S   UNL     1      38.869 -24.839 -15.187  0.00  0.00    -0.071 S 
ATOM     14  C   UNL     1      37.430 -24.506 -14.363  0.00  0.00    +0.084 C 
ATOM     15  C   UNL     1      37.343 -25.057 -13.132  0.00  0.00    +0.012 C 
ATOM     16  C   UNL     1      38.522 -25.800 -12.831  0.00  0.00    +0.019 C 
ATOM     17  C   UNL     1      39.433 -25.764 -13.862  0.00  0.00    +0.087 C 
ENDBRANCH  10  14
ENDBRANCH   3   9
BRANCH   4  18
ATOM     18  O   UNL     1      33.525 -22.792 -16.805  0.00  0.00    -0.385 OA
ATOM     19  H   UNL     1      33.640 -23.089 -15.889  0.00  0.00    +0.210 HD
ENDBRANCH   4  18
ENDBRANCH   1   2
BRANCH   1  22
ATOM     20  O   UNL     1      33.799 -19.954 -20.794  0.00  0.00    -0.277 OA
ATOM     21  N   UNL     1      35.743 -19.492 -22.027  0.00  0.00    -0.284 N 
ATOM     22  C   UNL     1      34.946 -20.216 -21.142  0.00  0.00    +0.205 C 
ATOM     23  H   UNL     1      36.646 -19.849 -22.188  0.00  0.00    +0.155 HD
BRANCH  21  25
ATOM     24  F   UNL     1      34.972 -19.554 -24.693  0.00  0.00    -0.203 F 
ATOM     25  C   UNL     1      35.406 -18.305 -22.720  0.00  0.00    +0.078 C 
ATOM     26  C   UNL     1      35.027 -18.378 -24.050  0.00  0.00    +0.155 C 
ATOM     27  C   UNL     1      35.464 -17.094 -22.051  0.00  0.00    +0.018 C 
ATOM     28  C   UNL     1      34.750 -15.978 -24.071  0.00  0.00    +0.061 C 
ATOM     29  C   UNL     1      34.696 -17.207 -24.730  0.00  0.00    +0.046 C 
ATOM     30  C   UNL     1      35.134 -15.922 -22.731  0.00  0.00    +0.017 C 
BRANCH  28  32
ATOM     31  O   UNL     1      33.857 -15.837 -26.819  0.00  0.00    -0.269 OA
ATOM     32  N   UNL     1      34.406 -14.760 -24.779  0.00  0.00    -0.233 N 
ATOM     33  C   UNL     1      33.941 -14.829 -26.119  0.00  0.00    +0.257 C 
ATOM     34  C   UNL     1      34.551 -13.517 -24.161  0.00  0.00    +0.072 C 
ATOM     35  C   UNL     1      33.565 -13.530 -26.759  0.00  0.00    +0.059 C 
ATOM     36  C   UNL     1      34.238 -12.367 -24.767  0.00  0.00    +0.017 C 
ATOM     37  C   UNL     1      33.723 -12.378 -26.104  0.00  0.00    +0.006 C 
ENDBRANCH  28  32
ENDBRANCH  21  25
ENDBRANCH   1  22
TORSDOF 7
ENDMDL
MODEL 2
REMARK VINA RESULT:     -11.0      1.138      1.645
REMARK  Name = 11979006
REMARK  7 active torsions:
REMARK  status: ('A' for Active; 'I' for Inactive)
REMARK    1  A    between atoms: C_1  and  N_2
REMARK    2  A    between atoms: C_1  and  C_22
REMARK    3  A    between atoms: C_3  and  N_9
REMARK    4  A    between atoms: C_4  and  O_18
REMARK    5  A    between atoms: C_10  and  C_14
REMARK    6  A    between atoms: N_21  and  C_25
REMARK    7  A    between atoms: C_28  and  N_32
REMARK                            x       y       z     vdW  Elec       q    Type
REMARK                         _______ _______ _______ _____ _____    ______ ____
ROOT
ATOM      1  C   UNL     1      35.791 -21.340 -20.701  0.00  0.00    +0.010 C 
ENDROOT
BRANCH   1   2
ATOM      2  N   UNL     1      35.423 -21.582 -19.315  0.00  0.00    +0.396 N 
ATOM      3  C   UNL     1      35.916 -22.355 -17.193  0.00  0.00    +0.076 C 
ATOM      4  C   UNL     1      34.703 -23.143 -17.693  0.00  0.00    +0.106 C 
ATOM      5  C   UNL     1      36.583 -21.856 -18.466  0.00  0.00    -0.054 C 
ATOM      6  C   UNL     1      34.543 -22.747 -19.162  0.00  0.00    -0.045 C 
ATOM      7  H   UNL     1      34.952 -20.723 -19.031  0.00  0.00    -0.079 HD
BRANCH   3   9
ATOM      8  O   UNL     1      35.370 -23.306 -14.595  0.00  0.00    -0.270 OA
ATOM      9  N   UNL     1      36.799 -23.154 -16.388  0.00  0.00    -0.302 N 
ATOM     10  C   UNL     1      36.455 -23.589 -15.106  0.00  0.00    +0.252 C 
ATOM     11  H   UNL     1      37.677 -23.405 -16.754  0.00  0.00    +0.150 HD
BRANCH  10  14
ATOM     12 CL   UNL     1      40.967 -26.476 -13.973  0.00  0.00    -0.075 Cl
ATOM     13  S   UNL     1      38.879 -24.796 -15.249  0.00  0.00    -0.071 S 
ATOM     14  C   UNL     1      37.450 -24.426 -14.420  0.00  0.00    +0.084 C 
ATOM     15  C   UNL     1      37.365 -24.952 -13.178  0.00  0.00    +0.012 C 
ATOM     16  C   UNL     1      38.534 -25.707 -12.872  0.00  0.00    +0.019 C 
ATOM     17  C   UNL     1      39.438 -25.704 -13.910  0.00  0.00    +0.087 C 
ENDBRANCH  10  14
ENDBRANCH   3   9
BRANCH   4  18
ATOM     18  O   UNL     1      33.556 -22.769 -16.941  0.00  0.00    -0.385 OA
ATOM     19  H   UNL     1      32.798 -23.306 -17.219  0.00  0.00    +0.210 HD
ENDBRANCH   4  18
ENDBRANCH   1   2
BRANCH   1  22
ATOM     20  O   UNL     1      33.890 -19.860 -20.838  0.00  0.00    -0.277 OA
ATOM     21  N   UNL     1      35.782 -19.451 -22.167  0.00  0.00    -0.284 N 
ATOM     22  C   UNL     1      35.020 -20.141 -21.226  0.00  0.00    +0.205 C 
ATOM     23  H   UNL     1      36.676 -19.819 -22.355  0.00  0.00    +0.155 HD
BRANCH  21  25
ATOM     24  F   UNL     1      35.755 -16.960 -20.941  0.00  0.00    -0.203 F 
ATOM     25  C   UNL     1      35.423 -18.285 -22.883  0.00  0.00    +0.078 C 
ATOM     26  C   UNL     1      35.422 -17.061 -22.235  0.00  0.00    +0.155 C 
ATOM     27  C   UNL     1      35.079 -18.395 -24.221  0.00  0.00    +0.018 C 
ATOM     28  C   UNL     1      34.717 -16.006 -24.292  0.00  0.00    +0.061 C 
ATOM     29  C   UNL     1      35.067 -15.913 -22.945  0.00  0.00    +0.046 C 
ATOM     30  C   UNL     1      34.723 -17.248 -24.930  0.00  0.00    +0.017 C 
BRANCH  28  32
ATOM     31  O   UNL     1      34.706 -13.319 -23.224  0.00  0.00    -0.269 OA
ATOM     32  N   UNL     1      34.347 -14.814 -25.029  0.00  0.00    -0.233 N 
ATOM     33  C   UNL     1      34.422 -13.543 -24.400  0.00  0.00    +0.257 C 
ATOM     34  C   UNL     1      33.896 -14.907 -26.347  0.00  0.00    +0.072 C 
ATOM     35  C   UNL     1      34.068 -12.361 -25.246  0.00  0.00    +0.059 C 
ATOM     36  C   UNL     1      33.554 -13.837 -27.071  0.00  0.00    +0.017 C 
ATOM     37  C   UNL     1      33.651 -12.525 -26.503  0.00  0.00    +0.006 C 
ENDBRANCH  28  32
ENDBRANCH  21  25
ENDBRANCH   1  22
TORSDOF 7
ENDMDL
MODEL 3
REMARK VINA RESULT:     -10.9      3.555      6.059
REMARK  Name = 11979006
REMARK  7 active torsions:
REMARK  status: ('A' for Active; 'I' for Inactive)
REMARK    1  A    between atoms: C_1  and  N_2
REMARK    2  A    between atoms: C_1  and  C_22
REMARK    3  A    between atoms: C_3  and  N_9
REMARK    4  A    between atoms: C_4  and  O_18
REMARK    5  A    between atoms: C_10  and  C_14
REMARK    6  A    between atoms: N_21  and  C_25
REMARK    7  A    between atoms: C_28  and  N_32
REMARK                            x       y       z     vdW  Elec       q    Type
REMARK                         _______ _______ _______ _____ _____    ______ ____
ROOT
ATOM      1  C   UNL     1      34.598 -17.479 -24.633  0.00  0.00    +0.010 C 
ENDROOT
BRANCH   1   2
ATOM      2  N   UNL     1      35.421 -18.254 -23.718  0.00  0.00    +0.396 N 
ATOM      3  C   UNL     1      35.654 -19.821 -22.034  0.00  0.00    +0.076 C 
ATOM      4  C   UNL     1      36.249 -18.508 -21.519  0.00  0.00    +0.106 C 
ATOM      5  C   UNL     1      34.698 -19.386 -23.135  0.00  0.00    -0.054 C 
ATOM      6  C   UNL     1      35.891 -17.461 -22.576  0.00  0.00    -0.045 C 
ATOM      7  H   UNL     1      36.200 -18.571 -24.294  0.00  0.00    -0.079 HD
BRANCH   3   9
ATOM      8  O   UNL     1      36.926 -21.404 -20.078  0.00  0.00    -0.270 OA
ATOM      9  N   UNL     1      34.994 -20.569 -20.999  0.00  0.00    -0.302 N 
ATOM     10  C   UNL     1      35.696 -21.332 -20.063  0.00  0.00    +0.252 C 
ATOM     11  H   UNL     1      34.011 -20.543 -20.948  0.00  0.00    +0.150 HD
BRANCH  10  14
ATOM     12 CL   UNL     1      34.106 -23.878 -15.483  0.00  0.00    -0.075 Cl
ATOM     13  S   UNL     1      35.642 -22.492 -17.613  0.00  0.00    -0.071 S 
ATOM     14  C   UNL     1      34.882 -22.015 -19.047  0.00  0.00    +0.084 C 
ATOM     15  C   UNL     1      33.567 -22.318 -19.118  0.00  0.00    +0.012 C 
ATOM     16  C   UNL     1      33.141 -22.983 -17.931  0.00  0.00    +0.019 C 
ATOM     17  C   UNL     1      34.169 -23.141 -17.029  0.00  0.00    +0.087 C 
ENDBRANCH  10  14
ENDBRANCH   3   9
BRANCH   4  18
ATOM     18  O   UNL     1      37.659 -18.646 -21.401  0.00  0.00    -0.385 OA
ATOM     19  H   UNL     1      38.091 -18.205 -22.150  0.00  0.00    +0.210 HD
ENDBRANCH   4  18
ENDBRANCH   1   2
BRANCH   1  22
ATOM     20  O   UNL     1      36.102 -15.593 -24.588  0.00  0.00    -0.277 OA
ATOM     21  N   UNL     1      33.797 -15.252 -24.297  0.00  0.00    -0.284 N 
ATOM     22  C   UNL     1      34.949 -16.007 -24.505  0.00  0.00    +0.205 C 
ATOM     23  H   UNL     1      32.950 -15.754 -24.262  0.00  0.00    +0.155 HD
BRANCH  21  25
ATOM     24  F   UNL     1      32.621 -14.151 -22.035  0.00  0.00    -0.203 F 
ATOM     25  C   UNL     1      33.700 -13.850 -24.129  0.00  0.00    +0.078 C 
ATOM     26  C   UNL     1      33.107 -13.341 -22.987  0.00  0.00    +0.155 C 
ATOM     27  C   UNL     1      34.203 -13.017 -25.115  0.00  0.00    +0.018 C 
ATOM     28  C   UNL     1      33.514 -11.105 -23.808  0.00  0.00    +0.061 C 
ATOM     29  C   UNL     1      33.013 -11.958 -22.825  0.00  0.00    +0.046 C 
ATOM     30  C   UNL     1      34.109 -11.635 -24.954  0.00  0.00    +0.017 C 
BRANCH  28  32
ATOM     31  O   UNL     1      35.681  -9.227 -24.180  0.00  0.00    -0.269 OA
ATOM     32  N   UNL     1      33.416  -9.669 -23.640  0.00  0.00    -0.233 N 
ATOM     33  C   UNL     1      34.546  -8.848 -23.892  0.00  0.00    +0.257 C 
ATOM     34  C   UNL     1      32.222  -9.086 -23.210  0.00  0.00    +0.072 C 
ATOM     35  C   UNL     1      34.345  -7.374 -23.740  0.00  0.00    +0.059 C 
ATOM     36  C   UNL     1      32.077  -7.767 -23.050  0.00  0.00    +0.017 C 
ATOM     37  C   UNL     1      33.172  -6.886 -23.331  0.00  0.00    +0.006 C 
ENDBRANCH  28  32
ENDBRANCH  21  25
ENDBRANCH   1  22
TORSDOF 7
ENDMDL
MODEL 4
REMARK VINA RESULT:     -10.8      1.936      2.334
REMARK  Name = 11979006
REMARK  7 active torsions:
REMARK  status: ('A' for Active; 'I' for Inactive)
REMARK    1  A    between atoms: C_1  and  N_2
REMARK    2  A    between atoms: C_1  and  C_22
REMARK    3  A    between atoms: C_3  and  N_9
REMARK    4  A    between atoms: C_4  and  O_18
REMARK    5  A    between atoms: C_10  and  C_14
REMARK    6  A    between atoms: N_21  and  C_25
REMARK    7  A    between atoms: C_28  and  N_32
REMARK                            x       y       z     vdW  Elec       q    Type
REMARK                         _______ _______ _______ _____ _____    ______ ____
ROOT
ATOM      1  C   UNL     1      36.191 -20.309 -21.364  0.00  0.00    +0.010 C 
ENDROOT
BRANCH   1   2
ATOM      2  N   UNL     1      35.570 -20.771 -20.132  0.00  0.00    +0.396 N 
ATOM      3  C   UNL     1      35.665 -21.886 -18.109  0.00  0.00    +0.076 C 
ATOM      4  C   UNL     1      34.587 -22.568 -18.954  0.00  0.00    +0.106 C 
ATOM      5  C   UNL     1      36.553 -21.193 -19.133  0.00  0.00    -0.054 C 
ATOM      6  C   UNL     1      34.701 -21.935 -20.342  0.00  0.00    -0.045 C 
ATOM      7  H   UNL     1      35.037 -19.965 -19.807  0.00  0.00    -0.079 HD
BRANCH   3   9
ATOM      8  O   UNL     1      34.798 -22.946 -15.644  0.00  0.00    -0.270 OA
ATOM      9  N   UNL     1      36.394 -22.816 -17.292  0.00  0.00    -0.302 N 
ATOM     10  C   UNL     1      35.896 -23.298 -16.078  0.00  0.00    +0.252 C 
ATOM     11  H   UNL     1      37.277 -23.126 -17.597  0.00  0.00    +0.150 HD
BRANCH  10  14
ATOM     12 CL   UNL     1      40.241 -25.922 -14.024  0.00  0.00    -0.075 Cl
ATOM     13  S   UNL     1      38.420 -24.032 -15.412  0.00  0.00    -0.071 S 
ATOM     14  C   UNL     1      36.745 -24.268 -15.372  0.00  0.00    +0.084 C 
ATOM     15  C   UNL     1      36.344 -25.356 -14.678  0.00  0.00    +0.012 C 
ATOM     16  C   UNL     1      37.467 -26.049 -14.139  0.00  0.00    +0.019 C 
ATOM     17  C   UNL     1      38.656 -25.436 -14.462  0.00  0.00    +0.087 C 
ENDBRANCH  10  14
ENDBRANCH   3   9
BRANCH   4  18
ATOM     18  O   UNL     1      33.310 -22.310 -18.384  0.00  0.00    -0.385 OA
ATOM     19  H   UNL     1      33.165 -21.352 -18.336  0.00  0.00    +0.210 HD
ENDBRANCH   4  18
ENDBRANCH   1   2
BRANCH   1  22
ATOM     20  O   UNL     1      34.371 -19.432 -22.684  0.00  0.00    -0.277 OA
ATOM     21  N   UNL     1      35.837 -17.956 -21.593  0.00  0.00    -0.284 N 
ATOM     22  C   UNL     1      35.345 -19.204 -21.972  0.00  0.00    +0.205 C 
ATOM     23  H   UNL     1      36.630 -17.961 -21.010  0.00  0.00    +0.155 HD
BRANCH  21  25
ATOM     24  F   UNL     1      35.669 -17.165 -24.249  0.00  0.00    -0.203 F 
ATOM     25  C   UNL     1      35.330 -16.683 -21.948  0.00  0.00    +0.078 C 
ATOM     26  C   UNL     1      35.263 -16.326 -23.285  0.00  0.00    +0.155 C 
ATOM     27  C   UNL     1      34.912 -15.821 -20.948  0.00  0.00    +0.018 C 
ATOM     28  C   UNL     1      34.338 -14.190 -22.636  0.00  0.00    +0.061 C 
ATOM     29  C   UNL     1      34.763 -15.071 -23.631  0.00  0.00    +0.046 C 
ATOM     30  C   UNL     1      34.413 -14.566 -21.294  0.00  0.00    +0.017 C 
BRANCH  28  32
ATOM     31  O   UNL     1      32.012 -12.934 -21.464  0.00  0.00    -0.269 OA
ATOM     32  N   UNL     1      33.820 -12.885 -22.997  0.00  0.00    -0.233 N 
ATOM     33  C   UNL     1      32.690 -12.361 -22.317  0.00  0.00    +0.257 C 
ATOM     34  C   UNL     1      34.410 -12.148 -24.025  0.00  0.00    +0.072 C 
ATOM     35  C   UNL     1      32.249 -10.989 -22.718  0.00  0.00    +0.059 C 
ATOM     36  C   UNL     1      33.977 -10.937 -24.388  0.00  0.00    +0.017 C 
ATOM     37  C   UNL     1      32.867 -10.339 -23.707  0.00  0.00    +0.006 C 
ENDBRANCH  28  32
ENDBRANCH  21  25
ENDBRANCH   1  22
TORSDOF 7
ENDMDL
MODEL 5
REMARK VINA RESULT:     -10.8      4.788     12.109
REMARK  Name = 11979006
REMARK  7 active torsions:
REMARK  status: ('A' for Active; 'I' for Inactive)
REMARK    1  A    between atoms: C_1  and  N_2
REMARK    2  A    between atoms: C_1  and  C_22
REMARK    3  A    between atoms: C_3  and  N_9
REMARK    4  A    between atoms: C_4  and  O_18
REMARK    5  A    between atoms: C_10  and  C_14
REMARK    6  A    between atoms: N_21  and  C_25
REMARK    7  A    between atoms: C_28  and  N_32
REMARK                            x       y       z     vdW  Elec       q    Type
REMARK                         _______ _______ _______ _____ _____    ______ ____
ROOT
ATOM      1  C   UNL     1      35.133 -20.473 -21.469  0.00  0.00    +0.010 C 
ENDROOT
BRANCH   1   2
ATOM      2  N   UNL     1      35.525 -19.221 -22.098  0.00  0.00    +0.396 N 
ATOM      3  C   UNL     1      35.342 -16.929 -22.337  0.00  0.00    +0.076 C 
ATOM      4  C   UNL     1      35.019 -17.555 -23.695  0.00  0.00    +0.106 C 
ATOM      5  C   UNL     1      35.078 -18.051 -21.342  0.00  0.00    -0.054 C 
ATOM      6  C   UNL     1      34.953 -19.062 -23.440  0.00  0.00    -0.045 C 
ATOM      7  H   UNL     1      36.543 -19.271 -22.133  0.00  0.00    -0.079 HD
BRANCH   3   9
ATOM      8  O   UNL     1      35.256 -14.597 -23.919  0.00  0.00    -0.270 OA
ATOM      9  N   UNL     1      34.550 -15.760 -22.067  0.00  0.00    -0.302 N 
ATOM     10  C   UNL     1      34.561 -14.640 -22.902  0.00  0.00    +0.252 C 
ATOM     11  H   UNL     1      33.979 -15.748 -21.266  0.00  0.00    +0.150 HD
BRANCH  10  14
ATOM     12 CL   UNL     1      31.046 -11.492 -20.125  0.00  0.00    -0.075 Cl
ATOM     13  S   UNL     1      32.865 -13.657 -21.029  0.00  0.00    -0.071 S 
ATOM     14  C   UNL     1      33.673 -13.536 -22.511  0.00  0.00    +0.084 C 
ATOM     15  C   UNL     1      33.414 -12.406 -23.205  0.00  0.00    +0.012 C 
ATOM     16  C   UNL     1      32.499 -11.578 -22.493  0.00  0.00    +0.019 C 
ATOM     17  C   UNL     1      32.121 -12.138 -21.293  0.00  0.00    +0.087 C 
ENDBRANCH  10  14
ENDBRANCH   3   9
BRANCH   4  18
ATOM     18  O   UNL     1      36.058 -17.244 -24.615  0.00  0.00    -0.385 OA
ATOM     19  H   UNL     1      35.911 -16.357 -24.979  0.00  0.00    +0.210 HD
ENDBRANCH   4  18
ENDBRANCH   1   2
BRANCH   1  22
ATOM     20  O   UNL     1      37.034 -20.100 -20.030  0.00  0.00    -0.277 OA
ATOM     21  N   UNL     1      35.400 -21.671 -19.417  0.00  0.00    -0.284 N 
ATOM     22  C   UNL     1      35.987 -20.707 -20.234  0.00  0.00    +0.205 C 
ATOM     23  H   UNL     1      34.551 -22.053 -19.738  0.00  0.00    +0.155 HD
BRANCH  21  25
ATOM     24  F   UNL     1      33.730 -23.027 -17.662  0.00  0.00    -0.203 F 
ATOM     25  C   UNL     1      35.881 -22.167 -18.182  0.00  0.00    +0.078 C 
ATOM     26  C   UNL     1      35.016 -22.838 -17.334  0.00  0.00    +0.155 C 
ATOM     27  C   UNL     1      37.211 -21.968 -17.848  0.00  0.00    +0.018 C 
ATOM     28  C   UNL     1      36.830 -23.133 -15.765  0.00  0.00    +0.061 C 
ATOM     29  C   UNL     1      35.494 -23.324 -16.118  0.00  0.00    +0.046 C 
ATOM     30  C   UNL     1      37.688 -22.454 -16.631  0.00  0.00    +0.017 C 
BRANCH  28  32
ATOM     31  O   UNL     1      38.024 -25.735 -15.357  0.00  0.00    -0.269 OA
ATOM     32  N   UNL     1      37.325 -23.638 -14.500  0.00  0.00    -0.233 N 
ATOM     33  C   UNL     1      37.928 -24.922 -14.439  0.00  0.00    +0.257 C 
ATOM     34  C   UNL     1      37.194 -22.880 -13.335  0.00  0.00    +0.072 C 
ATOM     35  C   UNL     1      38.454 -25.346 -13.105  0.00  0.00    +0.059 C 
ATOM     36  C   UNL     1      37.644 -23.297 -12.147  0.00  0.00    +0.017 C 
ATOM     37  C   UNL     1      38.300 -24.565 -12.033  0.00  0.00    +0.006 C 
ENDBRANCH  28  32
ENDBRANCH  21  25
ENDBRANCH   1  22
TORSDOF 7
ENDMDL
MODEL 6
REMARK VINA RESULT:     -10.7      3.569      6.018
REMARK  Name = 11979006
REMARK  7 active torsions:
REMARK  status: ('A' for Active; 'I' for Inactive)
REMARK    1  A    between atoms: C_1  and  N_2
REMARK    2  A    between atoms: C_1  and  C_22
REMARK    3  A    between atoms: C_3  and  N_9
REMARK    4  A    between atoms: C_4  and  O_18
REMARK    5  A    between atoms: C_10  and  C_14
REMARK    6  A    between atoms: N_21  and  C_25
REMARK    7  A    between atoms: C_28  and  N_32
REMARK                            x       y       z     vdW  Elec       q    Type
REMARK                         _______ _______ _______ _____ _____    ______ ____
ROOT
ATOM      1  C   UNL     1      34.646 -17.501 -24.664  0.00  0.00    +0.010 C 
ENDROOT
BRANCH   1   2
ATOM      2  N   UNL     1      35.451 -18.297 -23.750  0.00  0.00    +0.396 N 
ATOM      3  C   UNL     1      35.646 -19.862 -22.060  0.00  0.00    +0.076 C 
ATOM      4  C   UNL     1      36.286 -18.567 -21.556  0.00  0.00    +0.106 C 
ATOM      5  C   UNL     1      34.696 -19.402 -23.158  0.00  0.00    -0.054 C 
ATOM      6  C   UNL     1      35.954 -17.514 -22.616  0.00  0.00    -0.045 C 
ATOM      7  H   UNL     1      36.215 -18.642 -24.330  0.00  0.00    -0.079 HD
BRANCH   3   9
ATOM      8  O   UNL     1      36.878 -21.500 -20.124  0.00  0.00    -0.270 OA
ATOM      9  N   UNL     1      34.969 -20.584 -21.018  0.00  0.00    -0.302 N 
ATOM     10  C   UNL     1      35.652 -21.378 -20.092  0.00  0.00    +0.252 C 
ATOM     11  H   UNL     1      33.990 -20.518 -20.953  0.00  0.00    +0.150 HD
BRANCH  10  14
ATOM     12 CL   UNL     1      34.017 -23.844 -15.485  0.00  0.00    -0.075 Cl
ATOM     13  S   UNL     1      35.580 -22.521 -17.634  0.00  0.00    -0.071 S 
ATOM     14  C   UNL     1      34.824 -22.028 -19.066  0.00  0.00    +0.084 C 
ATOM     15  C   UNL     1      33.500 -22.289 -19.125  0.00  0.00    +0.012 C 
ATOM     16  C   UNL     1      33.062 -22.933 -17.931  0.00  0.00    +0.019 C 
ATOM     17  C   UNL     1      34.092 -23.118 -17.036  0.00  0.00    +0.087 C 
ENDBRANCH  10  14
ENDBRANCH   3   9
BRANCH   4  18
ATOM     18  O   UNL     1      37.691 -18.749 -21.447  0.00  0.00    -0.385 OA
ATOM     19  H   UNL     1      37.882 -19.675 -21.231  0.00  0.00    +0.210 HD
ENDBRANCH   4  18
ENDBRANCH   1   2
BRANCH   1  22
ATOM     20  O   UNL     1      36.144 -15.623 -24.438  0.00  0.00    -0.277 OA
ATOM     21  N   UNL     1      33.823 -15.272 -24.404  0.00  0.00    -0.284 N 
ATOM     22  C   UNL     1      34.988 -16.031 -24.488  0.00  0.00    +0.205 C 
ATOM     23  H   UNL     1      32.975 -15.769 -24.468  0.00  0.00    +0.155 HD
BRANCH  21  25
ATOM     24  F   UNL     1      34.258 -13.535 -26.526  0.00  0.00    -0.203 F 
ATOM     25  C   UNL     1      33.714 -13.870 -24.239  0.00  0.00    +0.078 C 
ATOM     26  C   UNL     1      33.939 -13.038 -25.322  0.00  0.00    +0.155 C 
ATOM     27  C   UNL     1      33.385 -13.362 -22.993  0.00  0.00    +0.018 C 
ATOM     28  C   UNL     1      33.501 -11.129 -23.908  0.00  0.00    +0.061 C 
ATOM     29  C   UNL     1      33.832 -11.657 -25.156  0.00  0.00    +0.046 C 
ATOM     30  C   UNL     1      33.278 -11.982 -22.826  0.00  0.00    +0.017 C 
BRANCH  28  32
ATOM     31  O   UNL     1      35.670  -9.238 -24.200  0.00  0.00    -0.269 OA
ATOM     32  N   UNL     1      33.391  -9.693 -23.735  0.00  0.00    -0.233 N 
ATOM     33  C   UNL     1      34.525  -8.866 -23.947  0.00  0.00    +0.257 C 
ATOM     34  C   UNL     1      32.181  -9.119 -23.340  0.00  0.00    +0.072 C 
ATOM     35  C   UNL     1      34.312  -7.394 -23.793  0.00  0.00    +0.059 C 
ATOM     36  C   UNL     1      32.025  -7.801 -23.178  0.00  0.00    +0.017 C 
ATOM     37  C   UNL     1      33.124  -6.914 -23.420  0.00  0.00    +0.006 C 
ENDBRANCH  28  32
ENDBRANCH  21  25
ENDBRANCH   1  22
TORSDOF 7
ENDMDL
MODEL 7
REMARK VINA RESULT:     -10.7      2.954      4.651
REMARK  Name = 11979006
REMARK  7 active torsions:
REMARK  status: ('A' for Active; 'I' for Inactive)
REMARK    1  A    between atoms: C_1  and  N_2
REMARK    2  A    between atoms: C_1  and  C_22
REMARK    3  A    between atoms: C_3  and  N_9
REMARK    4  A    between atoms: C_4  and  O_18
REMARK    5  A    between atoms: C_10  and  C_14
REMARK    6  A    between atoms: N_21  and  C_25
REMARK    7  A    between atoms: C_28  and  N_32
REMARK                            x       y       z     vdW  Elec       q    Type
REMARK                         _______ _______ _______ _____ _____    ______ ____
ROOT
ATOM      1  C   UNL     1      32.211 -23.894 -16.499  0.00  0.00    +0.010 C 
ENDROOT
BRANCH   1   2
ATOM      2  N   UNL     1      33.260 -23.624 -15.527  0.00  0.00    +0.396 N 
ATOM      3  C   UNL     1      35.454 -23.781 -14.819  0.00  0.00    +0.076 C 
ATOM      4  C   UNL     1      34.583 -24.446 -13.751  0.00  0.00    +0.106 C 
ATOM      5  C   UNL     1      34.599 -23.832 -16.077  0.00  0.00    -0.054 C 
ATOM      6  C   UNL     1      33.178 -24.500 -14.353  0.00  0.00    -0.045 C 
ATOM      7  H   UNL     1      33.114 -22.648 -15.271  0.00  0.00    -0.079 HD
BRANCH   3   9
ATOM      8  O   UNL     1      37.804 -23.243 -13.356  0.00  0.00    -0.270 OA
ATOM      9  N   UNL     1      36.719 -24.443 -14.988  0.00  0.00    -0.302 N 
ATOM     10  C   UNL     1      37.842 -24.119 -14.222  0.00  0.00    +0.252 C 
ATOM     11  H   UNL     1      36.798 -25.149 -15.669  0.00  0.00    +0.150 HD
BRANCH  10  14
ATOM     12 CL   UNL     1      41.996 -27.652 -13.732  0.00  0.00    -0.075 Cl
ATOM     13  S   UNL     1      39.564 -26.004 -13.308  0.00  0.00    -0.071 S 
ATOM     14  C   UNL     1      39.054 -24.906 -14.490  0.00  0.00    +0.084 C 
ATOM     15  C   UNL     1      39.834 -24.860 -15.593  0.00  0.00    +0.012 C 
ATOM     16  C   UNL     1      40.921 -25.775 -15.477  0.00  0.00    +0.019 C 
ATOM     17  C   UNL     1      40.893 -26.462 -14.284  0.00  0.00    +0.087 C 
ENDBRANCH  10  14
ENDBRANCH   3   9
BRANCH   4  18
ATOM     18  O   UNL     1      34.598 -23.653 -12.571  0.00  0.00    -0.385 OA
ATOM     19  H   UNL     1      35.407 -23.119 -12.551  0.00  0.00    +0.210 HD
ENDBRANCH   4  18
ENDBRANCH   1   2
BRANCH   1  22
ATOM     20  O   UNL     1      31.212 -22.028 -17.658  0.00  0.00    -0.277 OA
ATOM     21  N   UNL     1      33.368 -22.747 -18.248  0.00  0.00    -0.284 N 
ATOM     22  C   UNL     1      32.176 -22.776 -17.527  0.00  0.00    +0.205 C 
ATOM     23  H   UNL     1      34.039 -23.425 -18.004  0.00  0.00    +0.155 HD
BRANCH  21  25
ATOM     24  F   UNL     1      36.026 -22.338 -18.939  0.00  0.00    -0.203 F 
ATOM     25  C   UNL     1      33.726 -21.859 -19.290  0.00  0.00    +0.078 C 
ATOM     26  C   UNL     1      35.063 -21.682 -19.604  0.00  0.00    +0.155 C 
ATOM     27  C   UNL     1      32.728 -21.184 -19.974  0.00  0.00    +0.018 C 
ATOM     28  C   UNL     1      34.420 -20.117 -21.329  0.00  0.00    +0.061 C 
ATOM     29  C   UNL     1      35.413 -20.806 -20.631  0.00  0.00    +0.046 C 
ATOM     30  C   UNL     1      33.078 -20.307 -21.000  0.00  0.00    +0.017 C 
BRANCH  28  32
ATOM     31  O   UNL     1      35.672 -17.536 -20.967  0.00  0.00    -0.269 OA
ATOM     32  N   UNL     1      34.785 -19.206 -22.396  0.00  0.00    -0.233 N 
ATOM     33  C   UNL     1      35.433 -17.981 -22.089  0.00  0.00    +0.257 C 
ATOM     34  C   UNL     1      34.483 -19.513 -23.724  0.00  0.00    +0.072 C 
ATOM     35  C   UNL     1      35.816 -17.122 -23.252  0.00  0.00    +0.059 C 
ATOM     36  C   UNL     1      34.807 -18.712 -24.744  0.00  0.00    +0.017 C 
ATOM     37  C   UNL     1      35.501 -17.483 -24.497  0.00  0.00    +0.006 C 
ENDBRANCH  28  32
ENDBRANCH  21  25
ENDBRANCH   1  22
TORSDOF 7
ENDMDL
MODEL 8
REMARK VINA RESULT:     -10.7      4.887     11.548
REMARK  Name = 11979006
REMARK  7 active torsions:
REMARK  status: ('A' for Active; 'I' for Inactive)
REMARK    1  A    between atoms: C_1  and  N_2
REMARK    2  A    between atoms: C_1  and  C_22
REMARK    3  A    between atoms: C_3  and  N_9
REMARK    4  A    between atoms: C_4  and  O_18
REMARK    5  A    between atoms: C_10  and  C_14
REMARK    6  A    between atoms: N_21  and  C_25
REMARK    7  A    between atoms: C_28  and  N_32
REMARK                            x       y       z     vdW  Elec       q    Type
REMARK                         _______ _______ _______ _____ _____    ______ ____
ROOT
ATOM      1  C   UNL     1      36.668 -18.660 -23.306  0.00  0.00    +0.010 C 
ENDROOT
BRANCH   1   2
ATOM      2  N   UNL     1      36.051 -17.566 -24.039  0.00  0.00    +0.396 N 
ATOM      3  C   UNL     1      34.927 -15.547 -24.099  0.00  0.00    +0.076 C 
ATOM      4  C   UNL     1      34.054 -16.575 -24.822  0.00  0.00    +0.106 C 
ATOM      5  C   UNL     1      35.822 -16.389 -23.200  0.00  0.00    -0.054 C 
ATOM      6  C   UNL     1      34.735 -17.923 -24.580  0.00  0.00    -0.045 C 
ATOM      7  H   UNL     1      36.715 -17.363 -24.785  0.00  0.00    -0.079 HD
BRANCH   3   9
ATOM      8  O   UNL     1      34.468 -12.867 -24.847  0.00  0.00    -0.270 OA
ATOM      9  N   UNL     1      34.152 -14.589 -23.359  0.00  0.00    -0.302 N 
ATOM     10  C   UNL     1      33.970 -13.275 -23.797  0.00  0.00    +0.252 C 
ATOM     11  H   UNL     1      33.735 -14.869 -22.512  0.00  0.00    +0.150 HD
BRANCH  10  14
ATOM     12 CL   UNL     1      30.866 -11.445 -19.673  0.00  0.00    -0.075 Cl
ATOM     13  S   UNL     1      32.578 -13.065 -21.479  0.00  0.00    -0.071 S 
ATOM     14  C   UNL     1      33.125 -12.424 -22.946  0.00  0.00    +0.084 C 
ATOM     15  C   UNL     1      32.719 -11.159 -23.197  0.00  0.00    +0.012 C 
ATOM     16  C   UNL     1      31.908 -10.672 -22.131  0.00  0.00    +0.019 C 
ATOM     17  C   UNL     1      31.752 -11.606 -21.132  0.00  0.00    +0.087 C 
ENDBRANCH  10  14
ENDBRANCH   3   9
BRANCH   4  18
ATOM     18  O   UNL     1      34.018 -16.268 -26.210  0.00  0.00    -0.385 OA
ATOM     19  H   UNL     1      34.200 -17.071 -26.723  0.00  0.00    +0.210 HD
ENDBRANCH   4  18
ENDBRANCH   1   2
BRANCH   1  22
ATOM     20  O   UNL     1      35.358 -18.021 -21.383  0.00  0.00    -0.277 OA
ATOM     21  N   UNL     1      35.856 -20.286 -21.753  0.00  0.00    -0.284 N 
ATOM     22  C   UNL     1      35.882 -18.921 -22.032  0.00  0.00    +0.205 C 
ATOM     23  H   UNL     1      36.330 -20.869 -22.390  0.00  0.00    +0.155 HD
BRANCH  21  25
ATOM     24  F   UNL     1      33.091 -20.332 -21.504  0.00  0.00    -0.203 F 
ATOM     25  C   UNL     1      35.228 -20.933 -20.661  0.00  0.00    +0.078 C 
ATOM     26  C   UNL     1      33.846 -20.934 -20.574  0.00  0.00    +0.155 C 
ATOM     27  C   UNL     1      36.014 -21.553 -19.703  0.00  0.00    +0.018 C 
ATOM     28  C   UNL     1      34.007 -22.200 -18.522  0.00  0.00    +0.061 C 
ATOM     29  C   UNL     1      33.231 -21.572 -19.497  0.00  0.00    +0.046 C 
ATOM     30  C   UNL     1      35.399 -22.190 -18.626  0.00  0.00    +0.017 C 
BRANCH  28  32
ATOM     31  O   UNL     1      35.361 -23.810 -16.537  0.00  0.00    -0.269 OA
ATOM     32  N   UNL     1      33.368 -22.863 -17.403  0.00  0.00    -0.233 N 
ATOM     33  C   UNL     1      34.151 -23.594 -16.472  0.00  0.00    +0.257 C 
ATOM     34  C   UNL     1      31.982 -22.806 -17.244  0.00  0.00    +0.072 C 
ATOM     35  C   UNL     1      33.418 -24.206 -15.321  0.00  0.00    +0.059 C 
ATOM     36  C   UNL     1      31.346 -23.390 -16.223  0.00  0.00    +0.017 C 
ATOM     37  C   UNL     1      32.090 -24.105 -15.230  0.00  0.00    +0.006 C 
ENDBRANCH  28  32
ENDBRANCH  21  25
ENDBRANCH   1  22
TORSDOF 7
ENDMDL
MODEL 9
REMARK VINA RESULT:     -10.6      5.016     12.270
REMARK  Name = 11979006
REMARK  7 active torsions:
REMARK  status: ('A' for Active; 'I' for Inactive)
REMARK    1  A    between atoms: C_1  and  N_2
REMARK    2  A    between atoms: C_1  and  C_22
REMARK    3  A    between atoms: C_3  and  N_9
REMARK    4  A    between atoms: C_4  and  O_18
REMARK    5  A    between atoms: C_10  and  C_14
REMARK    6  A    between atoms: N_21  and  C_25
REMARK    7  A    between atoms: C_28  and  N_32
REMARK                            x       y       z     vdW  Elec       q    Type
REMARK                         _______ _______ _______ _____ _____    ______ ____
ROOT
ATOM      1  C   UNL     1      34.481 -20.804 -20.921  0.00  0.00    +0.010 C 
ENDROOT
BRANCH   1   2
ATOM      2  N   UNL     1      35.398 -19.715 -21.223  0.00  0.00    +0.396 N 
ATOM      3  C   UNL     1      35.853 -17.649 -22.155  0.00  0.00    +0.076 C 
ATOM      4  C   UNL     1      36.776 -18.665 -22.831  0.00  0.00    +0.106 C 
ATOM      5  C   UNL     1      34.702 -18.491 -21.623  0.00  0.00    -0.054 C 
ATOM      6  C   UNL     1      36.301 -20.033 -22.336  0.00  0.00    -0.045 C 
ATOM      7  H   UNL     1      35.914 -19.579 -20.355  0.00  0.00    -0.079 HD
BRANCH   3   9
ATOM      8  O   UNL     1      34.838 -15.125 -21.410  0.00  0.00    -0.270 OA
ATOM      9  N   UNL     1      35.409 -16.622 -23.058  0.00  0.00    -0.302 N 
ATOM     10  C   UNL     1      34.917 -15.393 -22.610  0.00  0.00    +0.252 C 
ATOM     11  H   UNL     1      35.452 -16.790 -24.026  0.00  0.00    +0.150 HD
BRANCH  10  14
ATOM     12 CL   UNL     1      33.317 -13.211 -27.370  0.00  0.00    -0.075 Cl
ATOM     13  S   UNL     1      34.113 -15.046 -25.176  0.00  0.00    -0.071 S 
ATOM     14  C   UNL     1      34.532 -14.434 -23.655  0.00  0.00    +0.084 C 
ATOM     15  C   UNL     1      34.471 -13.088 -23.551  0.00  0.00    +0.012 C 
ATOM     16  C   UNL     1      34.056 -12.507 -24.785  0.00  0.00    +0.019 C 
ATOM     17  C   UNL     1      33.827 -13.459 -25.753  0.00  0.00    +0.087 C 
ENDBRANCH  10  14
ENDBRANCH   3   9
BRANCH   4  18
ATOM     18  O   UNL     1      38.118 -18.420 -22.430  0.00  0.00    -0.385 OA
ATOM     19  H   UNL     1      38.529 -19.253 -22.153  0.00  0.00    +0.210 HD
ENDBRANCH   4  18
ENDBRANCH   1   2
BRANCH   1  22
ATOM     20  O   UNL     1      35.706 -22.850 -20.552  0.00  0.00    -0.277 OA
ATOM     21  N   UNL     1      35.172 -21.467 -18.731  0.00  0.00    -0.284 N 
ATOM     22  C   UNL     1      35.194 -21.842 -20.073  0.00  0.00    +0.205 C 
ATOM     23  H   UNL     1      34.718 -20.617 -18.525  0.00  0.00    +0.155 HD
BRANCH  21  25
ATOM     24  F   UNL     1      33.593 -23.053 -17.089  0.00  0.00    -0.203 F 
ATOM     25  C   UNL     1      35.726 -22.162 -17.630  0.00  0.00    +0.078 C 
ATOM     26  C   UNL     1      34.904 -22.943 -16.835  0.00  0.00    +0.155 C 
ATOM     27  C   UNL     1      37.082 -22.044 -17.371  0.00  0.00    +0.018 C 
ATOM     28  C   UNL     1      36.817 -23.518 -15.475  0.00  0.00    +0.061 C 
ATOM     29  C   UNL     1      35.454 -23.626 -15.750  0.00  0.00    +0.046 C 
ATOM     30  C   UNL     1      37.631 -22.727 -16.286  0.00  0.00    +0.017 C 
BRANCH  28  32
ATOM     31  O   UNL     1      37.651 -26.288 -15.491  0.00  0.00    -0.269 OA
ATOM     32  N   UNL     1      37.387 -24.228 -14.347  0.00  0.00    -0.233 N 
ATOM     33  C   UNL     1      37.795 -25.580 -14.495  0.00  0.00    +0.257 C 
ATOM     34  C   UNL     1      37.519 -23.599 -13.107  0.00  0.00    +0.072 C 
ATOM     35  C   UNL     1      38.416 -26.222 -13.295  0.00  0.00    +0.059 C 
ATOM     36  C   UNL     1      38.048 -24.206 -12.040  0.00  0.00    +0.017 C 
ATOM     37  C   UNL     1      38.516 -25.557 -12.143  0.00  0.00    +0.006 C 
ENDBRANCH  28  32
ENDBRANCH  21  25
ENDBRANCH   1  22
TORSDOF 7
ENDMDL
