MODEL 1
REMARK VINA RESULT:     -14.1      0.000      0.000
REMARK  Name = 89670174
REMARK  4 active torsions:
REMARK  status: ('A' for Active; 'I' for Inactive)
REMARK    1  A    between atoms: C_3  and  C_13
REMARK    2  A    between atoms: C_9  and  O_26
REMARK    3  A    between atoms: C_18  and  C_25
REMARK    4  A    between atoms: O_26  and  C_30
REMARK                            x       y       z     vdW  Elec       q    Type
REMARK                         _______ _______ _______ _____ _____    ______ ____
ROOT
ATOM      1  O   UNL     1      35.043 -19.479 -24.342  0.00  0.00    -0.479 OA
ATOM      2  C   UNL     1      35.816 -18.599 -22.196  0.00  0.00    +0.072 C 
ATOM      3  C   UNL     1      34.814 -19.670 -21.792  0.00  0.00    +0.085 C 
ATOM      4  C   UNL     1      35.643 -19.853 -23.045  0.00  0.00    +0.174 C 
ATOM      5  C   UNL     1      35.424 -17.526 -23.145  0.00  0.00    +0.018 C 
ATOM      6  C   UNL     1      35.002 -18.094 -24.355  0.00  0.00    +0.135 C 
ATOM      7  C   UNL     1      35.422 -16.147 -23.003  0.00  0.00    +0.036 C 
ATOM      8  C   UNL     1      34.572 -17.339 -25.428  0.00  0.00    +0.040 C 
ATOM      9  C   UNL     1      34.994 -15.361 -24.077  0.00  0.00    +0.145 C 
ATOM     10  C   UNL     1      34.572 -15.952 -25.281  0.00  0.00    +0.041 C 
ENDROOT
BRANCH   3  13
ATOM     11  N   UNL     1      36.294 -20.591 -19.938  0.00  0.00    -0.318 N 
ATOM     12  N   UNL     1      34.188 -21.300 -20.007  0.00  0.00    -0.318 N 
ATOM     13  C   UNL     1      35.086 -20.527 -20.575  0.00  0.00    +0.148 C 
ATOM     14  C   UNL     1      36.166 -21.463 -18.887  0.00  0.00    +0.059 C 
ATOM     15  C   UNL     1      34.844 -21.892 -18.951  0.00  0.00    +0.059 C 
ATOM     16  C   UNL     1      37.068 -21.900 -17.915  0.00  0.00    +0.019 C 
ATOM     17  C   UNL     1      34.375 -22.811 -17.998  0.00  0.00    +0.016 C 
ATOM     18  C   UNL     1      36.584 -22.815 -16.974  0.00  0.00    +0.073 C 
ATOM     19  C   UNL     1      35.262 -23.263 -17.013  0.00  0.00    +0.005 C 
ATOM     20  H   UNL     1      37.109 -20.099 -20.188  0.00  0.00    +0.148 HD
ATOM     21  H   UNL     1      33.250 -21.428 -20.277  0.00  0.00    +0.148 HD
BRANCH  18  25
ATOM     22  F   UNL     1      38.822 -23.204 -16.227  0.00  0.00    -0.166 F 
ATOM     23  F   UNL     1      37.362 -22.665 -14.717  0.00  0.00    -0.166 F 
ATOM     24  F   UNL     1      37.301 -24.638 -15.628  0.00  0.00    -0.166 F 
ATOM     25  C   UNL     1      37.499 -23.318 -15.908  0.00  0.00    +0.419 C 
ENDBRANCH  18  25
ENDBRANCH   3  13
BRANCH   9  26
ATOM     26  O   UNL     1      34.983 -13.982 -23.955  0.00  0.00    -0.454 OA
BRANCH  26  30
ATOM     27  O   UNL     1      32.282  -8.252 -23.752  0.00  0.00    -0.275 OA
ATOM     28  N   UNL     1      32.144 -10.295 -22.712  0.00  0.00    -0.270 N 
ATOM     29  N   UNL     1      32.012 -12.352 -21.552  0.00  0.00    -0.229 NA
ATOM     30  C   UNL     1      34.025 -13.424 -23.163  0.00  0.00    +0.146 C 
ATOM     31  C   UNL     1      33.606 -12.106 -23.353  0.00  0.00    +0.045 C 
ATOM     32  C   UNL     1      34.129 -11.273 -24.482  0.00  0.00    +0.042 C 
ATOM     33  C   UNL     1      33.451 -14.196 -22.159  0.00  0.00    +0.058 C 
ATOM     34  C   UNL     1      32.601 -11.613 -22.523  0.00  0.00    +0.133 C 
ATOM     35  C   UNL     1      34.078  -9.794 -24.131  0.00  0.00    +0.090 C 
ATOM     36  C   UNL     1      32.742  -9.376 -23.552  0.00  0.00    +0.227 C 
ATOM     37  C   UNL     1      32.455 -13.619 -21.391  0.00  0.00    +0.103 C 
ATOM     38  H   UNL     1      31.346 -10.008 -22.213  0.00  0.00    +0.156 HD
ENDBRANCH  26  30
ENDBRANCH   9  26
TORSDOF 4
ENDMDL
MODEL 2
REMARK VINA RESULT:     -13.3      1.641      2.226
REMARK  Name = 89670174
REMARK  4 active torsions:
REMARK  status: ('A' for Active; 'I' for Inactive)
REMARK    1  A    between atoms: C_3  and  C_13
REMARK    2  A    between atoms: C_9  and  O_26
REMARK    3  A    between atoms: C_18  and  C_25
REMARK    4  A    between atoms: O_26  and  C_30
REMARK                            x       y       z     vdW  Elec       q    Type
REMARK                         _______ _______ _______ _____ _____    ______ ____
ROOT
ATOM      1  O   UNL     1      35.018 -19.434 -24.373  0.00  0.00    -0.479 OA
ATOM      2  C   UNL     1      35.358 -18.623 -22.092  0.00  0.00    +0.072 C 
ATOM      3  C   UNL     1      34.258 -19.660 -21.932  0.00  0.00    +0.085 C 
ATOM      4  C   UNL     1      35.322 -19.853 -22.990  0.00  0.00    +0.174 C 
ATOM      5  C   UNL     1      35.210 -17.518 -23.074  0.00  0.00    +0.018 C 
ATOM      6  C   UNL     1      35.029 -18.048 -24.359  0.00  0.00    +0.135 C 
ATOM      7  C   UNL     1      35.227 -16.143 -22.900  0.00  0.00    +0.036 C 
ATOM      8  C   UNL     1      34.859 -17.257 -25.478  0.00  0.00    +0.040 C 
ATOM      9  C   UNL     1      35.059 -15.321 -24.020  0.00  0.00    +0.145 C 
ATOM     10  C   UNL     1      34.877 -15.874 -25.299  0.00  0.00    +0.041 C 
ENDROOT
BRANCH   3  13
ATOM     11  N   UNL     1      33.101 -20.944 -20.064  0.00  0.00    -0.318 N 
ATOM     12  N   UNL     1      35.321 -21.030 -20.136  0.00  0.00    -0.318 N 
ATOM     13  C   UNL     1      34.241 -20.549 -20.708  0.00  0.00    +0.148 C 
ATOM     14  C   UNL     1      33.471 -21.735 -19.007  0.00  0.00    +0.059 C 
ATOM     15  C   UNL     1      34.860 -21.774 -19.072  0.00  0.00    +0.059 C 
ATOM     16  C   UNL     1      32.731 -22.400 -18.027  0.00  0.00    +0.019 C 
ATOM     17  C   UNL     1      35.572 -22.514 -18.113  0.00  0.00    +0.016 C 
ATOM     18  C   UNL     1      33.455 -23.132 -17.080  0.00  0.00    +0.073 C 
ATOM     19  C   UNL     1      34.850 -23.189 -17.121  0.00  0.00    +0.005 C 
ATOM     20  H   UNL     1      32.180 -20.705 -20.315  0.00  0.00    +0.148 HD
ATOM     21  H   UNL     1      36.257 -20.891 -20.408  0.00  0.00    +0.148 HD
BRANCH  18  25
ATOM     22  F   UNL     1      32.245 -23.056 -15.019  0.00  0.00    -0.166 F 
ATOM     23  F   UNL     1      31.630 -24.551 -16.465  0.00  0.00    -0.166 F 
ATOM     24  F   UNL     1      33.500 -24.794 -15.382  0.00  0.00    -0.166 F 
ATOM     25  C   UNL     1      32.720 -23.867 -16.009  0.00  0.00    +0.419 C 
ENDBRANCH  18  25
ENDBRANCH   3  13
BRANCH   9  26
ATOM     26  O   UNL     1      35.071 -13.946 -23.867  0.00  0.00    -0.454 OA
BRANCH  26  30
ATOM     27  O   UNL     1      32.326  -8.233 -23.849  0.00  0.00    -0.275 OA
ATOM     28  N   UNL     1      32.165 -10.261 -22.784  0.00  0.00    -0.270 N 
ATOM     29  N   UNL     1      32.005 -12.302 -21.597  0.00  0.00    -0.229 NA
ATOM     30  C   UNL     1      34.082 -13.383 -23.118  0.00  0.00    +0.146 C 
ATOM     31  C   UNL     1      33.661 -12.071 -23.343  0.00  0.00    +0.045 C 
ATOM     32  C   UNL     1      34.219 -11.251 -24.466  0.00  0.00    +0.042 C 
ATOM     33  C   UNL     1      33.477 -14.144 -22.124  0.00  0.00    +0.058 C 
ATOM     34  C   UNL     1      32.623 -11.573 -22.557  0.00  0.00    +0.133 C 
ATOM     35  C   UNL     1      34.145  -9.768 -24.140  0.00  0.00    +0.090 C 
ATOM     36  C   UNL     1      32.786  -9.351 -23.616  0.00  0.00    +0.227 C 
ATOM     37  C   UNL     1      32.451 -13.562 -21.401  0.00  0.00    +0.103 C 
ATOM     38  H   UNL     1      31.347  -9.973 -22.317  0.00  0.00    +0.156 HD
ENDBRANCH  26  30
ENDBRANCH   9  26
TORSDOF 4
ENDMDL
MODEL 3
REMARK VINA RESULT:     -13.1      5.853     11.434
REMARK  Name = 89670174
REMARK  4 active torsions:
REMARK  status: ('A' for Active; 'I' for Inactive)
REMARK    1  A    between atoms: C_3  and  C_13
REMARK    2  A    between atoms: C_9  and  O_26
REMARK    3  A    between atoms: C_18  and  C_25
REMARK    4  A    between atoms: O_26  and  C_30
REMARK                            x       y       z     vdW  Elec       q    Type
REMARK                         _______ _______ _______ _____ _____    ______ ____
ROOT
ATOM      1  O   UNL     1      37.697 -19.182 -20.151  0.00  0.00    -0.479 OA
ATOM      2  C   UNL     1      35.834 -19.661 -21.659  0.00  0.00    +0.072 C 
ATOM      3  C   UNL     1      35.719 -18.162 -21.429  0.00  0.00    +0.085 C 
ATOM      4  C   UNL     1      37.084 -18.816 -21.443  0.00  0.00    +0.174 C 
ATOM      5  C   UNL     1      35.888 -20.594 -20.505  0.00  0.00    +0.018 C 
ATOM      6  C   UNL     1      36.980 -20.274 -19.687  0.00  0.00    +0.135 C 
ATOM      7  C   UNL     1      35.066 -21.655 -20.160  0.00  0.00    +0.036 C 
ATOM      8  C   UNL     1      37.281 -20.969 -18.533  0.00  0.00    +0.040 C 
ATOM      9  C   UNL     1      35.353 -22.377 -18.996  0.00  0.00    +0.145 C 
ATOM     10  C   UNL     1      36.452 -22.036 -18.189  0.00  0.00    +0.041 C 
ENDROOT
BRANCH   3  13
ATOM     11  N   UNL     1      35.181 -15.902 -22.470  0.00  0.00    -0.318 N 
ATOM     12  N   UNL     1      35.013 -17.691 -23.778  0.00  0.00    -0.318 N 
ATOM     13  C   UNL     1      35.303 -17.260 -22.571  0.00  0.00    +0.148 C 
ATOM     14  C   UNL     1      34.788 -15.425 -23.694  0.00  0.00    +0.059 C 
ATOM     15  C   UNL     1      34.690 -16.560 -24.493  0.00  0.00    +0.059 C 
ATOM     16  C   UNL     1      34.517 -14.136 -24.156  0.00  0.00    +0.019 C 
ATOM     17  C   UNL     1      34.300 -16.421 -25.836  0.00  0.00    +0.016 C 
ATOM     18  C   UNL     1      34.130 -14.016 -25.496  0.00  0.00    +0.073 C 
ATOM     19  C   UNL     1      34.024 -15.137 -26.321  0.00  0.00    +0.005 C 
ATOM     20  H   UNL     1      35.347 -15.363 -21.663  0.00  0.00    +0.148 HD
ATOM     21  H   UNL     1      35.025 -18.621 -24.102  0.00  0.00    +0.148 HD
BRANCH  18  25
ATOM     22  F   UNL     1      33.357 -11.785 -25.118  0.00  0.00    -0.166 F 
ATOM     23  F   UNL     1      34.915 -12.046 -26.603  0.00  0.00    -0.166 F 
ATOM     24  F   UNL     1      32.887 -12.700 -27.034  0.00  0.00    -0.166 F 
ATOM     25  C   UNL     1      33.830 -12.663 -26.050  0.00  0.00    +0.419 C 
ENDBRANCH  18  25
ENDBRANCH   3  13
BRANCH   9  26
ATOM     26  O   UNL     1      34.544 -23.439 -18.633  0.00  0.00    -0.454 OA
BRANCH  26  30
ATOM     27  O   UNL     1      34.807 -24.472 -12.385  0.00  0.00    -0.275 OA
ATOM     28  N   UNL     1      33.383 -23.600 -13.961  0.00  0.00    -0.270 N 
ATOM     29  N   UNL     1      31.843 -22.764 -15.550  0.00  0.00    -0.229 NA
ATOM     30  C   UNL     1      33.663 -23.244 -17.612  0.00  0.00    +0.146 C 
ATOM     31  C   UNL     1      33.998 -23.564 -16.295  0.00  0.00    +0.045 C 
ATOM     32  C   UNL     1      35.365 -24.059 -15.933  0.00  0.00    +0.042 C 
ATOM     33  C   UNL     1      32.414 -22.703 -17.897  0.00  0.00    +0.058 C 
ATOM     34  C   UNL     1      33.057 -23.309 -15.299  0.00  0.00    +0.133 C 
ATOM     35  C   UNL     1      35.313 -24.925 -14.685  0.00  0.00    +0.090 C 
ATOM     36  C   UNL     1      34.511 -24.291 -13.566  0.00  0.00    +0.227 C 
ATOM     37  C   UNL     1      31.551 -22.482 -16.839  0.00  0.00    +0.103 C 
ATOM     38  H   UNL     1      32.765 -23.291 -13.260  0.00  0.00    +0.156 HD
ENDBRANCH  26  30
ENDBRANCH   9  26
TORSDOF 4
ENDMDL
MODEL 4
REMARK VINA RESULT:     -13.1      5.964     11.504
REMARK  Name = 89670174
REMARK  4 active torsions:
REMARK  status: ('A' for Active; 'I' for Inactive)
REMARK    1  A    between atoms: C_3  and  C_13
REMARK    2  A    between atoms: C_9  and  O_26
REMARK    3  A    between atoms: C_18  and  C_25
REMARK    4  A    between atoms: O_26  and  C_30
REMARK                            x       y       z     vdW  Elec       q    Type
REMARK                         _______ _______ _______ _____ _____    ______ ____
ROOT
ATOM      1  O   UNL     1      37.494 -19.558 -21.246  0.00  0.00    -0.479 OA
ATOM      2  C   UNL     1      35.164 -19.180 -21.883  0.00  0.00    +0.072 C 
ATOM      3  C   UNL     1      35.695 -17.773 -21.655  0.00  0.00    +0.085 C 
ATOM      4  C   UNL     1      36.617 -18.844 -22.196  0.00  0.00    +0.174 C 
ATOM      5  C   UNL     1      35.306 -20.215 -20.828  0.00  0.00    +0.018 C 
ATOM      6  C   UNL     1      36.661 -20.392 -20.516  0.00  0.00    +0.135 C 
ATOM      7  C   UNL     1      34.350 -20.969 -20.165  0.00  0.00    +0.036 C 
ATOM      8  C   UNL     1      37.100 -21.289 -19.563  0.00  0.00    +0.040 C 
ATOM      9  C   UNL     1      34.771 -21.888 -19.197  0.00  0.00    +0.145 C 
ATOM     10  C   UNL     1      36.136 -22.046 -18.899  0.00  0.00    +0.041 C 
ENDROOT
BRANCH   3  13
ATOM     11  N   UNL     1      34.961 -16.792 -23.885  0.00  0.00    -0.318 N 
ATOM     12  N   UNL     1      35.059 -15.409 -22.148  0.00  0.00    -0.318 N 
ATOM     13  C   UNL     1      35.237 -16.646 -22.554  0.00  0.00    +0.148 C 
ATOM     14  C   UNL     1      34.578 -15.567 -24.370  0.00  0.00    +0.059 C 
ATOM     15  C   UNL     1      34.647 -14.721 -23.267  0.00  0.00    +0.059 C 
ATOM     16  C   UNL     1      34.189 -15.141 -25.640  0.00  0.00    +0.019 C 
ATOM     17  C   UNL     1      34.312 -13.366 -23.421  0.00  0.00    +0.016 C 
ATOM     18  C   UNL     1      33.859 -13.788 -25.776  0.00  0.00    +0.073 C 
ATOM     19  C   UNL     1      33.919 -12.915 -24.687  0.00  0.00    +0.005 C 
ATOM     20  H   UNL     1      35.025 -17.627 -24.403  0.00  0.00    +0.148 HD
ATOM     21  H   UNL     1      35.191 -15.052 -21.240  0.00  0.00    +0.148 HD
BRANCH  18  25
ATOM     22  F   UNL     1      34.337 -13.515 -28.103  0.00  0.00    -0.166 F 
ATOM     23  F   UNL     1      32.259 -13.808 -27.554  0.00  0.00    -0.166 F 
ATOM     24  F   UNL     1      33.242 -11.920 -27.110  0.00  0.00    -0.166 F 
ATOM     25  C   UNL     1      33.433 -13.271 -27.110  0.00  0.00    +0.419 C 
ENDBRANCH  18  25
ENDBRANCH   3  13
BRANCH   9  26
ATOM     26  O   UNL     1      33.833 -22.649 -18.523  0.00  0.00    -0.454 OA
BRANCH  26  30
ATOM     27  O   UNL     1      30.259 -24.438 -13.603  0.00  0.00    -0.275 OA
ATOM     28  N   UNL     1      32.470 -24.161 -14.157  0.00  0.00    -0.270 N 
ATOM     29  N   UNL     1      34.760 -23.817 -14.645  0.00  0.00    -0.229 NA
ATOM     30  C   UNL     1      34.117 -23.015 -17.241  0.00  0.00    +0.146 C 
ATOM     31  C   UNL     1      33.104 -23.377 -16.351  0.00  0.00    +0.045 C 
ATOM     32  C   UNL     1      31.672 -23.458 -16.784  0.00  0.00    +0.042 C 
ATOM     33  C   UNL     1      35.444 -23.037 -16.827  0.00  0.00    +0.058 C 
ATOM     34  C   UNL     1      33.473 -23.767 -15.064  0.00  0.00    +0.133 C 
ATOM     35  C   UNL     1      30.738 -23.214 -15.609  0.00  0.00    +0.090 C 
ATOM     36  C   UNL     1      31.116 -24.022 -14.384  0.00  0.00    +0.227 C 
ATOM     37  C   UNL     1      35.709 -23.446 -15.533  0.00  0.00    +0.103 C 
ATOM     38  H   UNL     1      32.754 -24.561 -13.304  0.00  0.00    +0.156 HD
ENDBRANCH  26  30
ENDBRANCH   9  26
TORSDOF 4
ENDMDL
MODEL 5
REMARK VINA RESULT:     -12.5      5.937     11.508
REMARK  Name = 89670174
REMARK  4 active torsions:
REMARK  status: ('A' for Active; 'I' for Inactive)
REMARK    1  A    between atoms: C_3  and  C_13
REMARK    2  A    between atoms: C_9  and  O_26
REMARK    3  A    between atoms: C_18  and  C_25
REMARK    4  A    between atoms: O_26  and  C_30
REMARK                            x       y       z     vdW  Elec       q    Type
REMARK                         _______ _______ _______ _____ _____    ______ ____
ROOT
ATOM      1  O   UNL     1      37.555 -19.605 -21.061  0.00  0.00    -0.479 OA
ATOM      2  C   UNL     1      35.282 -19.431 -21.944  0.00  0.00    +0.072 C 
ATOM      3  C   UNL     1      35.710 -17.979 -21.795  0.00  0.00    +0.085 C 
ATOM      4  C   UNL     1      36.738 -19.031 -22.149  0.00  0.00    +0.174 C 
ATOM      5  C   UNL     1      35.377 -20.362 -20.791  0.00  0.00    +0.018 C 
ATOM      6  C   UNL     1      36.702 -20.425 -20.339  0.00  0.00    +0.135 C 
ATOM      7  C   UNL     1      34.404 -21.117 -20.154  0.00  0.00    +0.036 C 
ATOM      8  C   UNL     1      37.094 -21.209 -19.272  0.00  0.00    +0.040 C 
ATOM      9  C   UNL     1      34.778 -21.921 -19.072  0.00  0.00    +0.145 C 
ATOM     10  C   UNL     1      36.113 -21.967 -18.635  0.00  0.00    +0.041 C 
ENDROOT
BRANCH   3  13
ATOM     11  N   UNL     1      35.246 -15.614 -22.613  0.00  0.00    -0.318 N 
ATOM     12  N   UNL     1      34.896 -17.276 -24.048  0.00  0.00    -0.318 N 
ATOM     13  C   UNL     1      35.281 -16.964 -22.832  0.00  0.00    +0.148 C 
ATOM     14  C   UNL     1      34.810 -15.016 -23.768  0.00  0.00    +0.059 C 
ATOM     15  C   UNL     1      34.599 -16.072 -24.648  0.00  0.00    +0.059 C 
ATOM     16  C   UNL     1      34.589 -13.680 -24.106  0.00  0.00    +0.019 C 
ATOM     17  C   UNL     1      34.140 -15.800 -25.948  0.00  0.00    +0.016 C 
ATOM     18  C   UNL     1      34.132 -13.427 -25.404  0.00  0.00    +0.073 C 
ATOM     19  C   UNL     1      33.912 -14.467 -26.310  0.00  0.00    +0.005 C 
ATOM     20  H   UNL     1      35.489 -15.155 -21.778  0.00  0.00    +0.148 HD
ATOM     21  H   UNL     1      34.835 -18.174 -24.446  0.00  0.00    +0.148 HD
BRANCH  18  25
ATOM     22  F   UNL     1      33.366 -11.234 -24.834  0.00  0.00    -0.166 F 
ATOM     23  F   UNL     1      35.001 -11.366 -26.254  0.00  0.00    -0.166 F 
ATOM     24  F   UNL     1      32.991 -11.933 -26.859  0.00  0.00    -0.166 F 
ATOM     25  C   UNL     1      33.880 -12.018 -25.828  0.00  0.00    +0.419 C 
ENDBRANCH  18  25
ENDBRANCH   3  13
BRANCH   9  26
ATOM     26  O   UNL     1      33.821 -22.681 -18.422  0.00  0.00    -0.454 OA
BRANCH  26  30
ATOM     27  O   UNL     1      30.224 -24.372 -13.485  0.00  0.00    -0.275 OA
ATOM     28  N   UNL     1      32.438 -24.235 -14.078  0.00  0.00    -0.270 N 
ATOM     29  N   UNL     1      34.736 -24.041 -14.605  0.00  0.00    -0.229 NA
ATOM     30  C   UNL     1      34.102 -23.109 -17.159  0.00  0.00    +0.146 C 
ATOM     31  C   UNL     1      33.084 -23.426 -16.259  0.00  0.00    +0.045 C 
ATOM     32  C   UNL     1      31.642 -23.390 -16.663  0.00  0.00    +0.042 C 
ATOM     33  C   UNL     1      35.432 -23.240 -16.775  0.00  0.00    +0.058 C 
ATOM     34  C   UNL     1      33.448 -23.885 -14.994  0.00  0.00    +0.133 C 
ATOM     35  C   UNL     1      30.750 -23.120 -15.461  0.00  0.00    +0.090 C 
ATOM     36  C   UNL     1      31.093 -23.993 -14.271  0.00  0.00    +0.227 C 
ATOM     37  C   UNL     1      35.692 -23.709 -15.501  0.00  0.00    +0.103 C 
ATOM     38  H   UNL     1      32.709 -24.683 -13.244  0.00  0.00    +0.156 HD
ENDBRANCH  26  30
ENDBRANCH   9  26
TORSDOF 4
ENDMDL
MODEL 6
REMARK VINA RESULT:     -12.4      2.595      4.553
REMARK  Name = 89670174
REMARK  4 active torsions:
REMARK  status: ('A' for Active; 'I' for Inactive)
REMARK    1  A    between atoms: C_3  and  C_13
REMARK    2  A    between atoms: C_9  and  O_26
REMARK    3  A    between atoms: C_18  and  C_25
REMARK    4  A    between atoms: O_26  and  C_30
REMARK                            x       y       z     vdW  Elec       q    Type
REMARK                         _______ _______ _______ _____ _____    ______ ____
ROOT
ATOM      1  O   UNL     1      33.279 -22.085 -20.134  0.00  0.00    -0.479 OA
ATOM      2  C   UNL     1      35.592 -21.926 -19.359  0.00  0.00    +0.072 C 
ATOM      3  C   UNL     1      34.801 -22.061 -18.067  0.00  0.00    +0.085 C 
ATOM      4  C   UNL     1      34.314 -22.755 -19.321  0.00  0.00    +0.174 C 
ATOM      5  C   UNL     1      35.245 -20.868 -20.343  0.00  0.00    +0.018 C 
ATOM      6  C   UNL     1      33.914 -21.020 -20.754  0.00  0.00    +0.135 C 
ATOM      7  C   UNL     1      36.006 -19.834 -20.866  0.00  0.00    +0.036 C 
ATOM      8  C   UNL     1      33.309 -20.176 -21.664  0.00  0.00    +0.040 C 
ATOM      9  C   UNL     1      35.416 -18.967 -21.792  0.00  0.00    +0.145 C 
ATOM     10  C   UNL     1      34.077 -19.137 -22.188  0.00  0.00    +0.041 C 
ENDROOT
BRANCH   3  13
ATOM     11  N   UNL     1      36.686 -22.869 -16.560  0.00  0.00    -0.318 N 
ATOM     12  N   UNL     1      34.652 -23.677 -16.169  0.00  0.00    -0.318 N 
ATOM     13  C   UNL     1      35.368 -22.877 -16.926  0.00  0.00    +0.148 C 
ATOM     14  C   UNL     1      36.829 -23.722 -15.495  0.00  0.00    +0.059 C 
ATOM     15  C   UNL     1      35.546 -24.213 -15.270  0.00  0.00    +0.059 C 
ATOM     16  C   UNL     1      37.937 -24.094 -14.733  0.00  0.00    +0.019 C 
ATOM     17  C   UNL     1      35.338 -25.131 -14.227  0.00  0.00    +0.016 C 
ATOM     18  C   UNL     1      37.712 -25.009 -13.699  0.00  0.00    +0.073 C 
ATOM     19  C   UNL     1      36.436 -25.519 -13.449  0.00  0.00    +0.005 C 
ATOM     20  H   UNL     1      37.403 -22.346 -16.985  0.00  0.00    +0.148 HD
ATOM     21  H   UNL     1      33.686 -23.854 -16.230  0.00  0.00    +0.148 HD
BRANCH  18  25
ATOM     22  F   UNL     1      38.523 -26.401 -11.933  0.00  0.00    -0.166 F 
ATOM     23  F   UNL     1      39.896 -25.974 -13.556  0.00  0.00    -0.166 F 
ATOM     24  F   UNL     1      39.391 -24.417 -12.125  0.00  0.00    -0.166 F 
ATOM     25  C   UNL     1      38.857 -25.444 -12.847  0.00  0.00    +0.419 C 
ENDBRANCH  18  25
ENDBRANCH   3  13
BRANCH   9  26
ATOM     26  O   UNL     1      36.157 -17.927 -22.324  0.00  0.00    -0.454 OA
BRANCH  26  30
ATOM     27  O   UNL     1      32.973 -12.491 -21.628  0.00  0.00    -0.275 OA
ATOM     28  N   UNL     1      33.687 -13.907 -23.290  0.00  0.00    -0.270 N 
ATOM     29  N   UNL     1      34.327 -15.368 -25.037  0.00  0.00    -0.229 NA
ATOM     30  C   UNL     1      35.534 -17.087 -23.197  0.00  0.00    +0.146 C 
ATOM     31  C   UNL     1      34.900 -15.924 -22.755  0.00  0.00    +0.045 C 
ATOM     32  C   UNL     1      34.946 -15.505 -21.318  0.00  0.00    +0.042 C 
ATOM     33  C   UNL     1      35.547 -17.396 -24.553  0.00  0.00    +0.058 C 
ATOM     34  C   UNL     1      34.309 -15.098 -23.710  0.00  0.00    +0.133 C 
ATOM     35  C   UNL     1      33.729 -14.667 -20.960  0.00  0.00    +0.090 C 
ATOM     36  C   UNL     1      33.457 -13.570 -21.971  0.00  0.00    +0.227 C 
ATOM     37  C   UNL     1      34.938 -16.510 -25.422  0.00  0.00    +0.103 C 
ATOM     38  H   UNL     1      33.395 -13.271 -23.983  0.00  0.00    +0.156 HD
ENDBRANCH  26  30
ENDBRANCH   9  26
TORSDOF 4
ENDMDL
MODEL 7
REMARK VINA RESULT:     -12.3      5.661     11.293
REMARK  Name = 89670174
REMARK  4 active torsions:
REMARK  status: ('A' for Active; 'I' for Inactive)
REMARK    1  A    between atoms: C_3  and  C_13
REMARK    2  A    between atoms: C_9  and  O_26
REMARK    3  A    between atoms: C_18  and  C_25
REMARK    4  A    between atoms: O_26  and  C_30
REMARK                            x       y       z     vdW  Elec       q    Type
REMARK                         _______ _______ _______ _____ _____    ______ ____
ROOT
ATOM      1  O   UNL     1      37.084 -19.148 -21.784  0.00  0.00    -0.479 OA
ATOM      2  C   UNL     1      34.720 -18.528 -21.718  0.00  0.00    +0.072 C 
ATOM      3  C   UNL     1      35.430 -17.236 -21.343  0.00  0.00    +0.085 C 
ATOM      4  C   UNL     1      36.084 -18.197 -22.311  0.00  0.00    +0.174 C 
ATOM      5  C   UNL     1      35.002 -19.781 -20.973  0.00  0.00    +0.018 C 
ATOM      6  C   UNL     1      36.367 -20.086 -21.058  0.00  0.00    +0.135 C 
ATOM      7  C   UNL     1      34.159 -20.622 -20.262  0.00  0.00    +0.036 C 
ATOM      8  C   UNL     1      36.926 -21.196 -20.456  0.00  0.00    +0.040 C 
ATOM      9  C   UNL     1      34.702 -21.754 -19.646  0.00  0.00    +0.145 C 
ATOM     10  C   UNL     1      36.075 -22.039 -19.743  0.00  0.00    +0.041 C 
ENDROOT
BRANCH   3  13
ATOM     11  N   UNL     1      34.057 -15.105 -21.118  0.00  0.00    -0.318 N 
ATOM     12  N   UNL     1      35.161 -15.409 -23.023  0.00  0.00    -0.318 N 
ATOM     13  C   UNL     1      34.888 -15.914 -21.842  0.00  0.00    +0.148 C 
ATOM     14  C   UNL     1      33.775 -14.003 -21.884  0.00  0.00    +0.059 C 
ATOM     15  C   UNL     1      34.475 -14.215 -23.068  0.00  0.00    +0.059 C 
ATOM     16  C   UNL     1      32.991 -12.872 -21.650  0.00  0.00    +0.019 C 
ATOM     17  C   UNL     1      34.401 -13.255 -24.090  0.00  0.00    +0.016 C 
ATOM     18  C   UNL     1      32.927 -11.926 -22.679  0.00  0.00    +0.073 C 
ATOM     19  C   UNL     1      33.620 -12.112 -23.877  0.00  0.00    +0.005 C 
ATOM     20  H   UNL     1      33.721 -15.281 -20.210  0.00  0.00    +0.148 HD
ATOM     21  H   UNL     1      35.732 -15.797 -23.725  0.00  0.00    +0.148 HD
BRANCH  18  25
ATOM     22  F   UNL     1      30.763 -10.931 -22.475  0.00  0.00    -0.166 F 
ATOM     23  F   UNL     1      32.365 -10.042 -21.316  0.00  0.00    -0.166 F 
ATOM     24  F   UNL     1      32.309  -9.773 -23.473  0.00  0.00    -0.166 F 
ATOM     25  C   UNL     1      32.107 -10.694 -22.487  0.00  0.00    +0.419 C 
ENDBRANCH  18  25
ENDBRANCH   3  13
BRANCH   9  26
ATOM     26  O   UNL     1      33.877 -22.605 -18.931  0.00  0.00    -0.454 OA
BRANCH  26  30
ATOM     27  O   UNL     1      30.541 -24.248 -13.798  0.00  0.00    -0.275 OA
ATOM     28  N   UNL     1      32.719 -23.905 -14.440  0.00  0.00    -0.270 N 
ATOM     29  N   UNL     1      34.974 -23.489 -15.023  0.00  0.00    -0.229 NA
ATOM     30  C   UNL     1      34.216 -22.878 -17.640  0.00  0.00    +0.146 C 
ATOM     31  C   UNL     1      33.249 -23.230 -16.697  0.00  0.00    +0.045 C 
ATOM     32  C   UNL     1      31.810 -23.402 -17.076  0.00  0.00    +0.042 C 
ATOM     33  C   UNL     1      35.555 -22.815 -17.269  0.00  0.00    +0.058 C 
ATOM     34  C   UNL     1      33.674 -23.523 -15.402  0.00  0.00    +0.133 C 
ATOM     35  C   UNL     1      30.901 -23.129 -15.888  0.00  0.00    +0.090 C 
ATOM     36  C   UNL     1      31.353 -23.843 -14.630  0.00  0.00    +0.227 C 
ATOM     37  C   UNL     1      35.877 -23.131 -15.962  0.00  0.00    +0.103 C 
ATOM     38  H   UNL     1      33.047 -24.239 -13.574  0.00  0.00    +0.156 HD
ENDBRANCH  26  30
ENDBRANCH   9  26
TORSDOF 4
ENDMDL
MODEL 8
REMARK VINA RESULT:     -12.0      6.631     12.491
REMARK  Name = 89670174
REMARK  4 active torsions:
REMARK  status: ('A' for Active; 'I' for Inactive)
REMARK    1  A    between atoms: C_3  and  C_13
REMARK    2  A    between atoms: C_9  and  O_26
REMARK    3  A    between atoms: C_18  and  C_25
REMARK    4  A    between atoms: O_26  and  C_30
REMARK                            x       y       z     vdW  Elec       q    Type
REMARK                         _______ _______ _______ _____ _____    ______ ____
ROOT
ATOM      1  O   UNL     1      31.486 -23.661 -16.807  0.00  0.00    -0.479 OA
ATOM      2  C   UNL     1      33.616 -22.482 -16.580  0.00  0.00    +0.072 C 
ATOM      3  C   UNL     1      33.621 -22.932 -18.033  0.00  0.00    +0.085 C 
ATOM      4  C   UNL     1      32.312 -22.570 -17.364  0.00  0.00    +0.174 C 
ATOM      5  C   UNL     1      33.389 -23.466 -15.491  0.00  0.00    +0.018 C 
ATOM      6  C   UNL     1      32.152 -24.098 -15.673  0.00  0.00    +0.135 C 
ATOM      7  C   UNL     1      34.178 -23.814 -14.405  0.00  0.00    +0.036 C 
ATOM      8  C   UNL     1      31.672 -25.069 -14.816  0.00  0.00    +0.040 C 
ATOM      9  C   UNL     1      33.712 -24.792 -13.521  0.00  0.00    +0.145 C 
ATOM     10  C   UNL     1      32.469 -25.414 -13.725  0.00  0.00    +0.041 C 
ENDROOT
BRANCH   3  13
ATOM     11  N   UNL     1      33.461 -21.404 -20.062  0.00  0.00    -0.318 N 
ATOM     12  N   UNL     1      35.480 -21.738 -19.195  0.00  0.00    -0.318 N 
ATOM     13  C   UNL     1      34.202 -22.024 -19.094  0.00  0.00    +0.148 C 
ATOM     14  C   UNL     1      34.319 -20.669 -20.839  0.00  0.00    +0.059 C 
ATOM     15  C   UNL     1      35.573 -20.893 -20.278  0.00  0.00    +0.059 C 
ATOM     16  C   UNL     1      34.112 -19.852 -21.952  0.00  0.00    +0.019 C 
ATOM     17  C   UNL     1      36.699 -20.275 -20.847  0.00  0.00    +0.016 C 
ATOM     18  C   UNL     1      35.244 -19.244 -22.506  0.00  0.00    +0.073 C 
ATOM     19  C   UNL     1      36.515 -19.450 -21.964  0.00  0.00    +0.005 C 
ATOM     20  H   UNL     1      32.486 -21.474 -20.180  0.00  0.00    +0.148 HD
ATOM     21  H   UNL     1      36.213 -22.057 -18.621  0.00  0.00    +0.148 HD
BRANCH  18  25
ATOM     22  F   UNL     1      34.105 -18.762 -24.552  0.00  0.00    -0.166 F 
ATOM     23  F   UNL     1      34.772 -17.067 -23.377  0.00  0.00    -0.166 F 
ATOM     24  F   UNL     1      36.223 -18.283 -24.446  0.00  0.00    -0.166 F 
ATOM     25  C   UNL     1      35.087 -18.356 -23.695  0.00  0.00    +0.419 C 
ENDBRANCH  18  25
ENDBRANCH   3  13
BRANCH   9  26
ATOM     26  O   UNL     1      34.486 -25.154 -12.432  0.00  0.00    -0.454 OA
BRANCH  26  30
ATOM     27  O   UNL     1      39.892 -26.493 -15.457  0.00  0.00    -0.275 OA
ATOM     28  N   UNL     1      39.075 -25.028 -13.889  0.00  0.00    -0.270 N 
ATOM     29  N   UNL     1      38.309 -23.545 -12.212  0.00  0.00    -0.229 NA
ATOM     30  C   UNL     1      35.750 -24.653 -12.359  0.00  0.00    +0.146 C 
ATOM     31  C   UNL     1      36.773 -25.146 -13.171  0.00  0.00    +0.045 C 
ATOM     32  C   UNL     1      36.510 -26.189 -14.214  0.00  0.00    +0.042 C 
ATOM     33  C   UNL     1      36.013 -23.621 -11.464  0.00  0.00    +0.058 C 
ATOM     34  C   UNL     1      38.035 -24.564 -13.061  0.00  0.00    +0.133 C 
ATOM     35  C   UNL     1      37.762 -27.009 -14.485  0.00  0.00    +0.090 C 
ATOM     36  C   UNL     1      38.992 -26.149 -14.691  0.00  0.00    +0.227 C 
ATOM     37  C   UNL     1      37.296 -23.106 -11.433  0.00  0.00    +0.103 C 
ATOM     38  H   UNL     1      39.918 -24.519 -13.897  0.00  0.00    +0.156 HD
ENDBRANCH  26  30
ENDBRANCH   9  26
TORSDOF 4
ENDMDL
MODEL 9
REMARK VINA RESULT:     -11.9      4.944      8.641
REMARK  Name = 89670174
REMARK  4 active torsions:
REMARK  status: ('A' for Active; 'I' for Inactive)
REMARK    1  A    between atoms: C_3  and  C_13
REMARK    2  A    between atoms: C_9  and  O_26
REMARK    3  A    between atoms: C_18  and  C_25
REMARK    4  A    between atoms: O_26  and  C_30
REMARK                            x       y       z     vdW  Elec       q    Type
REMARK                         _______ _______ _______ _____ _____    ______ ____
ROOT
ATOM      1  O   UNL     1      31.695 -10.518 -21.814  0.00  0.00    -0.479 OA
ATOM      2  C   UNL     1      33.269 -10.941 -23.637  0.00  0.00    +0.072 C 
ATOM      3  C   UNL     1      33.618 -12.016 -22.620  0.00  0.00    +0.085 C 
ATOM      4  C   UNL     1      32.185 -11.547 -22.754  0.00  0.00    +0.174 C 
ATOM      5  C   UNL     1      33.233  -9.511 -23.235  0.00  0.00    +0.018 C 
ATOM      6  C   UNL     1      32.308  -9.334 -22.197  0.00  0.00    +0.135 C 
ATOM      7  C   UNL     1      33.937  -8.417 -23.713  0.00  0.00    +0.036 C 
ATOM      8  C   UNL     1      32.061  -8.107 -21.613  0.00  0.00    +0.040 C 
ATOM      9  C   UNL     1      33.702  -7.163 -23.140  0.00  0.00    +0.145 C 
ATOM     10  C   UNL     1      32.771  -7.010 -22.098  0.00  0.00    +0.041 C 
ENDROOT
BRANCH   3  13
ATOM     11  N   UNL     1      34.556 -14.359 -22.293  0.00  0.00    -0.318 N 
ATOM     12  N   UNL     1      33.860 -13.815 -24.333  0.00  0.00    -0.318 N 
ATOM     13  C   UNL     1      34.008 -13.398 -23.097  0.00  0.00    +0.148 C 
ATOM     14  C   UNL     1      34.776 -15.472 -23.064  0.00  0.00    +0.059 C 
ATOM     15  C   UNL     1      34.334 -15.108 -24.332  0.00  0.00    +0.059 C 
ATOM     16  C   UNL     1      35.309 -16.728 -22.769  0.00  0.00    +0.019 C 
ATOM     17  C   UNL     1      34.419 -16.039 -25.381  0.00  0.00    +0.016 C 
ATOM     18  C   UNL     1      35.387 -17.642 -23.825  0.00  0.00    +0.073 C 
ATOM     19  C   UNL     1      34.950 -17.306 -25.108  0.00  0.00    +0.005 C 
ATOM     20  H   UNL     1      34.757 -14.268 -21.334  0.00  0.00    +0.148 HD
ATOM     21  H   UNL     1      33.490 -13.314 -25.096  0.00  0.00    +0.148 HD
BRANCH  18  25
ATOM     22  F   UNL     1      35.545 -19.544 -22.383  0.00  0.00    -0.166 F 
ATOM     23  F   UNL     1      35.595 -19.922 -24.518  0.00  0.00    -0.166 F 
ATOM     24  F   UNL     1      37.309 -19.011 -23.538  0.00  0.00    -0.166 F 
ATOM     25  C   UNL     1      35.945 -19.003 -23.571  0.00  0.00    +0.419 C 
ENDBRANCH  18  25
ENDBRANCH   3  13
BRANCH   9  26
ATOM     26  O   UNL     1      34.396  -6.059 -23.602  0.00  0.00    -0.454 OA
BRANCH  26  30
ATOM     27  O   UNL     1      35.441  -4.012 -29.509  0.00  0.00    -0.275 OA
ATOM     28  N   UNL     1      33.896  -3.795 -27.824  0.00  0.00    -0.270 N 
ATOM     29  N   UNL     1      32.314  -3.470 -26.096  0.00  0.00    -0.229 NA
ATOM     30  C   UNL     1      33.738  -5.197 -24.426  0.00  0.00    +0.146 C 
ATOM     31  C   UNL     1      34.203  -4.930 -25.716  0.00  0.00    +0.045 C 
ATOM     32  C   UNL     1      35.396  -5.637 -26.280  0.00  0.00    +0.042 C 
ATOM     33  C   UNL     1      32.575  -4.587 -23.969  0.00  0.00    +0.058 C 
ATOM     34  C   UNL     1      33.460  -4.059 -26.512  0.00  0.00    +0.133 C 
ATOM     35  C   UNL     1      36.084  -4.782 -27.332  0.00  0.00    +0.090 C 
ATOM     36  C   UNL     1      35.113  -4.197 -28.337  0.00  0.00    +0.227 C 
ATOM     37  C   UNL     1      31.905  -3.743 -24.837  0.00  0.00    +0.103 C 
ATOM     38  H   UNL     1      33.293  -3.289 -28.416  0.00  0.00    +0.156 HD
ENDBRANCH  26  30
ENDBRANCH   9  26
TORSDOF 4
ENDMDL
