MODEL 1
REMARK VINA RESULT:     -10.7      0.000      0.000
REMARK  Name = 16040323
REMARK  5 active torsions:
REMARK  status: ('A' for Active; 'I' for Inactive)
REMARK    1  A    between atoms: C_1  and  C_2
REMARK    2  A    between atoms: C_1  and  C_16
REMARK    3  A    between atoms: C_5  and  C_8
REMARK    4  A    between atoms: C_11  and  O_14
REMARK    5  A    between atoms: C_16  and  C_21
REMARK                            x       y       z     vdW  Elec       q    Type
REMARK                         _______ _______ _______ _____ _____    ______ ____
ROOT
ATOM      1  C   UNL     1      37.690 -22.252 -17.079  0.00  0.00    +0.028 C 
ENDROOT
BRANCH   1   2
ATOM      2  C   UNL     1      36.565 -22.018 -18.053  0.00  0.00    -0.022 C 
ATOM      3  C   UNL     1      36.766 -21.177 -19.138  0.00  0.00    -0.004 C 
ATOM      4  C   UNL     1      35.344 -22.647 -17.850  0.00  0.00    -0.004 C 
ATOM      5  C   UNL     1      35.724 -20.960 -20.041  0.00  0.00    -0.000 C 
ATOM      6  C   UNL     1      34.303 -22.430 -18.752  0.00  0.00    -0.000 C 
ATOM      7  C   UNL     1      34.493 -21.587 -19.848  0.00  0.00    -0.000 C 
BRANCH   5   8
ATOM      8  C   UNL     1      35.920 -20.086 -21.177  0.00  0.00    +0.003 C 
ATOM      9  C   UNL     1      34.949 -20.011 -22.175  0.00  0.00    +0.037 C 
ATOM     10  C   UNL     1      37.080 -19.318 -21.273  0.00  0.00    +0.000 C 
ATOM     11  C   UNL     1      35.138 -19.168 -23.270  0.00  0.00    +0.139 C 
ATOM     12  C   UNL     1      37.269 -18.476 -22.368  0.00  0.00    +0.003 C 
ATOM     13  C   UNL     1      36.298 -18.400 -23.366  0.00  0.00    +0.037 C 
BRANCH  11  14
ATOM     14  O   UNL     1      34.190 -19.094 -24.244  0.00  0.00    -0.471 OA
ATOM     15  C   UNL     1      34.395 -18.132 -25.277  0.00  0.00    +0.252 C 
ENDBRANCH  11  14
ENDBRANCH   5   8
ENDBRANCH   1   2
BRANCH   1  16
ATOM     16  C   UNL     1      37.158 -22.475 -15.668  0.00  0.00    +0.028 C 
BRANCH  16  21
ATOM     17  O   UNL     1      34.455 -25.127 -14.639  0.00  0.00    -0.274 OA
ATOM     18  N   UNL     1      38.077 -23.511 -13.660  0.00  0.00    -0.247 NA
ATOM     19  N   UNL     1      35.885 -24.176 -13.043  0.00  0.00    -0.231 N 
ATOM     20  N   UNL     1      37.477 -23.364 -11.440  0.00  0.00    -0.331 N 
ATOM     21  C   UNL     1      37.736 -23.762 -15.062  0.00  0.00    +0.096 C 
ATOM     22  C   UNL     1      36.769 -24.934 -15.176  0.00  0.00    +0.108 C 
ATOM     23  C   UNL     1      39.044 -24.110 -15.786  0.00  0.00    +0.025 C 
ATOM     24  C   UNL     1      35.568 -24.741 -14.286  0.00  0.00    +0.233 C 
ATOM     25  C   UNL     1      37.172 -23.679 -12.744  0.00  0.00    +0.183 C 
ATOM     26  C   UNL     1      34.827 -24.112 -12.036  0.00  0.00    +0.123 C 
ATOM     27  H   UNL     1      38.370 -23.016 -11.214  0.00  0.00    +0.145 HD
ATOM     28  H   UNL     1      36.802 -23.486 -10.733  0.00  0.00    +0.145 HD
ENDBRANCH  16  21
ENDBRANCH   1  16
TORSDOF 5
ENDMDL
MODEL 2
REMARK VINA RESULT:     -10.7      1.589      2.455
REMARK  Name = 16040323
REMARK  5 active torsions:
REMARK  status: ('A' for Active; 'I' for Inactive)
REMARK    1  A    between atoms: C_1  and  C_2
REMARK    2  A    between atoms: C_1  and  C_16
REMARK    3  A    between atoms: C_5  and  C_8
REMARK    4  A    between atoms: C_11  and  O_14
REMARK    5  A    between atoms: C_16  and  C_21
REMARK                            x       y       z     vdW  Elec       q    Type
REMARK                         _______ _______ _______ _____ _____    ______ ____
ROOT
ATOM      1  C   UNL     1      36.458 -22.981 -16.857  0.00  0.00    +0.028 C 
ENDROOT
BRANCH   1   2
ATOM      2  C   UNL     1      35.528 -22.477 -17.931  0.00  0.00    -0.022 C 
ATOM      3  C   UNL     1      36.016 -21.627 -18.913  0.00  0.00    -0.004 C 
ATOM      4  C   UNL     1      34.197 -22.869 -17.920  0.00  0.00    -0.004 C 
ATOM      5  C   UNL     1      35.155 -21.160 -19.906  0.00  0.00    -0.000 C 
ATOM      6  C   UNL     1      33.336 -22.403 -18.913  0.00  0.00    -0.000 C 
ATOM      7  C   UNL     1      33.816 -21.548 -19.907  0.00  0.00    -0.000 C 
BRANCH   5   8
ATOM      8  C   UNL     1      35.652 -20.274 -20.937  0.00  0.00    +0.003 C 
ATOM      9  C   UNL     1      34.855 -19.972 -22.040  0.00  0.00    +0.037 C 
ATOM     10  C   UNL     1      36.927 -19.722 -20.825  0.00  0.00    +0.000 C 
ATOM     11  C   UNL     1      35.333 -19.117 -23.034  0.00  0.00    +0.139 C 
ATOM     12  C   UNL     1      37.406 -18.868 -21.819  0.00  0.00    +0.003 C 
ATOM     13  C   UNL     1      36.609 -18.565 -22.922  0.00  0.00    +0.037 C 
BRANCH  11  14
ATOM     14  O   UNL     1      34.555 -18.822 -24.111  0.00  0.00    -0.471 OA
ATOM     15  C   UNL     1      34.873 -17.635 -24.835  0.00  0.00    +0.252 C 
ENDBRANCH  11  14
ENDBRANCH   5   8
ENDBRANCH   1   2
BRANCH   1  16
ATOM     16  C   UNL     1      35.984 -22.553 -15.474  0.00  0.00    +0.028 C 
BRANCH  16  21
ATOM     17  O   UNL     1      38.238 -23.323 -12.356  0.00  0.00    -0.274 OA
ATOM     18  N   UNL     1      35.980 -24.988 -15.325  0.00  0.00    -0.247 NA
ATOM     19  N   UNL     1      38.004 -24.881 -14.092  0.00  0.00    -0.231 N 
ATOM     20  N   UNL     1      37.608 -26.559 -15.762  0.00  0.00    -0.331 N 
ATOM     21  C   UNL     1      35.529 -23.769 -14.651  0.00  0.00    +0.096 C 
ATOM     22  C   UNL     1      36.054 -23.722 -13.222  0.00  0.00    +0.108 C 
ATOM     23  C   UNL     1      33.995 -23.810 -14.629  0.00  0.00    +0.025 C 
ATOM     24  C   UNL     1      37.548 -23.919 -13.179  0.00  0.00    +0.233 C 
ATOM     25  C   UNL     1      37.163 -25.459 -15.066  0.00  0.00    +0.183 C 
ATOM     26  C   UNL     1      39.408 -25.281 -14.011  0.00  0.00    +0.123 C 
ATOM     27  H   UNL     1      37.034 -26.975 -16.446  0.00  0.00    +0.145 HD
ATOM     28  H   UNL     1      38.502 -26.929 -15.578  0.00  0.00    +0.145 HD
ENDBRANCH  16  21
ENDBRANCH   1  16
TORSDOF 5
ENDMDL
MODEL 3
REMARK VINA RESULT:     -10.2      2.100      3.650
REMARK  Name = 16040323
REMARK  5 active torsions:
REMARK  status: ('A' for Active; 'I' for Inactive)
REMARK    1  A    between atoms: C_1  and  C_2
REMARK    2  A    between atoms: C_1  and  C_16
REMARK    3  A    between atoms: C_5  and  C_8
REMARK    4  A    between atoms: C_11  and  O_14
REMARK    5  A    between atoms: C_16  and  C_21
REMARK                            x       y       z     vdW  Elec       q    Type
REMARK                         _______ _______ _______ _____ _____    ______ ____
ROOT
ATOM      1  C   UNL     1      33.929 -22.217 -19.147  0.00  0.00    +0.028 C 
ENDROOT
BRANCH   1   2
ATOM      2  C   UNL     1      35.001 -21.370 -19.784  0.00  0.00    -0.022 C 
ATOM      3  C   UNL     1      34.686 -20.581 -20.881  0.00  0.00    -0.004 C 
ATOM      4  C   UNL     1      36.288 -21.394 -19.265  0.00  0.00    -0.004 C 
ATOM      5  C   UNL     1      35.678 -19.797 -21.470  0.00  0.00    -0.000 C 
ATOM      6  C   UNL     1      37.280 -20.611 -19.854  0.00  0.00    -0.000 C 
ATOM      7  C   UNL     1      36.975 -19.812 -20.957  0.00  0.00    -0.000 C 
BRANCH   5   8
ATOM      8  C   UNL     1      35.363 -18.969 -22.614  0.00  0.00    +0.003 C 
ATOM      9  C   UNL     1      35.668 -17.609 -22.595  0.00  0.00    +0.037 C 
ATOM     10  C   UNL     1      34.754 -19.532 -23.735  0.00  0.00    +0.000 C 
ATOM     11  C   UNL     1      35.365 -16.811 -23.698  0.00  0.00    +0.139 C 
ATOM     12  C   UNL     1      34.449 -18.734 -24.837  0.00  0.00    +0.003 C 
ATOM     13  C   UNL     1      34.756 -17.374 -24.819  0.00  0.00    +0.037 C 
BRANCH  11  14
ATOM     14  O   UNL     1      35.663 -15.482 -23.681  0.00  0.00    -0.471 OA
ATOM     15  C   UNL     1      34.565 -14.571 -23.681  0.00  0.00    +0.252 C 
ENDBRANCH  11  14
ENDBRANCH   5   8
ENDBRANCH   1   2
BRANCH   1  16
ATOM     16  C   UNL     1      34.537 -23.367 -18.352  0.00  0.00    +0.028 C 
BRANCH  16  21
ATOM     17  O   UNL     1      37.195 -21.809 -15.922  0.00  0.00    -0.274 OA
ATOM     18  N   UNL     1      34.269 -24.637 -16.287  0.00  0.00    -0.247 NA
ATOM     19  N   UNL     1      36.476 -24.026 -15.667  0.00  0.00    -0.231 N 
ATOM     20  N   UNL     1      35.597 -26.224 -15.274  0.00  0.00    -0.331 N 
ATOM     21  C   UNL     1      34.092 -23.311 -16.883  0.00  0.00    +0.096 C 
ATOM     22  C   UNL     1      34.861 -22.261 -16.091  0.00  0.00    +0.108 C 
ATOM     23  C   UNL     1      32.592 -22.992 -16.828  0.00  0.00    +0.025 C 
ATOM     24  C   UNL     1      36.304 -22.657 -15.914  0.00  0.00    +0.233 C 
ATOM     25  C   UNL     1      35.414 -24.950 -15.759  0.00  0.00    +0.183 C 
ATOM     26  C   UNL     1      37.814 -24.487 -15.302  0.00  0.00    +0.123 C 
ATOM     27  H   UNL     1      34.866 -26.883 -15.331  0.00  0.00    +0.145 HD
ATOM     28  H   UNL     1      36.458 -26.479 -14.871  0.00  0.00    +0.145 HD
ENDBRANCH  16  21
ENDBRANCH   1  16
TORSDOF 5
ENDMDL
MODEL 4
REMARK VINA RESULT:     -10.2      6.256     10.227
REMARK  Name = 16040323
REMARK  5 active torsions:
REMARK  status: ('A' for Active; 'I' for Inactive)
REMARK    1  A    between atoms: C_1  and  C_2
REMARK    2  A    between atoms: C_1  and  C_16
REMARK    3  A    between atoms: C_5  and  C_8
REMARK    4  A    between atoms: C_11  and  O_14
REMARK    5  A    between atoms: C_16  and  C_21
REMARK                            x       y       z     vdW  Elec       q    Type
REMARK                         _______ _______ _______ _____ _____    ______ ____
ROOT
ATOM      1  C   UNL     1      34.594 -14.843 -25.062  0.00  0.00    +0.028 C 
ENDROOT
BRANCH   1   2
ATOM      2  C   UNL     1      34.538 -16.341 -24.906  0.00  0.00    -0.022 C 
ATOM      3  C   UNL     1      35.124 -16.934 -23.798  0.00  0.00    -0.004 C 
ATOM      4  C   UNL     1      33.901 -17.104 -25.874  0.00  0.00    -0.004 C 
ATOM      5  C   UNL     1      35.072 -18.321 -23.653  0.00  0.00    -0.000 C 
ATOM      6  C   UNL     1      33.849 -18.490 -25.730  0.00  0.00    -0.000 C 
ATOM      7  C   UNL     1      34.434 -19.099 -24.619  0.00  0.00    -0.000 C 
BRANCH   5   8
ATOM      8  C   UNL     1      35.678 -18.952 -22.502  0.00  0.00    +0.003 C 
ATOM      9  C   UNL     1      34.961 -19.892 -21.763  0.00  0.00    +0.037 C 
ATOM     10  C   UNL     1      36.982 -18.621 -22.131  0.00  0.00    +0.000 C 
ATOM     11  C   UNL     1      35.546 -20.502 -20.653  0.00  0.00    +0.139 C 
ATOM     12  C   UNL     1      37.566 -19.230 -21.021  0.00  0.00    +0.003 C 
ATOM     13  C   UNL     1      36.849 -20.170 -20.283  0.00  0.00    +0.037 C 
BRANCH  11  14
ATOM     14  O   UNL     1      34.846 -21.419 -19.931  0.00  0.00    -0.471 OA
ATOM     15  C   UNL     1      33.424 -21.313 -19.951  0.00  0.00    +0.252 C 
ENDBRANCH  11  14
ENDBRANCH   5   8
ENDBRANCH   1   2
BRANCH   1  16
ATOM     16  C   UNL     1      33.410 -14.174 -24.375  0.00  0.00    +0.028 C 
BRANCH  16  21
ATOM     17  O   UNL     1      34.837 -15.158 -20.855  0.00  0.00    -0.274 OA
ATOM     18  N   UNL     1      32.699 -12.353 -22.915  0.00  0.00    -0.247 NA
ATOM     19  N   UNL     1      32.935 -13.801 -21.051  0.00  0.00    -0.231 N 
ATOM     20  N   UNL     1      31.115 -12.249 -21.245  0.00  0.00    -0.331 N 
ATOM     21  C   UNL     1      33.873 -12.980 -23.526  0.00  0.00    +0.096 C 
ATOM     22  C   UNL     1      34.876 -13.393 -22.456  0.00  0.00    +0.108 C 
ATOM     23  C   UNL     1      34.514 -11.932 -24.446  0.00  0.00    +0.025 C 
ATOM     24  C   UNL     1      34.224 -14.237 -21.390  0.00  0.00    +0.233 C 
ATOM     25  C   UNL     1      32.265 -12.790 -21.772  0.00  0.00    +0.183 C 
ATOM     26  C   UNL     1      32.284 -14.434 -19.906  0.00  0.00    +0.123 C 
ATOM     27  H   UNL     1      30.634 -11.542 -21.734  0.00  0.00    +0.145 HD
ATOM     28  H   UNL     1      30.772 -12.568 -20.379  0.00  0.00    +0.145 HD
ENDBRANCH  16  21
ENDBRANCH   1  16
TORSDOF 5
ENDMDL
MODEL 5
REMARK VINA RESULT:     -10.1     10.290     13.654
REMARK  Name = 16040323
REMARK  5 active torsions:
REMARK  status: ('A' for Active; 'I' for Inactive)
REMARK    1  A    between atoms: C_1  and  C_2
REMARK    2  A    between atoms: C_1  and  C_16
REMARK    3  A    between atoms: C_5  and  C_8
REMARK    4  A    between atoms: C_11  and  O_14
REMARK    5  A    between atoms: C_16  and  C_21
REMARK                            x       y       z     vdW  Elec       q    Type
REMARK                         _______ _______ _______ _____ _____    ______ ____
ROOT
ATOM      1  C   UNL     1      32.304 -13.379 -21.142  0.00  0.00    +0.028 C 
ENDROOT
BRANCH   1   2
ATOM      2  C   UNL     1      32.172 -11.925 -20.768  0.00  0.00    -0.022 C 
ATOM      3  C   UNL     1      32.236 -10.957 -21.760  0.00  0.00    -0.004 C 
ATOM      4  C   UNL     1      31.989 -11.576 -19.438  0.00  0.00    -0.004 C 
ATOM      5  C   UNL     1      32.114  -9.610 -21.414  0.00  0.00    -0.000 C 
ATOM      6  C   UNL     1      31.867 -10.231 -19.091  0.00  0.00    -0.000 C 
ATOM      7  C   UNL     1      31.929  -9.248 -20.080  0.00  0.00    -0.000 C 
BRANCH   5   8
ATOM      8  C   UNL     1      32.178  -8.591 -22.438  0.00  0.00    +0.003 C 
ATOM      9  C   UNL     1      33.383  -7.936 -22.695  0.00  0.00    +0.037 C 
ATOM     10  C   UNL     1      31.036  -8.263 -23.168  0.00  0.00    +0.000 C 
ATOM     11  C   UNL     1      33.445  -6.954 -23.684  0.00  0.00    +0.139 C 
ATOM     12  C   UNL     1      31.099  -7.280 -24.156  0.00  0.00    +0.003 C 
ATOM     13  C   UNL     1      32.303  -6.626 -24.414  0.00  0.00    +0.037 C 
BRANCH  11  14
ATOM     14  O   UNL     1      34.620  -6.314 -23.935  0.00  0.00    -0.471 OA
ATOM     15  C   UNL     1      34.710  -5.578 -25.154  0.00  0.00    +0.252 C 
ENDBRANCH  11  14
ENDBRANCH   5   8
ENDBRANCH   1   2
BRANCH   1  16
ATOM     16  C   UNL     1      32.483 -13.546 -22.646  0.00  0.00    +0.028 C 
BRANCH  16  21
ATOM     17  O   UNL     1      34.133 -11.262 -25.378  0.00  0.00    -0.274 OA
ATOM     18  N   UNL     1      33.925 -15.064 -23.897  0.00  0.00    -0.247 NA
ATOM     19  N   UNL     1      33.855 -13.563 -25.733  0.00  0.00    -0.231 N 
ATOM     20  N   UNL     1      33.761 -15.944 -26.020  0.00  0.00    -0.331 N 
ATOM     21  C   UNL     1      33.934 -13.917 -22.986  0.00  0.00    +0.096 C 
ATOM     22  C   UNL     1      34.695 -12.750 -23.603  0.00  0.00    +0.108 C 
ATOM     23  C   UNL     1      34.647 -14.369 -21.704  0.00  0.00    +0.025 C 
ATOM     24  C   UNL     1      34.178 -12.425 -24.980  0.00  0.00    +0.233 C 
ATOM     25  C   UNL     1      33.849 -14.860 -25.178  0.00  0.00    +0.183 C 
ATOM     26  C   UNL     1      33.515 -13.371 -27.142  0.00  0.00    +0.123 C 
ATOM     27  H   UNL     1      33.755 -16.857 -25.650  0.00  0.00    +0.145 HD
ATOM     28  H   UNL     1      33.702 -15.807 -26.994  0.00  0.00    +0.145 HD
ENDBRANCH  16  21
ENDBRANCH   1  16
TORSDOF 5
ENDMDL
MODEL 6
REMARK VINA RESULT:     -10.1      2.109      3.481
REMARK  Name = 16040323
REMARK  5 active torsions:
REMARK  status: ('A' for Active; 'I' for Inactive)
REMARK    1  A    between atoms: C_1  and  C_2
REMARK    2  A    between atoms: C_1  and  C_16
REMARK    3  A    between atoms: C_5  and  C_8
REMARK    4  A    between atoms: C_11  and  O_14
REMARK    5  A    between atoms: C_16  and  C_21
REMARK                            x       y       z     vdW  Elec       q    Type
REMARK                         _______ _______ _______ _____ _____    ______ ____
ROOT
ATOM      1  C   UNL     1      36.384 -23.796 -15.653  0.00  0.00    +0.028 C 
ENDROOT
BRANCH   1   2
ATOM      2  C   UNL     1      35.220 -23.425 -16.535  0.00  0.00    -0.022 C 
ATOM      3  C   UNL     1      35.429 -22.596 -17.628  0.00  0.00    -0.004 C 
ATOM      4  C   UNL     1      33.957 -23.919 -16.242  0.00  0.00    -0.004 C 
ATOM      5  C   UNL     1      34.351 -22.253 -18.445  0.00  0.00    -0.000 C 
ATOM      6  C   UNL     1      32.880 -23.576 -17.058  0.00  0.00    -0.000 C 
ATOM      7  C   UNL     1      33.077 -22.742 -18.160  0.00  0.00    -0.000 C 
BRANCH   5   8
ATOM      8  C   UNL     1      34.555 -21.389 -19.587  0.00  0.00    +0.003 C 
ATOM      9  C   UNL     1      35.842 -20.972 -19.925  0.00  0.00    +0.037 C 
ATOM     10  C   UNL     1      33.464 -20.975 -20.351  0.00  0.00    +0.000 C 
ATOM     11  C   UNL     1      36.039 -20.140 -21.028  0.00  0.00    +0.139 C 
ATOM     12  C   UNL     1      33.661 -20.143 -21.453  0.00  0.00    +0.003 C 
ATOM     13  C   UNL     1      34.948 -19.726 -21.792  0.00  0.00    +0.037 C 
BRANCH  11  14
ATOM     14  O   UNL     1      37.295 -19.732 -21.358  0.00  0.00    -0.471 OA
ATOM     15  C   UNL     1      37.404 -18.659 -22.291  0.00  0.00    +0.252 C 
ENDBRANCH  11  14
ENDBRANCH   5   8
ENDBRANCH   1   2
BRANCH   1  16
ATOM     16  C   UNL     1      36.214 -23.226 -14.250  0.00  0.00    +0.028 C 
BRANCH  16  21
ATOM     17  O   UNL     1      39.337 -23.481 -11.888  0.00  0.00    -0.274 OA
ATOM     18  N   UNL     1      36.468 -25.620 -13.858  0.00  0.00    -0.247 NA
ATOM     19  N   UNL     1      38.746 -25.252 -13.305  0.00  0.00    -0.231 N 
ATOM     20  N   UNL     1      38.030 -27.144 -14.598  0.00  0.00    -0.331 N 
ATOM     21  C   UNL     1      36.127 -24.352 -13.209  0.00  0.00    +0.096 C 
ATOM     22  C   UNL     1      37.039 -24.100 -12.015  0.00  0.00    +0.108 C 
ATOM     23  C   UNL     1      34.676 -24.473 -12.724  0.00  0.00    +0.025 C 
ATOM     24  C   UNL     1      38.492 -24.211 -12.401  0.00  0.00    +0.233 C 
ATOM     25  C   UNL     1      37.711 -25.992 -13.917  0.00  0.00    +0.183 C 
ATOM     26  C   UNL     1      40.142 -25.564 -13.607  0.00  0.00    +0.123 C 
ATOM     27  H   UNL     1      37.321 -27.672 -15.031  0.00  0.00    +0.145 HD
ATOM     28  H   UNL     1      38.967 -27.440 -14.653  0.00  0.00    +0.145 HD
ENDBRANCH  16  21
ENDBRANCH   1  16
TORSDOF 5
ENDMDL
MODEL 7
REMARK VINA RESULT:     -10.1      2.086      3.805
REMARK  Name = 16040323
REMARK  5 active torsions:
REMARK  status: ('A' for Active; 'I' for Inactive)
REMARK    1  A    between atoms: C_1  and  C_2
REMARK    2  A    between atoms: C_1  and  C_16
REMARK    3  A    between atoms: C_5  and  C_8
REMARK    4  A    between atoms: C_11  and  O_14
REMARK    5  A    between atoms: C_16  and  C_21
REMARK                            x       y       z     vdW  Elec       q    Type
REMARK                         _______ _______ _______ _____ _____    ______ ____
ROOT
ATOM      1  C   UNL     1      33.828 -24.773 -14.482  0.00  0.00    +0.028 C 
ENDROOT
BRANCH   1   2
ATOM      2  C   UNL     1      33.216 -24.002 -15.623  0.00  0.00    -0.022 C 
ATOM      3  C   UNL     1      34.042 -23.426 -16.577  0.00  0.00    -0.004 C 
ATOM      4  C   UNL     1      31.837 -23.878 -15.701  0.00  0.00    -0.004 C 
ATOM      5  C   UNL     1      33.475 -22.712 -17.634  0.00  0.00    -0.000 C 
ATOM      6  C   UNL     1      31.270 -23.165 -16.756  0.00  0.00    -0.000 C 
ATOM      7  C   UNL     1      32.090 -22.581 -17.723  0.00  0.00    -0.000 C 
BRANCH   5   8
ATOM      8  C   UNL     1      34.325 -22.108 -18.637  0.00  0.00    +0.003 C 
ATOM      9  C   UNL     1      33.757 -21.420 -19.709  0.00  0.00    +0.037 C 
ATOM     10  C   UNL     1      35.712 -22.211 -18.530  0.00  0.00    +0.000 C 
ATOM     11  C   UNL     1      34.576 -20.836 -20.676  0.00  0.00    +0.139 C 
ATOM     12  C   UNL     1      36.530 -21.628 -19.497  0.00  0.00    +0.003 C 
ATOM     13  C   UNL     1      35.963 -20.940 -20.569  0.00  0.00    +0.037 C 
BRANCH  11  14
ATOM     14  O   UNL     1      34.023 -20.165 -21.723  0.00  0.00    -0.471 OA
ATOM     15  C   UNL     1      34.907 -19.416 -22.554  0.00  0.00    +0.252 C 
ENDBRANCH  11  14
ENDBRANCH   5   8
ENDBRANCH   1   2
BRANCH   1  16
ATOM     16  C   UNL     1      35.306 -25.049 -14.734  0.00  0.00    +0.028 C 
BRANCH  16  21
ATOM     17  O   UNL     1      38.262 -22.905 -16.170  0.00  0.00    -0.274 OA
ATOM     18  N   UNL     1      37.111 -25.373 -13.125  0.00  0.00    -0.247 NA
ATOM     19  N   UNL     1      38.671 -24.768 -14.807  0.00  0.00    -0.231 N 
ATOM     20  N   UNL     1      39.090 -26.545 -13.249  0.00  0.00    -0.331 N 
ATOM     21  C   UNL     1      36.178 -24.379 -13.662  0.00  0.00    +0.096 C 
ATOM     22  C   UNL     1      36.935 -23.175 -14.209  0.00  0.00    +0.108 C 
ATOM     23  C   UNL     1      35.283 -23.930 -12.499  0.00  0.00    +0.025 C 
ATOM     24  C   UNL     1      38.000 -23.597 -15.189  0.00  0.00    +0.233 C 
ATOM     25  C   UNL     1      38.255 -25.554 -13.711  0.00  0.00    +0.183 C 
ATOM     26  C   UNL     1      39.840 -25.166 -15.588  0.00  0.00    +0.123 C 
ATOM     27  H   UNL     1      38.816 -27.104 -12.485  0.00  0.00    +0.145 HD
ATOM     28  H   UNL     1      39.962 -26.696 -13.681  0.00  0.00    +0.145 HD
ENDBRANCH  16  21
ENDBRANCH   1  16
TORSDOF 5
ENDMDL
MODEL 8
REMARK VINA RESULT:     -10.1      3.977      6.410
REMARK  Name = 16040323
REMARK  5 active torsions:
REMARK  status: ('A' for Active; 'I' for Inactive)
REMARK    1  A    between atoms: C_1  and  C_2
REMARK    2  A    between atoms: C_1  and  C_16
REMARK    3  A    between atoms: C_5  and  C_8
REMARK    4  A    between atoms: C_11  and  O_14
REMARK    5  A    between atoms: C_16  and  C_21
REMARK                            x       y       z     vdW  Elec       q    Type
REMARK                         _______ _______ _______ _____ _____    ______ ____
ROOT
ATOM      1  C   UNL     1      36.422 -23.549 -15.738  0.00  0.00    +0.028 C 
ENDROOT
BRANCH   1   2
ATOM      2  C   UNL     1      35.243 -23.227 -16.620  0.00  0.00    -0.022 C 
ATOM      3  C   UNL     1      33.958 -23.467 -16.156  0.00  0.00    -0.004 C 
ATOM      4  C   UNL     1      35.461 -22.694 -17.883  0.00  0.00    -0.004 C 
ATOM      5  C   UNL     1      32.867 -23.169 -16.973  0.00  0.00    -0.000 C 
ATOM      6  C   UNL     1      34.371 -22.396 -18.699  0.00  0.00    -0.000 C 
ATOM      7  C   UNL     1      33.073 -22.633 -18.244  0.00  0.00    -0.000 C 
BRANCH   5   8
ATOM      8  C   UNL     1      31.521 -23.414 -16.502  0.00  0.00    +0.003 C 
ATOM      9  C   UNL     1      30.476 -22.589 -16.914  0.00  0.00    +0.037 C 
ATOM     10  C   UNL     1      31.270 -24.478 -15.635  0.00  0.00    +0.000 C 
ATOM     11  C   UNL     1      29.178 -22.826 -16.461  0.00  0.00    +0.139 C 
ATOM     12  C   UNL     1      29.972 -24.715 -15.181  0.00  0.00    +0.003 C 
ATOM     13  C   UNL     1      28.927 -23.890 -15.594  0.00  0.00    +0.037 C 
BRANCH  11  14
ATOM     14  O   UNL     1      28.157 -22.021 -16.863  0.00  0.00    -0.471 OA
ATOM     15  C   UNL     1      26.858 -22.317 -16.355  0.00  0.00    +0.252 C 
ENDBRANCH  11  14
ENDBRANCH   5   8
ENDBRANCH   1   2
BRANCH   1  16
ATOM     16  C   UNL     1      36.184 -23.078 -14.308  0.00  0.00    +0.028 C 
BRANCH  16  21
ATOM     17  O   UNL     1      39.205 -23.514 -11.843  0.00  0.00    -0.274 OA
ATOM     18  N   UNL     1      36.416 -25.495 -14.075  0.00  0.00    -0.247 NA
ATOM     19  N   UNL     1      38.669 -25.179 -13.404  0.00  0.00    -0.231 N 
ATOM     20  N   UNL     1      38.003 -26.971 -14.855  0.00  0.00    -0.331 N 
ATOM     21  C   UNL     1      36.051 -24.274 -13.353  0.00  0.00    +0.096 C 
ATOM     22  C   UNL     1      36.913 -24.111 -12.108  0.00  0.00    +0.108 C 
ATOM     23  C   UNL     1      34.581 -24.420 -12.939  0.00  0.00    +0.025 C 
ATOM     24  C   UNL     1      38.380 -24.202 -12.441  0.00  0.00    +0.233 C 
ATOM     25  C   UNL     1      37.660 -25.868 -14.109  0.00  0.00    +0.183 C 
ATOM     26  C   UNL     1      40.076 -25.476 -13.669  0.00  0.00    +0.123 C 
ATOM     27  H   UNL     1      37.311 -27.464 -15.354  0.00  0.00    +0.145 HD
ATOM     28  H   UNL     1      38.942 -27.268 -14.892  0.00  0.00    +0.145 HD
ENDBRANCH  16  21
ENDBRANCH   1  16
TORSDOF 5
ENDMDL
MODEL 9
REMARK VINA RESULT:     -10.0     11.009     15.097
REMARK  Name = 16040323
REMARK  5 active torsions:
REMARK  status: ('A' for Active; 'I' for Inactive)
REMARK    1  A    between atoms: C_1  and  C_2
REMARK    2  A    between atoms: C_1  and  C_16
REMARK    3  A    between atoms: C_5  and  C_8
REMARK    4  A    between atoms: C_11  and  O_14
REMARK    5  A    between atoms: C_16  and  C_21
REMARK                            x       y       z     vdW  Elec       q    Type
REMARK                         _______ _______ _______ _____ _____    ______ ____
ROOT
ATOM      1  C   UNL     1      32.429  -9.149 -23.322  0.00  0.00    +0.028 C 
ENDROOT
BRANCH   1   2
ATOM      2  C   UNL     1      32.377 -10.520 -22.698  0.00  0.00    -0.022 C 
ATOM      3  C   UNL     1      33.039 -11.573 -23.310  0.00  0.00    -0.004 C 
ATOM      4  C   UNL     1      31.665 -10.707 -21.521  0.00  0.00    -0.004 C 
ATOM      5  C   UNL     1      32.991 -12.843 -22.732  0.00  0.00    -0.000 C 
ATOM      6  C   UNL     1      31.616 -11.975 -20.944  0.00  0.00    -0.000 C 
ATOM      7  C   UNL     1      32.279 -13.044 -21.549  0.00  0.00    -0.000 C 
BRANCH   5   8
ATOM      8  C   UNL     1      33.678 -13.950 -23.359  0.00  0.00    +0.003 C 
ATOM      9  C   UNL     1      33.497 -14.204 -24.718  0.00  0.00    +0.037 C 
ATOM     10  C   UNL     1      34.522 -14.764 -22.604  0.00  0.00    +0.000 C 
ATOM     11  C   UNL     1      34.160 -15.272 -25.323  0.00  0.00    +0.139 C 
ATOM     12  C   UNL     1      35.185 -15.832 -23.209  0.00  0.00    +0.003 C 
ATOM     13  C   UNL     1      35.004 -16.085 -24.568  0.00  0.00    +0.037 C 
BRANCH  11  14
ATOM     14  O   UNL     1      33.984 -15.520 -26.650  0.00  0.00    -0.471 OA
ATOM     15  C   UNL     1      33.706 -14.400 -27.489  0.00  0.00    +0.252 C 
ENDBRANCH  11  14
ENDBRANCH   5   8
ENDBRANCH   1   2
BRANCH   1  16
ATOM     16  C   UNL     1      31.682  -8.129 -22.471  0.00  0.00    +0.028 C 
BRANCH  16  21
ATOM     17  O   UNL     1      30.540  -4.392 -22.838  0.00  0.00    -0.274 OA
ATOM     18  N   UNL     1      33.765  -6.900 -22.791  0.00  0.00    -0.247 NA
ATOM     19  N   UNL     1      32.534  -5.148 -23.813  0.00  0.00    -0.231 N 
ATOM     20  N   UNL     1      34.671  -5.863 -24.638  0.00  0.00    -0.331 N 
ATOM     21  C   UNL     1      32.654  -7.109 -21.859  0.00  0.00    +0.096 C 
ATOM     22  C   UNL     1      31.970  -5.786 -21.537  0.00  0.00    +0.108 C 
ATOM     23  C   UNL     1      33.252  -7.698 -20.575  0.00  0.00    +0.025 C 
ATOM     24  C   UNL     1      31.576  -5.053 -22.793  0.00  0.00    +0.233 C 
ATOM     25  C   UNL     1      33.657  -5.997 -23.719  0.00  0.00    +0.183 C 
ATOM     26  C   UNL     1      32.338  -4.328 -25.007  0.00  0.00    +0.123 C 
ATOM     27  H   UNL     1      35.463  -6.447 -24.587  0.00  0.00    +0.145 HD
ATOM     28  H   UNL     1      34.606  -5.183 -25.347  0.00  0.00    +0.145 HD
ENDBRANCH  16  21
ENDBRANCH   1  16
TORSDOF 5
ENDMDL
