MODEL 1
REMARK VINA RESULT:     -11.7      0.000      0.000
REMARK  Name = 5327153
REMARK  6 active torsions:
REMARK  status: ('A' for Active; 'I' for Inactive)
REMARK    1  A    between atoms: C_3  and  C_15
REMARK    2  A    between atoms: C_10  and  O_24
REMARK    3  A    between atoms: C_11  and  N_18
REMARK    4  A    between atoms: N_18  and  S_20
REMARK    5  A    between atoms: O_24  and  C_25
REMARK    6  A    between atoms: C_25  and  C_26
REMARK                            x       y       z     vdW  Elec       q    Type
REMARK                         _______ _______ _______ _____ _____    ______ ____
ROOT
ATOM      1  O   UNL     1      37.480 -22.249 -16.455  0.00  0.00    -0.226 OA
ATOM      2  N   UNL     1      35.357 -23.173 -16.185  0.00  0.00    -0.235 N 
ATOM      3  C   UNL     1      35.652 -23.727 -14.864  0.00  0.00    +0.159 C 
ATOM      4  C   UNL     1      34.512 -23.514 -13.872  0.00  0.00    +0.055 C 
ATOM      5  C   UNL     1      34.056 -23.483 -16.797  0.00  0.00    +0.124 C 
ATOM      6  C   UNL     1      33.160 -23.844 -14.446  0.00  0.00    -0.022 C 
ATOM      7  C   UNL     1      32.946 -23.810 -15.832  0.00  0.00    -0.005 C 
ATOM      8  C   UNL     1      31.670 -24.097 -16.336  0.00  0.00    +0.013 C 
ATOM      9  C   UNL     1      32.092 -24.138 -13.586  0.00  0.00    -0.003 C 
ATOM     10  C   UNL     1      36.375 -22.533 -16.911  0.00  0.00    +0.406 C 
ATOM     11  C   UNL     1      30.616 -24.401 -15.475  0.00  0.00    +0.065 C 
ATOM     12  C   UNL     1      30.827 -24.419 -14.099  0.00  0.00    +0.016 C 
ENDROOT
BRANCH   3  15
ATOM     13  O   UNL     1      35.625 -25.794 -16.066  0.00  0.00    -0.273 OA
ATOM     14  N   UNL     1      36.694 -25.705 -13.999  0.00  0.00    -0.301 N 
ATOM     15  C   UNL     1      35.983 -25.179 -15.064  0.00  0.00    +0.241 C 
ATOM     16  C   UNL     1      37.114 -27.086 -13.935  0.00  0.00    +0.111 C 
ATOM     17  H   UNL     1      36.924 -25.110 -13.249  0.00  0.00    +0.150 HD
ENDBRANCH   3  15
BRANCH  11  18
ATOM     18  N   UNL     1      29.322 -24.690 -16.004  0.00  0.00    -0.213 N 
ATOM     19  H   UNL     1      28.943 -25.598 -15.976  0.00  0.00    +0.174 HD
BRANCH  18  20
ATOM     20  S   UNL     1      28.451 -23.362 -16.698  0.00  0.00    +0.091 S 
ATOM     21  O   UNL     1      27.672 -24.009 -17.976  0.00  0.00    -0.050 OA
ATOM     22  O   UNL     1      27.448 -22.914 -15.749  0.00  0.00    -0.050 OA
ATOM     23  O   UNL     1      29.423 -22.418 -17.221  0.00  0.00    -0.050 OA
ENDBRANCH  18  20
ENDBRANCH  11  18
BRANCH  10  24
ATOM     24  O   UNL     1      36.005 -22.261 -18.203  0.00  0.00    -0.430 OA
BRANCH  24  25
ATOM     25  C   UNL     1      36.973 -21.572 -19.003  0.00  0.00    +0.237 C 
BRANCH  25  26
ATOM     26  C   UNL     1      36.259 -20.768 -20.050  0.00  0.00    +0.021 C 
ATOM     27  C   UNL     1      34.900 -20.968 -20.263  0.00  0.00    -0.001 C 
ATOM     28  C   UNL     1      36.963 -19.830 -20.797  0.00  0.00    -0.001 C 
ATOM     29  C   UNL     1      34.236 -20.220 -21.236  0.00  0.00    -0.000 C 
ATOM     30  C   UNL     1      36.299 -19.083 -21.769  0.00  0.00    -0.000 C 
ATOM     31  C   UNL     1      34.936 -19.278 -21.989  0.00  0.00    -0.000 C 
ENDBRANCH  25  26
ENDBRANCH  24  25
ENDBRANCH  10  24
TORSDOF 6
ENDMDL
MODEL 2
REMARK VINA RESULT:      -8.8      3.053      5.877
REMARK  Name = 5327153
REMARK  6 active torsions:
REMARK  status: ('A' for Active; 'I' for Inactive)
REMARK    1  A    between atoms: C_3  and  C_15
REMARK    2  A    between atoms: C_10  and  O_24
REMARK    3  A    between atoms: C_11  and  N_18
REMARK    4  A    between atoms: N_18  and  S_20
REMARK    5  A    between atoms: O_24  and  C_25
REMARK    6  A    between atoms: C_25  and  C_26
REMARK                            x       y       z     vdW  Elec       q    Type
REMARK                         _______ _______ _______ _____ _____    ______ ____
ROOT
ATOM      1  O   UNL     1      33.330 -22.604 -20.280  0.00  0.00    -0.226 OA
ATOM      2  N   UNL     1      34.090 -22.778 -18.083  0.00  0.00    -0.235 N 
ATOM      3  C   UNL     1      33.102 -23.791 -17.711  0.00  0.00    +0.159 C 
ATOM      4  C   UNL     1      33.703 -24.916 -16.875  0.00  0.00    +0.055 C 
ATOM      5  C   UNL     1      34.973 -22.247 -17.034  0.00  0.00    +0.124 C 
ATOM      6  C   UNL     1      34.597 -24.419 -15.770  0.00  0.00    -0.022 C 
ATOM      7  C   UNL     1      35.209 -23.161 -15.860  0.00  0.00    -0.005 C 
ATOM      8  C   UNL     1      36.056 -22.735 -14.827  0.00  0.00    +0.013 C 
ATOM      9  C   UNL     1      34.859 -25.242 -14.665  0.00  0.00    -0.003 C 
ATOM     10  C   UNL     1      34.046 -22.205 -19.364  0.00  0.00    +0.406 C 
ATOM     11  C   UNL     1      36.302 -23.553 -13.725  0.00  0.00    +0.065 C 
ATOM     12  C   UNL     1      35.705 -24.808 -13.645  0.00  0.00    +0.016 C 
ENDROOT
BRANCH   3  15
ATOM     13  O   UNL     1      31.368 -22.155 -17.531  0.00  0.00    -0.273 OA
ATOM     14  N   UNL     1      31.788 -23.556 -15.720  0.00  0.00    -0.301 N 
ATOM     15  C   UNL     1      31.989 -23.073 -17.002  0.00  0.00    +0.241 C 
ATOM     16  C   UNL     1      30.792 -23.020 -14.821  0.00  0.00    +0.111 C 
ATOM     17  H   UNL     1      32.352 -24.300 -15.406  0.00  0.00    +0.150 HD
ENDBRANCH   3  15
BRANCH  11  18
ATOM     18  N   UNL     1      37.168 -23.105 -12.682  0.00  0.00    -0.213 N 
ATOM     19  H   UNL     1      37.024 -22.245 -12.224  0.00  0.00    +0.174 HD
BRANCH  18  20
ATOM     20  S   UNL     1      38.484 -24.150 -12.261  0.00  0.00    +0.091 S 
ATOM     21  O   UNL     1      39.596 -23.158 -11.599  0.00  0.00    -0.050 OA
ATOM     22  O   UNL     1      38.040 -25.069 -11.228  0.00  0.00    -0.050 OA
ATOM     23  O   UNL     1      39.052 -24.668 -13.493  0.00  0.00    -0.050 OA
ENDBRANCH  18  20
ENDBRANCH  11  18
BRANCH  10  24
ATOM     24  O   UNL     1      34.891 -21.132 -19.488  0.00  0.00    -0.430 OA
BRANCH  24  25
ATOM     25  C   UNL     1      36.016 -21.314 -20.354  0.00  0.00    +0.237 C 
BRANCH  25  26
ATOM     26  C   UNL     1      36.050 -20.194 -21.353  0.00  0.00    +0.021 C 
ATOM     27  C   UNL     1      37.169 -19.372 -21.427  0.00  0.00    -0.001 C 
ATOM     28  C   UNL     1      34.963 -19.988 -22.195  0.00  0.00    -0.001 C 
ATOM     29  C   UNL     1      37.201 -18.332 -22.356  0.00  0.00    -0.000 C 
ATOM     30  C   UNL     1      34.995 -18.948 -23.123  0.00  0.00    -0.000 C 
ATOM     31  C   UNL     1      36.114 -18.119 -23.204  0.00  0.00    -0.000 C 
ENDBRANCH  25  26
ENDBRANCH  24  25
ENDBRANCH  10  24
TORSDOF 6
ENDMDL
