MODEL 1
REMARK VINA RESULT:     -11.4      0.000      0.000
REMARK  Name = 10250490
REMARK  6 active torsions:
REMARK  status: ('A' for Active; 'I' for Inactive)
REMARK    1  A    between atoms: N_2  and  C_18
REMARK    2  A    between atoms: C_3  and  C_6
REMARK    3  A    between atoms: C_5  and  N_12
REMARK    4  A    between atoms: C_18  and  C_19
REMARK    5  A    between atoms: C_19  and  N_21
REMARK    6  A    between atoms: C_22  and  C_26
REMARK                            x       y       z     vdW  Elec       q    Type
REMARK                         _______ _______ _______ _____ _____    ______ ____
ROOT
ATOM      1  O   UNL     1      34.753 -23.498 -17.779  0.00  0.00    -0.270 OA
ATOM      2  N   UNL     1      32.543 -22.800 -17.696  0.00  0.00    -0.299 N 
ATOM      3  C   UNL     1      33.841 -22.775 -18.218  0.00  0.00    +0.246 C 
ATOM      4  H   UNL     1      31.869 -22.202 -18.092  0.00  0.00    +0.150 HD
ENDROOT
BRANCH   3   6
ATOM      5  C   UNL     1      34.593 -20.037 -21.374  0.00  0.00    +0.058 C 
ATOM      6  C   UNL     1      34.100 -21.838 -19.300  0.00  0.00    +0.053 C 
ATOM      7  C   UNL     1      35.652 -20.715 -20.770  0.00  0.00    +0.015 C 
ATOM      8  C   UNL     1      33.286 -20.261 -20.939  0.00  0.00    +0.015 C 
ATOM      9  C   UNL     1      35.405 -21.616 -19.734  0.00  0.00    +0.006 C 
ATOM     10  C   UNL     1      33.039 -21.160 -19.902  0.00  0.00    +0.006 C 
BRANCH   5  12
ATOM     11  O   UNL     1      35.632 -17.358 -21.047  0.00  0.00    -0.269 OA
ATOM     12  N   UNL     1      34.850 -19.101 -22.450  0.00  0.00    -0.233 N 
ATOM     13  C   UNL     1      35.401 -17.826 -22.162  0.00  0.00    +0.257 C 
ATOM     14  C   UNL     1      34.539 -19.436 -23.770  0.00  0.00    +0.072 C 
ATOM     15  C   UNL     1      35.679 -16.940 -23.335  0.00  0.00    +0.059 C 
ATOM     16  C   UNL     1      34.766 -18.613 -24.799  0.00  0.00    +0.017 C 
ATOM     17  C   UNL     1      35.361 -17.330 -24.572  0.00  0.00    +0.006 C 
ENDBRANCH   5  12
ENDBRANCH   3   6
BRANCH   2  18
ATOM     18  C   UNL     1      32.137 -23.659 -16.606  0.00  0.00    +0.111 C 
BRANCH  18  19
ATOM     19  C   UNL     1      32.364 -23.012 -15.250  0.00  0.00    +0.111 C 
BRANCH  19  21
ATOM     20  O   UNL     1      32.876 -24.874 -13.127  0.00  0.00    -0.270 OA
ATOM     21  N   UNL     1      33.647 -23.353 -14.699  0.00  0.00    -0.299 N 
ATOM     22  C   UNL     1      33.799 -24.270 -13.666  0.00  0.00    +0.252 C 
ATOM     23  H   UNL     1      34.450 -22.918 -15.068  0.00  0.00    +0.150 HD
BRANCH  22  26
ATOM     24 CL   UNL     1      39.149 -25.431 -13.507  0.00  0.00    -0.075 Cl
ATOM     25  S   UNL     1      36.337 -24.955 -14.333  0.00  0.00    -0.071 S 
ATOM     26  C   UNL     1      35.189 -24.494 -13.190  0.00  0.00    +0.084 C 
ATOM     27  C   UNL     1      35.638 -24.369 -11.932  0.00  0.00    +0.012 C 
ATOM     28  C   UNL     1      37.030 -24.669 -11.877  0.00  0.00    +0.019 C 
ATOM     29  C   UNL     1      37.537 -25.003 -13.113  0.00  0.00    +0.087 C 
ENDBRANCH  22  26
ENDBRANCH  19  21
ENDBRANCH  18  19
ENDBRANCH   2  18
TORSDOF 6
ENDMDL
MODEL 2
REMARK VINA RESULT:     -11.3      2.939      3.958
REMARK  Name = 10250490
REMARK  6 active torsions:
REMARK  status: ('A' for Active; 'I' for Inactive)
REMARK    1  A    between atoms: N_2  and  C_18
REMARK    2  A    between atoms: C_3  and  C_6
REMARK    3  A    between atoms: C_5  and  N_12
REMARK    4  A    between atoms: C_18  and  C_19
REMARK    5  A    between atoms: C_19  and  N_21
REMARK    6  A    between atoms: C_22  and  C_26
REMARK                            x       y       z     vdW  Elec       q    Type
REMARK                         _______ _______ _______ _____ _____    ______ ____
ROOT
ATOM      1  O   UNL     1      34.153 -23.683 -18.159  0.00  0.00    -0.270 OA
ATOM      2  N   UNL     1      35.920 -22.575 -17.148  0.00  0.00    -0.299 N 
ATOM      3  C   UNL     1      34.972 -22.748 -18.162  0.00  0.00    +0.246 C 
ATOM      4  H   UNL     1      36.540 -21.812 -17.212  0.00  0.00    +0.150 HD
ENDROOT
BRANCH   3   6
ATOM      5  C   UNL     1      35.039 -19.953 -21.356  0.00  0.00    +0.058 C 
ATOM      6  C   UNL     1      34.994 -21.790 -19.256  0.00  0.00    +0.053 C 
ATOM      7  C   UNL     1      33.821 -20.435 -20.876  0.00  0.00    +0.015 C 
ATOM      8  C   UNL     1      36.235 -20.389 -20.785  0.00  0.00    +0.015 C 
ATOM      9  C   UNL     1      33.799 -21.353 -19.826  0.00  0.00    +0.006 C 
ATOM     10  C   UNL     1      36.213 -21.308 -19.736  0.00  0.00    +0.006 C 
BRANCH   5  12
ATOM     11  O   UNL     1      35.643 -17.136 -21.103  0.00  0.00    -0.269 OA
ATOM     12  N   UNL     1      35.061 -18.999 -22.448  0.00  0.00    -0.233 N 
ATOM     13  C   UNL     1      35.413 -17.647 -22.199  0.00  0.00    +0.257 C 
ATOM     14  C   UNL     1      34.717 -19.396 -23.742  0.00  0.00    +0.072 C 
ATOM     15  C   UNL     1      35.458 -16.741 -23.389  0.00  0.00    +0.059 C 
ATOM     16  C   UNL     1      34.732 -18.558 -24.785  0.00  0.00    +0.017 C 
ATOM     17  C   UNL     1      35.121 -17.192 -24.600  0.00  0.00    +0.006 C 
ENDBRANCH   5  12
ENDBRANCH   3   6
BRANCH   2  18
ATOM     18  C   UNL     1      36.040 -23.456 -16.008  0.00  0.00    +0.111 C 
BRANCH  18  19
ATOM     19  C   UNL     1      35.108 -23.060 -14.875  0.00  0.00    +0.111 C 
BRANCH  19  21
ATOM     20  O   UNL     1      33.289 -24.599 -13.274  0.00  0.00    -0.270 OA
ATOM     21  N   UNL     1      33.734 -23.355 -15.181  0.00  0.00    -0.299 N 
ATOM     22  C   UNL     1      32.926 -24.113 -14.342  0.00  0.00    +0.252 C 
ATOM     23  H   UNL     1      33.351 -23.007 -16.019  0.00  0.00    +0.150 HD
BRANCH  22  26
ATOM     24 CL   UNL     1      28.252 -23.854 -17.183  0.00  0.00    -0.075 Cl
ATOM     25  S   UNL     1      31.008 -23.469 -16.147  0.00  0.00    -0.071 S 
ATOM     26  C   UNL     1      31.537 -24.350 -14.812  0.00  0.00    +0.084 C 
ATOM     27  C   UNL     1      30.643 -25.201 -14.284  0.00  0.00    +0.012 C 
ATOM     28  C   UNL     1      29.420 -25.142 -15.015  0.00  0.00    +0.019 C 
ATOM     29  C   UNL     1      29.482 -24.241 -16.055  0.00  0.00    +0.087 C 
ENDBRANCH  22  26
ENDBRANCH  19  21
ENDBRANCH  18  19
ENDBRANCH   2  18
TORSDOF 6
ENDMDL
MODEL 3
REMARK VINA RESULT:     -10.7      1.436      2.010
REMARK  Name = 10250490
REMARK  6 active torsions:
REMARK  status: ('A' for Active; 'I' for Inactive)
REMARK    1  A    between atoms: N_2  and  C_18
REMARK    2  A    between atoms: C_3  and  C_6
REMARK    3  A    between atoms: C_5  and  N_12
REMARK    4  A    between atoms: C_18  and  C_19
REMARK    5  A    between atoms: C_19  and  N_21
REMARK    6  A    between atoms: C_22  and  C_26
REMARK                            x       y       z     vdW  Elec       q    Type
REMARK                         _______ _______ _______ _____ _____    ______ ____
ROOT
ATOM      1  O   UNL     1      35.978 -22.786 -18.241  0.00  0.00    -0.270 OA
ATOM      2  N   UNL     1      33.663 -22.807 -18.369  0.00  0.00    -0.299 N 
ATOM      3  C   UNL     1      34.931 -22.357 -18.756  0.00  0.00    +0.246 C 
ATOM      4  H   UNL     1      32.875 -22.425 -18.819  0.00  0.00    +0.150 HD
ENDROOT
BRANCH   3   6
ATOM      5  C   UNL     1      35.081 -19.366 -21.764  0.00  0.00    +0.058 C 
ATOM      6  C   UNL     1      34.981 -21.332 -19.786  0.00  0.00    +0.053 C 
ATOM      7  C   UNL     1      33.850 -19.852 -21.324  0.00  0.00    +0.015 C 
ATOM      8  C   UNL     1      36.263 -19.863 -21.214  0.00  0.00    +0.015 C 
ATOM      9  C   UNL     1      33.800 -20.835 -20.335  0.00  0.00    +0.006 C 
ATOM     10  C   UNL     1      36.213 -20.846 -20.225  0.00  0.00    +0.006 C 
BRANCH   5  12
ATOM     11  O   UNL     1      34.850 -19.845 -24.607  0.00  0.00    -0.269 OA
ATOM     12  N   UNL     1      35.132 -18.346 -22.793  0.00  0.00    -0.233 N 
ATOM     13  C   UNL     1      34.965 -18.706 -24.155  0.00  0.00    +0.257 C 
ATOM     14  C   UNL     1      35.367 -17.011 -22.456  0.00  0.00    +0.072 C 
ATOM     15  C   UNL     1      34.983 -17.586 -25.147  0.00  0.00    +0.059 C 
ATOM     16  C   UNL     1      35.412 -16.031 -23.365  0.00  0.00    +0.017 C 
ATOM     17  C   UNL     1      35.207 -16.331 -24.750  0.00  0.00    +0.006 C 
ENDBRANCH   5  12
ENDBRANCH   3   6
BRANCH   2  18
ATOM     18  C   UNL     1      33.447 -23.803 -17.344  0.00  0.00    +0.111 C 
BRANCH  18  19
ATOM     19  C   UNL     1      33.786 -23.283 -15.957  0.00  0.00    +0.111 C 
BRANCH  19  21
ATOM     20  O   UNL     1      34.201 -24.350 -13.325  0.00  0.00    -0.270 OA
ATOM     21  N   UNL     1      35.000 -23.861 -15.447  0.00  0.00    -0.299 N 
ATOM     22  C   UNL     1      35.109 -24.354 -14.153  0.00  0.00    +0.252 C 
ATOM     23  H   UNL     1      35.785 -23.908 -16.039  0.00  0.00    +0.150 HD
BRANCH  22  26
ATOM     24 CL   UNL     1      40.376 -25.847 -14.265  0.00  0.00    -0.075 Cl
ATOM     25  S   UNL     1      37.673 -24.800 -14.911  0.00  0.00    -0.071 S 
ATOM     26  C   UNL     1      36.438 -24.895 -13.769  0.00  0.00    +0.084 C 
ATOM     27  C   UNL     1      36.770 -25.460 -12.598  0.00  0.00    +0.012 C 
ATOM     28  C   UNL     1      38.139 -25.855 -12.615  0.00  0.00    +0.019 C 
ATOM     29  C   UNL     1      38.750 -25.554 -13.812  0.00  0.00    +0.087 C 
ENDBRANCH  22  26
ENDBRANCH  19  21
ENDBRANCH  18  19
ENDBRANCH   2  18
TORSDOF 6
ENDMDL
MODEL 4
REMARK VINA RESULT:     -10.7      6.260     10.819
REMARK  Name = 10250490
REMARK  6 active torsions:
REMARK  status: ('A' for Active; 'I' for Inactive)
REMARK    1  A    between atoms: N_2  and  C_18
REMARK    2  A    between atoms: C_3  and  C_6
REMARK    3  A    between atoms: C_5  and  N_12
REMARK    4  A    between atoms: C_18  and  C_19
REMARK    5  A    between atoms: C_19  and  N_21
REMARK    6  A    between atoms: C_22  and  C_26
REMARK                            x       y       z     vdW  Elec       q    Type
REMARK                         _______ _______ _______ _____ _____    ______ ____
ROOT
ATOM      1  O   UNL     1      35.729 -16.497 -26.243  0.00  0.00    -0.270 OA
ATOM      2  N   UNL     1      33.771 -15.642 -25.344  0.00  0.00    -0.299 N 
ATOM      3  C   UNL     1      34.868 -16.511 -25.347  0.00  0.00    +0.246 C 
ATOM      4  H   UNL     1      33.126 -15.706 -24.602  0.00  0.00    +0.150 HD
ENDROOT
BRANCH   3   6
ATOM      5  C   UNL     1      35.122 -19.297 -22.154  0.00  0.00    +0.058 C 
ATOM      6  C   UNL     1      34.955 -17.466 -24.253  0.00  0.00    +0.053 C 
ATOM      7  C   UNL     1      34.710 -19.719 -23.419  0.00  0.00    +0.015 C 
ATOM      8  C   UNL     1      35.451 -17.958 -21.941  0.00  0.00    +0.015 C 
ATOM      9  C   UNL     1      34.627 -18.804 -24.468  0.00  0.00    +0.006 C 
ATOM     10  C   UNL     1      35.367 -17.043 -22.990  0.00  0.00    +0.006 C 
BRANCH   5  12
ATOM     11  O   UNL     1      32.865 -20.556 -20.855  0.00  0.00    -0.269 OA
ATOM     12  N   UNL     1      35.206 -20.249 -21.064  0.00  0.00    -0.233 N 
ATOM     13  C   UNL     1      34.023 -20.828 -20.538  0.00  0.00    +0.257 C 
ATOM     14  C   UNL     1      36.444 -20.585 -20.512  0.00  0.00    +0.072 C 
ATOM     15  C   UNL     1      34.204 -21.836 -19.447  0.00  0.00    +0.059 C 
ATOM     16  C   UNL     1      36.577 -21.465 -19.513  0.00  0.00    +0.017 C 
ATOM     17  C   UNL     1      35.421 -22.113 -18.971  0.00  0.00    +0.006 C 
ENDBRANCH   5  12
ENDBRANCH   3   6
BRANCH   2  18
ATOM     18  C   UNL     1      33.532 -14.654 -26.372  0.00  0.00    +0.111 C 
BRANCH  18  19
ATOM     19  C   UNL     1      33.778 -13.239 -25.876  0.00  0.00    +0.111 C 
BRANCH  19  21
ATOM     20  O   UNL     1      35.038 -13.624 -23.325  0.00  0.00    -0.270 OA
ATOM     21  N   UNL     1      33.189 -13.010 -24.584  0.00  0.00    -0.299 N 
ATOM     22  C   UNL     1      33.879 -13.225 -23.397  0.00  0.00    +0.252 C 
ATOM     23  H   UNL     1      32.259 -12.688 -24.540  0.00  0.00    +0.150 HD
BRANCH  22  26
ATOM     24 CL   UNL     1      30.666 -10.915 -19.611  0.00  0.00    -0.075 Cl
ATOM     25  S   UNL     1      32.224 -11.544 -22.060  0.00  0.00    -0.071 S 
ATOM     26  C   UNL     1      33.121 -12.968 -22.145  0.00  0.00    +0.084 C 
ATOM     27  C   UNL     1      33.071 -13.754 -21.059  0.00  0.00    +0.012 C 
ATOM     28  C   UNL     1      32.238 -13.162 -20.065  0.00  0.00    +0.019 C 
ATOM     29  C   UNL     1      31.713 -11.958 -20.479  0.00  0.00    +0.087 C 
ENDBRANCH  22  26
ENDBRANCH  19  21
ENDBRANCH  18  19
ENDBRANCH   2  18
TORSDOF 6
ENDMDL
MODEL 5
REMARK VINA RESULT:     -10.6      2.899      3.803
REMARK  Name = 10250490
REMARK  6 active torsions:
REMARK  status: ('A' for Active; 'I' for Inactive)
REMARK    1  A    between atoms: N_2  and  C_18
REMARK    2  A    between atoms: C_3  and  C_6
REMARK    3  A    between atoms: C_5  and  N_12
REMARK    4  A    between atoms: C_18  and  C_19
REMARK    5  A    between atoms: C_19  and  N_21
REMARK    6  A    between atoms: C_22  and  C_26
REMARK                            x       y       z     vdW  Elec       q    Type
REMARK                         _______ _______ _______ _____ _____    ______ ____
ROOT
ATOM      1  O   UNL     1      35.341 -22.878 -18.920  0.00  0.00    -0.270 OA
ATOM      2  N   UNL     1      37.124 -21.635 -18.116  0.00  0.00    -0.299 N 
ATOM      3  C   UNL     1      36.063 -21.869 -18.997  0.00  0.00    +0.246 C 
ATOM      4  H   UNL     1      37.657 -20.815 -18.233  0.00  0.00    +0.150 HD
ENDROOT
BRANCH   3   6
ATOM      5  C   UNL     1      35.422 -18.988 -22.048  0.00  0.00    +0.058 C 
ATOM      6  C   UNL     1      35.844 -20.882 -20.043  0.00  0.00    +0.053 C 
ATOM      7  C   UNL     1      36.699 -19.171 -21.517  0.00  0.00    +0.015 C 
ATOM      8  C   UNL     1      34.356 -19.755 -21.576  0.00  0.00    +0.015 C 
ATOM      9  C   UNL     1      36.910 -20.118 -20.515  0.00  0.00    +0.006 C 
ATOM     10  C   UNL     1      34.567 -20.701 -20.573  0.00  0.00    +0.006 C 
BRANCH   5  12
ATOM     11  O   UNL     1      35.370 -16.124 -21.654  0.00  0.00    -0.269 OA
ATOM     12  N   UNL     1      35.203 -18.003 -23.089  0.00  0.00    -0.233 N 
ATOM     13  C   UNL     1      35.241 -16.620 -22.773  0.00  0.00    +0.257 C 
ATOM     14  C   UNL     1      34.932 -18.405 -24.399  0.00  0.00    +0.072 C 
ATOM     15  C   UNL     1      35.053 -15.671 -23.914  0.00  0.00    +0.059 C 
ATOM     16  C   UNL     1      34.734 -17.536 -25.397  0.00  0.00    +0.017 C 
ATOM     17  C   UNL     1      34.804 -16.128 -25.144  0.00  0.00    +0.006 C 
ENDBRANCH   5  12
ENDBRANCH   3   6
BRANCH   2  18
ATOM     18  C   UNL     1      37.483 -22.532 -17.041  0.00  0.00    +0.111 C 
BRANCH  18  19
ATOM     19  C   UNL     1      36.826 -22.144 -15.726  0.00  0.00    +0.111 C 
BRANCH  19  21
ATOM     20  O   UNL     1      35.556 -24.717 -15.806  0.00  0.00    -0.270 OA
ATOM     21  N   UNL     1      35.412 -22.403 -15.733  0.00  0.00    -0.299 N 
ATOM     22  C   UNL     1      34.885 -23.688 -15.774  0.00  0.00    +0.252 C 
ATOM     23  H   UNL     1      34.792 -21.638 -15.709  0.00  0.00    +0.150 HD
BRANCH  22  26
ATOM     24 CL   UNL     1      29.707 -24.989 -14.556  0.00  0.00    -0.075 Cl
ATOM     25  S   UNL     1      32.664 -24.716 -14.608  0.00  0.00    -0.071 S 
ATOM     26  C   UNL     1      33.403 -23.787 -15.802  0.00  0.00    +0.084 C 
ATOM     27  C   UNL     1      32.575 -23.209 -16.687  0.00  0.00    +0.012 C 
ATOM     28  C   UNL     1      31.223 -23.541 -16.381  0.00  0.00    +0.019 C 
ATOM     29  C   UNL     1      31.128 -24.355 -15.274  0.00  0.00    +0.087 C 
ENDBRANCH  22  26
ENDBRANCH  19  21
ENDBRANCH  18  19
ENDBRANCH   2  18
TORSDOF 6
ENDMDL
MODEL 6
REMARK VINA RESULT:     -10.3      6.948     10.999
REMARK  Name = 10250490
REMARK  6 active torsions:
REMARK  status: ('A' for Active; 'I' for Inactive)
REMARK    1  A    between atoms: N_2  and  C_18
REMARK    2  A    between atoms: C_3  and  C_6
REMARK    3  A    between atoms: C_5  and  N_12
REMARK    4  A    between atoms: C_18  and  C_19
REMARK    5  A    between atoms: C_19  and  N_21
REMARK    6  A    between atoms: C_22  and  C_26
REMARK                            x       y       z     vdW  Elec       q    Type
REMARK                         _______ _______ _______ _____ _____    ______ ____
ROOT
ATOM      1  O   UNL     1      34.068 -14.699 -22.784  0.00  0.00    -0.270 OA
ATOM      2  N   UNL     1      33.370 -14.407 -24.975  0.00  0.00    -0.299 N 
ATOM      3  C   UNL     1      33.599 -13.962 -23.669  0.00  0.00    +0.246 C 
ATOM      4  H   UNL     1      32.997 -13.770 -25.627  0.00  0.00    +0.150 HD
ENDROOT
BRANCH   3   6
ATOM      5  C   UNL     1      32.557  -9.942 -22.790  0.00  0.00    +0.058 C 
ATOM      6  C   UNL     1      33.242 -12.584 -23.369  0.00  0.00    +0.053 C 
ATOM      7  C   UNL     1      33.476 -10.220 -23.803  0.00  0.00    +0.015 C 
ATOM      8  C   UNL     1      31.980 -10.987 -22.068  0.00  0.00    +0.015 C 
ATOM      9  C   UNL     1      33.818 -11.540 -24.092  0.00  0.00    +0.006 C 
ATOM     10  C   UNL     1      32.323 -12.307 -22.356  0.00  0.00    +0.006 C 
BRANCH   5  12
ATOM     11  O   UNL     1      33.106  -8.582 -20.298  0.00  0.00    -0.269 OA
ATOM     12  N   UNL     1      32.203  -8.568 -22.489  0.00  0.00    -0.233 N 
ATOM     13  C   UNL     1      32.565  -8.002 -21.240  0.00  0.00    +0.257 C 
ATOM     14  C   UNL     1      31.487  -7.803 -23.412  0.00  0.00    +0.072 C 
ATOM     15  C   UNL     1      32.204  -6.566 -21.030  0.00  0.00    +0.059 C 
ATOM     16  C   UNL     1      31.146  -6.529 -23.188  0.00  0.00    +0.017 C 
ATOM     17  C   UNL     1      31.523  -5.893 -21.961  0.00  0.00    +0.006 C 
ENDBRANCH   5  12
ENDBRANCH   3   6
BRANCH   2  18
ATOM     18  C   UNL     1      33.650 -15.753 -25.422  0.00  0.00    +0.111 C 
BRANCH  18  19
ATOM     19  C   UNL     1      35.141 -16.027 -25.518  0.00  0.00    +0.111 C 
BRANCH  19  21
ATOM     20  O   UNL     1      34.504 -18.750 -24.872  0.00  0.00    -0.270 OA
ATOM     21  N   UNL     1      35.625 -16.778 -24.391  0.00  0.00    -0.299 N 
ATOM     22  C   UNL     1      35.261 -18.098 -24.158  0.00  0.00    +0.252 C 
ATOM     23  H   UNL     1      36.240 -16.337 -23.760  0.00  0.00    +0.150 HD
BRANCH  22  26
ATOM     24 CL   UNL     1      35.886 -21.176 -19.672  0.00  0.00    -0.075 Cl
ATOM     25  S   UNL     1      34.869 -19.852 -22.127  0.00  0.00    -0.071 S 
ATOM     26  C   UNL     1      35.826 -18.725 -22.935  0.00  0.00    +0.084 C 
ATOM     27  C   UNL     1      37.032 -18.491 -22.395  0.00  0.00    +0.012 C 
ATOM     28  C   UNL     1      37.206 -19.286 -21.225  0.00  0.00    +0.019 C 
ATOM     29  C   UNL     1      36.107 -20.073 -20.965  0.00  0.00    +0.087 C 
ENDBRANCH  22  26
ENDBRANCH  19  21
ENDBRANCH  18  19
ENDBRANCH   2  18
TORSDOF 6
ENDMDL
MODEL 7
REMARK VINA RESULT:     -10.2      2.773      4.933
REMARK  Name = 10250490
REMARK  6 active torsions:
REMARK  status: ('A' for Active; 'I' for Inactive)
REMARK    1  A    between atoms: N_2  and  C_18
REMARK    2  A    between atoms: C_3  and  C_6
REMARK    3  A    between atoms: C_5  and  N_12
REMARK    4  A    between atoms: C_18  and  C_19
REMARK    5  A    between atoms: C_19  and  N_21
REMARK    6  A    between atoms: C_22  and  C_26
REMARK                            x       y       z     vdW  Elec       q    Type
REMARK                         _______ _______ _______ _____ _____    ______ ____
ROOT
ATOM      1  O   UNL     1      37.535 -19.175 -21.074  0.00  0.00    -0.270 OA
ATOM      2  N   UNL     1      35.384 -20.027 -20.939  0.00  0.00    -0.299 N 
ATOM      3  C   UNL     1      36.335 -19.105 -21.389  0.00  0.00    +0.246 C 
ATOM      4  H   UNL     1      34.449 -19.913 -21.228  0.00  0.00    +0.150 HD
ENDROOT
BRANCH   3   6
ATOM      5  C   UNL     1      34.941 -15.948 -23.861  0.00  0.00    +0.058 C 
ATOM      6  C   UNL     1      35.857 -18.024 -22.236  0.00  0.00    +0.053 C 
ATOM      7  C   UNL     1      35.301 -17.171 -24.427  0.00  0.00    +0.015 C 
ATOM      8  C   UNL     1      35.039 -15.764 -22.481  0.00  0.00    +0.015 C 
ATOM      9  C   UNL     1      35.758 -18.209 -23.615  0.00  0.00    +0.006 C 
ATOM     10  C   UNL     1      35.497 -16.801 -21.669  0.00  0.00    +0.006 C 
BRANCH   5  12
ATOM     11  O   UNL     1      33.940 -16.253 -26.557  0.00  0.00    -0.269 OA
ATOM     12  N   UNL     1      34.467 -14.870 -24.706  0.00  0.00    -0.233 N 
ATOM     13  C   UNL     1      33.961 -15.156 -26.000  0.00  0.00    +0.257 C 
ATOM     14  C   UNL     1      34.524 -13.546 -24.264  0.00  0.00    +0.072 C 
ATOM     15  C   UNL     1      33.448 -13.991 -26.786  0.00  0.00    +0.059 C 
ATOM     16  C   UNL     1      34.090 -12.517 -25.000  0.00  0.00    +0.017 C 
ATOM     17  C   UNL     1      33.530 -12.751 -26.297  0.00  0.00    +0.006 C 
ENDBRANCH   5  12
ENDBRANCH   3   6
BRANCH   2  18
ATOM     18  C   UNL     1      35.698 -21.142 -20.074  0.00  0.00    +0.111 C 
BRANCH  18  19
ATOM     19  C   UNL     1      34.471 -21.975 -19.742  0.00  0.00    +0.111 C 
BRANCH  19  21
ATOM     20  O   UNL     1      32.254 -22.738 -18.087  0.00  0.00    -0.270 OA
ATOM     21  N   UNL     1      34.540 -22.532 -18.418  0.00  0.00    -0.299 N 
ATOM     22  C   UNL     1      33.408 -22.873 -17.689  0.00  0.00    +0.252 C 
ATOM     23  H   UNL     1      35.426 -22.678 -18.013  0.00  0.00    +0.150 HD
BRANCH  22  26
ATOM     24 CL   UNL     1      35.856 -24.645 -13.122  0.00  0.00    -0.075 Cl
ATOM     25  S   UNL     1      35.247 -23.577 -15.825  0.00  0.00    -0.071 S 
ATOM     26  C   UNL     1      33.647 -23.413 -16.326  0.00  0.00    +0.084 C 
ATOM     27  C   UNL     1      32.717 -23.792 -15.436  0.00  0.00    +0.012 C 
ATOM     28  C   UNL     1      33.341 -24.256 -14.242  0.00  0.00    +0.019 C 
ATOM     29  C   UNL     1      34.715 -24.193 -14.318  0.00  0.00    +0.087 C 
ENDBRANCH  22  26
ENDBRANCH  19  21
ENDBRANCH  18  19
ENDBRANCH   2  18
TORSDOF 6
ENDMDL
MODEL 8
REMARK VINA RESULT:     -10.1      4.958     10.739
REMARK  Name = 10250490
REMARK  6 active torsions:
REMARK  status: ('A' for Active; 'I' for Inactive)
REMARK    1  A    between atoms: N_2  and  C_18
REMARK    2  A    between atoms: C_3  and  C_6
REMARK    3  A    between atoms: C_5  and  N_12
REMARK    4  A    between atoms: C_18  and  C_19
REMARK    5  A    between atoms: C_19  and  N_21
REMARK    6  A    between atoms: C_22  and  C_26
REMARK                            x       y       z     vdW  Elec       q    Type
REMARK                         _______ _______ _______ _____ _____    ______ ____
ROOT
ATOM      1  O   UNL     1      33.807 -21.834 -20.019  0.00  0.00    -0.270 OA
ATOM      2  N   UNL     1      35.768 -20.619 -20.248  0.00  0.00    -0.299 N 
ATOM      3  C   UNL     1      34.940 -21.542 -19.599  0.00  0.00    +0.246 C 
ATOM      4  H   UNL     1      36.654 -20.435 -19.862  0.00  0.00    +0.150 HD
ENDROOT
BRANCH   3   6
ATOM      5  C   UNL     1      36.434 -23.299 -16.035  0.00  0.00    +0.058 C 
ATOM      6  C   UNL     1      35.452 -22.143 -18.378  0.00  0.00    +0.053 C 
ATOM      7  C   UNL     1      37.275 -22.532 -16.842  0.00  0.00    +0.015 C 
ATOM      8  C   UNL     1      35.100 -23.487 -16.401  0.00  0.00    +0.015 C 
ATOM      9  C   UNL     1      36.784 -21.954 -18.012  0.00  0.00    +0.006 C 
ATOM     10  C   UNL     1      34.610 -22.909 -17.572  0.00  0.00    +0.006 C 
BRANCH   5  12
ATOM     11  O   UNL     1      37.087 -26.096 -15.700  0.00  0.00    -0.269 OA
ATOM     12  N   UNL     1      36.945 -23.900 -14.819  0.00  0.00    -0.233 N 
ATOM     13  C   UNL     1      37.266 -25.282 -14.794  0.00  0.00    +0.257 C 
ATOM     14  C   UNL     1      37.103 -23.134 -13.663  0.00  0.00    +0.072 C 
ATOM     15  C   UNL     1      37.832 -25.811 -13.515  0.00  0.00    +0.059 C 
ATOM     16  C   UNL     1      37.580 -23.638 -12.519  0.00  0.00    +0.017 C 
ATOM     17  C   UNL     1      37.962 -25.016 -12.449  0.00  0.00    +0.006 C 
ENDBRANCH   5  12
ENDBRANCH   3   6
BRANCH   2  18
ATOM     18  C   UNL     1      35.392 -19.921 -21.457  0.00  0.00    +0.111 C 
BRANCH  18  19
ATOM     19  C   UNL     1      36.472 -18.960 -21.924  0.00  0.00    +0.111 C 
BRANCH  19  21
ATOM     20  O   UNL     1      35.329 -16.473 -21.060  0.00  0.00    -0.270 OA
ATOM     21  N   UNL     1      35.942 -17.920 -22.765  0.00  0.00    -0.299 N 
ATOM     22  C   UNL     1      35.406 -16.745 -22.255  0.00  0.00    +0.252 C 
ATOM     23  H   UNL     1      35.960 -18.048 -23.741  0.00  0.00    +0.150 HD
BRANCH  22  26
ATOM     24 CL   UNL     1      33.684 -14.483 -26.936  0.00  0.00    -0.075 Cl
ATOM     25  S   UNL     1      34.732 -16.314 -24.846  0.00  0.00    -0.071 S 
ATOM     26  C   UNL     1      34.875 -15.781 -23.254  0.00  0.00    +0.084 C 
ATOM     27  C   UNL     1      34.492 -14.515 -23.026  0.00  0.00    +0.012 C 
ATOM     28  C   UNL     1      34.042 -13.915 -24.238  0.00  0.00    +0.019 C 
ATOM     29  C   UNL     1      34.119 -14.782 -25.305  0.00  0.00    +0.087 C 
ENDBRANCH  22  26
ENDBRANCH  19  21
ENDBRANCH  18  19
ENDBRANCH   2  18
TORSDOF 6
ENDMDL
MODEL 9
REMARK VINA RESULT:      -9.9      7.559     12.778
REMARK  Name = 10250490
REMARK  6 active torsions:
REMARK  status: ('A' for Active; 'I' for Inactive)
REMARK    1  A    between atoms: N_2  and  C_18
REMARK    2  A    between atoms: C_3  and  C_6
REMARK    3  A    between atoms: C_5  and  N_12
REMARK    4  A    between atoms: C_18  and  C_19
REMARK    5  A    between atoms: C_19  and  N_21
REMARK    6  A    between atoms: C_22  and  C_26
REMARK                            x       y       z     vdW  Elec       q    Type
REMARK                         _______ _______ _______ _____ _____    ______ ____
ROOT
ATOM      1  O   UNL     1      34.259 -15.965 -26.658  0.00  0.00    -0.270 OA
ATOM      2  N   UNL     1      34.161 -14.326 -25.022  0.00  0.00    -0.299 N 
ATOM      3  C   UNL     1      34.359 -15.639 -25.463  0.00  0.00    +0.246 C 
ATOM      4  H   UNL     1      34.257 -14.137 -24.061  0.00  0.00    +0.150 HD
ENDROOT
BRANCH   3   6
ATOM      5  C   UNL     1      35.271 -18.548 -22.509  0.00  0.00    +0.058 C 
ATOM      6  C   UNL     1      34.671 -16.635 -24.450  0.00  0.00    +0.053 C 
ATOM      7  C   UNL     1      35.385 -17.190 -22.211  0.00  0.00    +0.015 C 
ATOM      8  C   UNL     1      34.856 -18.949 -23.780  0.00  0.00    +0.015 C 
ATOM      9  C   UNL     1      35.085 -16.234 -23.181  0.00  0.00    +0.006 C 
ATOM     10  C   UNL     1      34.557 -17.993 -24.750  0.00  0.00    +0.006 C 
BRANCH   5  12
ATOM     11  O   UNL     1      37.911 -19.093 -21.463  0.00  0.00    -0.269 OA
ATOM     12  N   UNL     1      35.584 -19.541 -21.501  0.00  0.00    -0.233 N 
ATOM     13  C   UNL     1      36.918 -19.685 -21.040  0.00  0.00    +0.257 C 
ATOM     14  C   UNL     1      34.585 -20.374 -20.993  0.00  0.00    +0.072 C 
ATOM     15  C   UNL     1      37.146 -20.700 -19.965  0.00  0.00    +0.059 C 
ATOM     16  C   UNL     1      34.820 -21.299 -20.055  0.00  0.00    +0.017 C 
ATOM     17  C   UNL     1      36.140 -21.458 -19.522  0.00  0.00    +0.006 C 
ENDBRANCH   5  12
ENDBRANCH   3   6
BRANCH   2  18
ATOM     18  C   UNL     1      33.823 -13.230 -25.902  0.00  0.00    +0.111 C 
BRANCH  18  19
ATOM     19  C   UNL     1      34.630 -11.979 -25.598  0.00  0.00    +0.111 C 
BRANCH  19  21
ATOM     20  O   UNL     1      35.645  -9.559 -24.436  0.00  0.00    -0.270 OA
ATOM     21  N   UNL     1      33.913 -11.069 -24.746  0.00  0.00    -0.299 N 
ATOM     22  C   UNL     1      34.489  -9.916 -24.227  0.00  0.00    +0.252 C 
ATOM     23  H   UNL     1      32.975 -11.272 -24.522  0.00  0.00    +0.150 HD
BRANCH  22  26
ATOM     24 CL   UNL     1      32.409  -5.738 -21.364  0.00  0.00    -0.075 Cl
ATOM     25  S   UNL     1      34.058  -7.484 -23.109  0.00  0.00    -0.071 S 
ATOM     26  C   UNL     1      33.623  -9.094 -23.342  0.00  0.00    +0.084 C 
ATOM     27  C   UNL     1      32.517  -9.498 -22.698  0.00  0.00    +0.012 C 
ATOM     28  C   UNL     1      31.966  -8.419 -21.948  0.00  0.00    +0.019 C 
ATOM     29  C   UNL     1      32.705  -7.265 -22.082  0.00  0.00    +0.087 C 
ENDBRANCH  22  26
ENDBRANCH  19  21
ENDBRANCH  18  19
ENDBRANCH   2  18
TORSDOF 6
ENDMDL
