MODEL 1
REMARK VINA RESULT:     -12.4      0.000      0.000
REMARK  Name = 9999276
REMARK  5 active torsions:
REMARK  status: ('A' for Active; 'I' for Inactive)
REMARK    1  A    between atoms: C_3  and  C_11
REMARK    2  A    between atoms: C_6  and  C_20
REMARK    3  A    between atoms: C_14  and  N_19
REMARK    4  A    between atoms: C_25  and  C_27
REMARK    5  A    between atoms: C_27  and  O_28
REMARK                            x       y       z     vdW  Elec       q    Type
REMARK                         _______ _______ _______ _____ _____    ______ ____
ROOT
ATOM      1  N   UNL     1      34.943 -23.268 -16.845  0.00  0.00    -0.400 NA
ATOM      2  N   UNL     1      33.031 -25.023 -14.278  0.00  0.00    -0.242 NA
ATOM      3  C   UNL     1      34.590 -23.995 -15.758  0.00  0.00    +0.149 C 
ATOM      4  C   UNL     1      33.291 -24.289 -15.378  0.00  0.00    +0.107 C 
ATOM      5  C   UNL     1      32.272 -23.782 -16.202  0.00  0.00    +0.005 C 
ATOM      6  C   UNL     1      33.935 -22.800 -17.607  0.00  0.00    +0.131 C 
ATOM      7  C   UNL     1      32.597 -23.025 -17.334  0.00  0.00    +0.030 C 
ATOM      8  C   UNL     1      30.944 -24.058 -15.851  0.00  0.00    +0.056 C 
ATOM      9  C   UNL     1      30.666 -24.814 -14.719  0.00  0.00    -0.001 C 
ATOM     10  C   UNL     1      31.735 -25.269 -13.974  0.00  0.00    +0.095 C 
ENDROOT
BRANCH   3  11
ATOM     11  C   UNL     1      35.726 -24.462 -14.991  0.00  0.00    +0.033 C 
ATOM     12  C   UNL     1      36.104 -23.793 -13.829  0.00  0.00    +0.027 C 
ATOM     13  C   UNL     1      36.440 -25.581 -15.419  0.00  0.00    +0.003 C 
ATOM     14  C   UNL     1      37.198 -24.243 -13.090  0.00  0.00    +0.143 C 
ATOM     15  C   UNL     1      37.535 -26.032 -14.680  0.00  0.00    +0.002 C 
ATOM     16  C   UNL     1      37.914 -25.362 -13.517  0.00  0.00    +0.024 C 
BRANCH  14  19
ATOM     17  O   UNL     1      38.300 -22.538 -12.006  0.00  0.00    -0.126 OA
ATOM     18  O   UNL     1      37.196 -24.007 -10.801  0.00  0.00    -0.126 OA
ATOM     19  N   UNL     1      37.584 -23.562 -11.906  0.00  0.00    +0.058 N 
ENDBRANCH  14  19
ENDBRANCH   3  11
BRANCH   6  20
ATOM     20  C   UNL     1      34.343 -22.028 -18.756  0.00  0.00    +0.030 C 
ATOM     21  C   UNL     1      35.696 -21.912 -19.079  0.00  0.00    +0.003 C 
ATOM     22  C   UNL     1      33.384 -21.393 -19.549  0.00  0.00    +0.003 C 
ATOM     23  C   UNL     1      36.090 -21.167 -20.191  0.00  0.00    +0.007 C 
ATOM     24  C   UNL     1      33.778 -20.647 -20.661  0.00  0.00    +0.007 C 
ATOM     25  C   UNL     1      35.130 -20.534 -20.981  0.00  0.00    +0.075 C 
BRANCH  25  27
ATOM     26  O   UNL     1      35.007 -19.796 -23.254  0.00  0.00    -0.245 OA
ATOM     27  C   UNL     1      35.540 -19.755 -22.139  0.00  0.00    +0.338 C 
BRANCH  27  28
ATOM     28  O   UNL     1      36.602 -18.947 -21.874  0.00  0.00    -0.477 OA
ATOM     29  H   UNL     1      37.452 -19.318 -21.735  0.00  0.00    +0.295 HD
ENDBRANCH  27  28
ENDBRANCH  25  27
ENDBRANCH   6  20
TORSDOF 5
ENDMDL
MODEL 2
REMARK VINA RESULT:     -12.0      1.697      2.206
REMARK  Name = 9999276
REMARK  5 active torsions:
REMARK  status: ('A' for Active; 'I' for Inactive)
REMARK    1  A    between atoms: C_3  and  C_11
REMARK    2  A    between atoms: C_6  and  C_20
REMARK    3  A    between atoms: C_14  and  N_19
REMARK    4  A    between atoms: C_25  and  C_27
REMARK    5  A    between atoms: C_27  and  O_28
REMARK                            x       y       z     vdW  Elec       q    Type
REMARK                         _______ _______ _______ _____ _____    ______ ____
ROOT
ATOM      1  N   UNL     1      35.085 -22.992 -16.923  0.00  0.00    -0.400 NA
ATOM      2  N   UNL     1      33.304 -24.845 -14.331  0.00  0.00    -0.242 NA
ATOM      3  C   UNL     1      34.782 -23.709 -15.815  0.00  0.00    +0.149 C 
ATOM      4  C   UNL     1      33.513 -24.131 -15.455  0.00  0.00    +0.107 C 
ATOM      5  C   UNL     1      32.469 -23.774 -16.324  0.00  0.00    +0.005 C 
ATOM      6  C   UNL     1      34.054 -22.671 -17.729  0.00  0.00    +0.131 C 
ATOM      7  C   UNL     1      32.742 -23.032 -17.481  0.00  0.00    +0.030 C 
ATOM      8  C   UNL     1      31.170 -24.183 -15.995  0.00  0.00    +0.056 C 
ATOM      9  C   UNL     1      30.944 -24.918 -14.839  0.00  0.00    -0.001 C 
ATOM     10  C   UNL     1      32.034 -25.221 -14.049  0.00  0.00    +0.095 C 
ENDROOT
BRANCH   3  11
ATOM     11  C   UNL     1      35.940 -24.016 -15.000  0.00  0.00    +0.033 C 
ATOM     12  C   UNL     1      36.827 -25.014 -15.400  0.00  0.00    +0.027 C 
ATOM     13  C   UNL     1      36.164 -23.313 -13.817  0.00  0.00    +0.003 C 
ATOM     14  C   UNL     1      37.942 -25.309 -14.615  0.00  0.00    +0.143 C 
ATOM     15  C   UNL     1      37.278 -23.608 -13.032  0.00  0.00    +0.002 C 
ATOM     16  C   UNL     1      38.167 -24.607 -13.431  0.00  0.00    +0.024 C 
BRANCH  14  19
ATOM     17  O   UNL     1      38.498 -27.524 -14.903  0.00  0.00    -0.126 OA
ATOM     18  O   UNL     1      39.962 -25.991 -15.482  0.00  0.00    -0.126 OA
ATOM     19  N   UNL     1      38.847 -26.325 -15.021  0.00  0.00    +0.058 N 
ENDBRANCH  14  19
ENDBRANCH   3  11
BRANCH   6  20
ATOM     20  C   UNL     1      34.408 -21.905 -18.900  0.00  0.00    +0.030 C 
ATOM     21  C   UNL     1      33.412 -21.320 -19.685  0.00  0.00    +0.003 C 
ATOM     22  C   UNL     1      35.750 -21.748 -19.254  0.00  0.00    +0.003 C 
ATOM     23  C   UNL     1      33.755 -20.579 -20.816  0.00  0.00    +0.007 C 
ATOM     24  C   UNL     1      36.094 -21.007 -20.386  0.00  0.00    +0.007 C 
ATOM     25  C   UNL     1      35.096 -20.424 -21.166  0.00  0.00    +0.075 C 
BRANCH  25  27
ATOM     26  O   UNL     1      34.823 -19.631 -23.407  0.00  0.00    -0.245 OA
ATOM     27  C   UNL     1      35.455 -19.652 -22.346  0.00  0.00    +0.338 C 
BRANCH  27  28
ATOM     28  O   UNL     1      36.594 -18.927 -22.168  0.00  0.00    -0.477 OA
ATOM     29  H   UNL     1      37.417 -19.266 -22.463  0.00  0.00    +0.295 HD
ENDBRANCH  27  28
ENDBRANCH  25  27
ENDBRANCH   6  20
TORSDOF 5
ENDMDL
MODEL 3
REMARK VINA RESULT:     -11.2      3.221      5.248
REMARK  Name = 9999276
REMARK  5 active torsions:
REMARK  status: ('A' for Active; 'I' for Inactive)
REMARK    1  A    between atoms: C_3  and  C_11
REMARK    2  A    between atoms: C_6  and  C_20
REMARK    3  A    between atoms: C_14  and  N_19
REMARK    4  A    between atoms: C_25  and  C_27
REMARK    5  A    between atoms: C_27  and  O_28
REMARK                            x       y       z     vdW  Elec       q    Type
REMARK                         _______ _______ _______ _____ _____    ______ ____
ROOT
ATOM      1  N   UNL     1      33.608 -22.799 -17.439  0.00  0.00    -0.400 NA
ATOM      2  N   UNL     1      34.437 -24.565 -14.354  0.00  0.00    -0.242 NA
ATOM      3  C   UNL     1      33.531 -23.504 -16.286  0.00  0.00    +0.149 C 
ATOM      4  C   UNL     1      34.607 -23.860 -15.490  0.00  0.00    +0.107 C 
ATOM      5  C   UNL     1      35.874 -23.444 -15.934  0.00  0.00    +0.005 C 
ATOM      6  C   UNL     1      34.841 -22.420 -17.828  0.00  0.00    +0.131 C 
ATOM      7  C   UNL     1      35.994 -22.712 -17.123  0.00  0.00    +0.030 C 
ATOM      8  C   UNL     1      36.988 -23.784 -15.156  0.00  0.00    +0.056 C 
ATOM      9  C   UNL     1      36.823 -24.510 -13.984  0.00  0.00    -0.001 C 
ATOM     10  C   UNL     1      35.539 -24.873 -13.630  0.00  0.00    +0.095 C 
ENDROOT
BRANCH   3  11
ATOM     11  C   UNL     1      32.175 -23.873 -15.933  0.00  0.00    +0.033 C 
ATOM     12  C   UNL     1      31.107 -23.415 -16.701  0.00  0.00    +0.027 C 
ATOM     13  C   UNL     1      31.943 -24.687 -14.824  0.00  0.00    +0.003 C 
ATOM     14  C   UNL     1      29.802 -23.770 -16.361  0.00  0.00    +0.143 C 
ATOM     15  C   UNL     1      30.638 -25.043 -14.484  0.00  0.00    +0.002 C 
ATOM     16  C   UNL     1      29.567 -24.584 -15.251  0.00  0.00    +0.024 C 
BRANCH  14  19
ATOM     17  O   UNL     1      28.514 -22.068 -17.222  0.00  0.00    -0.126 OA
ATOM     18  O   UNL     1      27.985 -24.142 -17.725  0.00  0.00    -0.126 OA
ATOM     19  N   UNL     1      28.712 -23.304 -17.142  0.00  0.00    +0.058 N 
ENDBRANCH  14  19
ENDBRANCH   3  11
BRANCH   6  20
ATOM     20  C   UNL     1      34.891 -21.671 -19.061  0.00  0.00    +0.030 C 
ATOM     21  C   UNL     1      33.710 -21.332 -19.726  0.00  0.00    +0.003 C 
ATOM     22  C   UNL     1      36.122 -21.283 -19.596  0.00  0.00    +0.003 C 
ATOM     23  C   UNL     1      33.758 -20.608 -20.916  0.00  0.00    +0.007 C 
ATOM     24  C   UNL     1      36.170 -20.558 -20.788  0.00  0.00    +0.007 C 
ATOM     25  C   UNL     1      34.989 -20.221 -21.447  0.00  0.00    +0.075 C 
BRANCH  25  27
ATOM     26  O   UNL     1      34.762 -19.909 -23.809  0.00  0.00    -0.245 OA
ATOM     27  C   UNL     1      35.041 -19.466 -22.690  0.00  0.00    +0.338 C 
BRANCH  27  28
ATOM     28  O   UNL     1      35.439 -18.179 -22.500  0.00  0.00    -0.477 OA
ATOM     29  H   UNL     1      35.752 -17.672 -23.224  0.00  0.00    +0.295 HD
ENDBRANCH  27  28
ENDBRANCH  25  27
ENDBRANCH   6  20
TORSDOF 5
ENDMDL
MODEL 4
REMARK VINA RESULT:     -10.1      2.171      4.571
REMARK  Name = 9999276
REMARK  5 active torsions:
REMARK  status: ('A' for Active; 'I' for Inactive)
REMARK    1  A    between atoms: C_3  and  C_11
REMARK    2  A    between atoms: C_6  and  C_20
REMARK    3  A    between atoms: C_14  and  N_19
REMARK    4  A    between atoms: C_25  and  C_27
REMARK    5  A    between atoms: C_27  and  O_28
REMARK                            x       y       z     vdW  Elec       q    Type
REMARK                         _______ _______ _______ _____ _____    ______ ____
ROOT
ATOM      1  N   UNL     1      34.599 -22.051 -18.231  0.00  0.00    -0.400 NA
ATOM      2  N   UNL     1      35.819 -23.821 -15.281  0.00  0.00    -0.242 NA
ATOM      3  C   UNL     1      34.672 -22.767 -17.084  0.00  0.00    +0.149 C 
ATOM      4  C   UNL     1      35.840 -23.103 -16.421  0.00  0.00    +0.107 C 
ATOM      5  C   UNL     1      37.037 -22.653 -17.003  0.00  0.00    +0.005 C 
ATOM      6  C   UNL     1      35.770 -21.639 -18.755  0.00  0.00    +0.131 C 
ATOM      7  C   UNL     1      37.004 -21.909 -18.190  0.00  0.00    +0.030 C 
ATOM      8  C   UNL     1      38.242 -22.972 -16.362  0.00  0.00    +0.056 C 
ATOM      9  C   UNL     1      38.230 -23.711 -15.187  0.00  0.00    -0.001 C 
ATOM     10  C   UNL     1      37.003 -24.108 -14.692  0.00  0.00    +0.095 C 
ENDROOT
BRANCH   3  11
ATOM     11  C   UNL     1      33.375 -23.173 -16.582  0.00  0.00    +0.033 C 
ATOM     12  C   UNL     1      33.267 -23.743 -15.315  0.00  0.00    +0.027 C 
ATOM     13  C   UNL     1      32.238 -22.992 -17.369  0.00  0.00    +0.003 C 
ATOM     14  C   UNL     1      32.018 -24.133 -14.832  0.00  0.00    +0.143 C 
ATOM     15  C   UNL     1      30.989 -23.383 -16.886  0.00  0.00    +0.002 C 
ATOM     16  C   UNL     1      30.879 -23.954 -15.618  0.00  0.00    +0.024 C 
BRANCH  14  19
ATOM     17  O   UNL     1      32.926 -25.222 -13.019  0.00  0.00    -0.126 OA
ATOM     18  O   UNL     1      30.792 -24.700 -12.968  0.00  0.00    -0.126 OA
ATOM     19  N   UNL     1      31.906 -24.714 -13.541  0.00  0.00    +0.058 N 
ENDBRANCH  14  19
ENDBRANCH   3  11
BRANCH   6  20
ATOM     20  C   UNL     1      35.660 -20.879 -19.978  0.00  0.00    +0.030 C 
ATOM     21  C   UNL     1      34.426 -20.755 -20.619  0.00  0.00    +0.003 C 
ATOM     22  C   UNL     1      36.790 -20.265 -20.525  0.00  0.00    +0.003 C 
ATOM     23  C   UNL     1      34.320 -20.020 -21.800  0.00  0.00    +0.007 C 
ATOM     24  C   UNL     1      36.683 -19.530 -21.706  0.00  0.00    +0.007 C 
ATOM     25  C   UNL     1      35.450 -19.408 -22.343  0.00  0.00    +0.075 C 
BRANCH  25  27
ATOM     26  O   UNL     1      34.523 -18.850 -24.477  0.00  0.00    -0.245 OA
ATOM     27  C   UNL     1      35.340 -18.642 -23.575  0.00  0.00    +0.338 C 
BRANCH  27  28
ATOM     28  O   UNL     1      36.255 -17.636 -23.645  0.00  0.00    -0.477 OA
ATOM     29  H   UNL     1      36.053 -16.792 -23.291  0.00  0.00    +0.295 HD
ENDBRANCH  27  28
ENDBRANCH  25  27
ENDBRANCH   6  20
TORSDOF 5
ENDMDL
MODEL 5
REMARK VINA RESULT:      -9.8     11.741     15.226
REMARK  Name = 9999276
REMARK  5 active torsions:
REMARK  status: ('A' for Active; 'I' for Inactive)
REMARK    1  A    between atoms: C_3  and  C_11
REMARK    2  A    between atoms: C_6  and  C_20
REMARK    3  A    between atoms: C_14  and  N_19
REMARK    4  A    between atoms: C_25  and  C_27
REMARK    5  A    between atoms: C_27  and  O_28
REMARK                            x       y       z     vdW  Elec       q    Type
REMARK                         _______ _______ _______ _____ _____    ______ ____
ROOT
ATOM      1  N   UNL     1      33.194 -10.442 -23.313  0.00  0.00    -0.400 NA
ATOM      2  N   UNL     1      32.405 -12.787 -20.629  0.00  0.00    -0.242 NA
ATOM      3  C   UNL     1      33.052 -11.565 -22.570  0.00  0.00    +0.149 C 
ATOM      4  C   UNL     1      32.510 -11.621 -21.296  0.00  0.00    +0.107 C 
ATOM      5  C   UNL     1      32.078 -10.401 -20.750  0.00  0.00    +0.005 C 
ATOM      6  C   UNL     1      32.768  -9.294 -22.751  0.00  0.00    +0.131 C 
ATOM      7  C   UNL     1      32.209  -9.217 -21.488  0.00  0.00    +0.030 C 
ATOM      8  C   UNL     1      31.523 -10.415 -19.464  0.00  0.00    +0.056 C 
ATOM      9  C   UNL     1      31.412 -11.611 -18.768  0.00  0.00    -0.001 C 
ATOM     10  C   UNL     1      31.863 -12.759 -19.389  0.00  0.00    +0.095 C 
ENDROOT
BRANCH   3  11
ATOM     11  C   UNL     1      33.531 -12.757 -23.240  0.00  0.00    +0.033 C 
ATOM     12  C   UNL     1      33.329 -12.913 -24.610  0.00  0.00    +0.027 C 
ATOM     13  C   UNL     1      34.193 -13.745 -22.512  0.00  0.00    +0.003 C 
ATOM     14  C   UNL     1      33.791 -14.061 -25.255  0.00  0.00    +0.143 C 
ATOM     15  C   UNL     1      34.654 -14.893 -23.157  0.00  0.00    +0.002 C 
ATOM     16  C   UNL     1      34.452 -15.051 -24.528  0.00  0.00    +0.024 C 
BRANCH  14  19
ATOM     17  O   UNL     1      33.253 -13.222 -27.330  0.00  0.00    -0.126 OA
ATOM     18  O   UNL     1      33.745 -15.357 -27.156  0.00  0.00    -0.126 OA
ATOM     19  N   UNL     1      33.586 -14.222 -26.651  0.00  0.00    +0.058 N 
ENDBRANCH  14  19
ENDBRANCH   3  11
BRANCH   6  20
ATOM     20  C   UNL     1      32.934  -8.115 -23.567  0.00  0.00    +0.030 C 
ATOM     21  C   UNL     1      34.206  -7.575 -23.771  0.00  0.00    +0.003 C 
ATOM     22  C   UNL     1      31.821  -7.507 -24.154  0.00  0.00    +0.003 C 
ATOM     23  C   UNL     1      34.366  -6.437 -24.560  0.00  0.00    +0.007 C 
ATOM     24  C   UNL     1      31.981  -6.367 -24.943  0.00  0.00    +0.007 C 
ATOM     25  C   UNL     1      33.253  -5.833 -25.145  0.00  0.00    +0.075 C 
BRANCH  25  27
ATOM     26  O   UNL     1      33.061  -3.503 -25.657  0.00  0.00    -0.245 OA
ATOM     27  C   UNL     1      33.418  -4.644 -25.968  0.00  0.00    +0.338 C 
BRANCH  27  28
ATOM     28  O   UNL     1      34.027  -4.913 -27.155  0.00  0.00    -0.477 OA
ATOM     29  H   UNL     1      33.933  -4.321 -27.876  0.00  0.00    +0.295 HD
ENDBRANCH  27  28
ENDBRANCH  25  27
ENDBRANCH   6  20
TORSDOF 5
ENDMDL
MODEL 6
REMARK VINA RESULT:      -9.6      3.790      7.264
REMARK  Name = 9999276
REMARK  5 active torsions:
REMARK  status: ('A' for Active; 'I' for Inactive)
REMARK    1  A    between atoms: C_3  and  C_11
REMARK    2  A    between atoms: C_6  and  C_20
REMARK    3  A    between atoms: C_14  and  N_19
REMARK    4  A    between atoms: C_25  and  C_27
REMARK    5  A    between atoms: C_27  and  O_28
REMARK                            x       y       z     vdW  Elec       q    Type
REMARK                         _______ _______ _______ _____ _____    ______ ____
ROOT
ATOM      1  N   UNL     1      32.660 -22.715 -17.119  0.00  0.00    -0.400 NA
ATOM      2  N   UNL     1      36.005 -23.883 -16.243  0.00  0.00    -0.242 NA
ATOM      3  C   UNL     1      33.994 -22.943 -17.110  0.00  0.00    +0.149 C 
ATOM      4  C   UNL     1      34.671 -23.708 -16.174  0.00  0.00    +0.107 C 
ATOM      5  C   UNL     1      33.888 -24.286 -15.160  0.00  0.00    +0.005 C 
ATOM      6  C   UNL     1      31.947 -23.288 -16.129  0.00  0.00    +0.131 C 
ATOM      7  C   UNL     1      32.504 -24.073 -15.136  0.00  0.00    +0.030 C 
ATOM      8  C   UNL     1      34.535 -25.068 -14.195  0.00  0.00    +0.056 C 
ATOM      9  C   UNL     1      35.910 -25.254 -14.257  0.00  0.00    -0.001 C 
ATOM     10  C   UNL     1      36.593 -24.646 -15.291  0.00  0.00    +0.095 C 
ENDROOT
BRANCH   3  11
ATOM     11  C   UNL     1      34.691 -22.297 -18.203  0.00  0.00    +0.033 C 
ATOM     12  C   UNL     1      33.967 -21.702 -19.235  0.00  0.00    +0.027 C 
ATOM     13  C   UNL     1      36.085 -22.272 -18.221  0.00  0.00    +0.003 C 
ATOM     14  C   UNL     1      34.638 -21.080 -20.287  0.00  0.00    +0.143 C 
ATOM     15  C   UNL     1      36.756 -21.649 -19.274  0.00  0.00    +0.002 C 
ATOM     16  C   UNL     1      36.033 -21.055 -20.308  0.00  0.00    +0.024 C 
BRANCH  14  19
ATOM     17  O   UNL     1      34.528 -19.870 -22.243  0.00  0.00    -0.126 OA
ATOM     18  O   UNL     1      32.652 -20.564 -21.331  0.00  0.00    -0.126 OA
ATOM     19  N   UNL     1      33.902 -20.474 -21.340  0.00  0.00    +0.058 N 
ENDBRANCH  14  19
ENDBRANCH   3  11
BRANCH   6  20
ATOM     20  C   UNL     1      30.528 -23.025 -16.166  0.00  0.00    +0.030 C 
ATOM     21  C   UNL     1      29.783 -23.346 -17.303  0.00  0.00    +0.003 C 
ATOM     22  C   UNL     1      29.895 -22.447 -15.063  0.00  0.00    +0.003 C 
ATOM     23  C   UNL     1      28.412 -23.093 -17.337  0.00  0.00    +0.007 C 
ATOM     24  C   UNL     1      28.523 -22.194 -15.097  0.00  0.00    +0.007 C 
ATOM     25  C   UNL     1      27.783 -22.516 -16.233  0.00  0.00    +0.075 C 
BRANCH  25  27
ATOM     26  O   UNL     1      25.569 -22.425 -15.329  0.00  0.00    -0.245 OA
ATOM     27  C   UNL     1      26.353 -22.251 -16.268  0.00  0.00    +0.338 C 
BRANCH  27  28
ATOM     28  O   UNL     1      25.941 -21.774 -17.475  0.00  0.00    -0.477 OA
ATOM     29  H   UNL     1      25.155 -22.103 -17.867  0.00  0.00    +0.295 HD
ENDBRANCH  27  28
ENDBRANCH  25  27
ENDBRANCH   6  20
TORSDOF 5
ENDMDL
MODEL 7
REMARK VINA RESULT:      -9.5     10.866     15.011
REMARK  Name = 9999276
REMARK  5 active torsions:
REMARK  status: ('A' for Active; 'I' for Inactive)
REMARK    1  A    between atoms: C_3  and  C_11
REMARK    2  A    between atoms: C_6  and  C_20
REMARK    3  A    between atoms: C_14  and  N_19
REMARK    4  A    between atoms: C_25  and  C_27
REMARK    5  A    between atoms: C_27  and  O_28
REMARK                            x       y       z     vdW  Elec       q    Type
REMARK                         _______ _______ _______ _____ _____    ______ ____
ROOT
ATOM      1  N   UNL     1      32.685 -10.524 -23.257  0.00  0.00    -0.400 NA
ATOM      2  N   UNL     1      32.927 -13.853 -21.781  0.00  0.00    -0.242 NA
ATOM      3  C   UNL     1      32.893 -11.848 -23.068  0.00  0.00    +0.149 C 
ATOM      4  C   UNL     1      32.694 -12.530 -21.879  0.00  0.00    +0.107 C 
ATOM      5  C   UNL     1      32.239 -11.764 -20.792  0.00  0.00    +0.005 C 
ATOM      6  C   UNL     1      32.248  -9.827 -22.189  0.00  0.00    +0.131 C 
ATOM      7  C   UNL     1      32.012 -10.391 -20.948  0.00  0.00    +0.030 C 
ATOM      8  C   UNL     1      32.025 -12.417 -19.571  0.00  0.00    +0.056 C 
ATOM      9  C   UNL     1      32.262 -13.781 -19.460  0.00  0.00    -0.001 C 
ATOM     10  C   UNL     1      32.708 -14.447 -20.584  0.00  0.00    +0.095 C 
ENDROOT
BRANCH   3  11
ATOM     11  C   UNL     1      33.360 -12.527 -24.259  0.00  0.00    +0.033 C 
ATOM     12  C   UNL     1      33.457 -13.917 -24.274  0.00  0.00    +0.027 C 
ATOM     13  C   UNL     1      33.711 -11.788 -25.388  0.00  0.00    +0.003 C 
ATOM     14  C   UNL     1      33.907 -14.571 -25.421  0.00  0.00    +0.143 C 
ATOM     15  C   UNL     1      34.161 -12.442 -26.536  0.00  0.00    +0.002 C 
ATOM     16  C   UNL     1      34.260 -13.834 -26.552  0.00  0.00    +0.024 C 
BRANCH  14  19
ATOM     17  O   UNL     1      34.708 -16.552 -24.566  0.00  0.00    -0.126 OA
ATOM     18  O   UNL     1      33.390 -16.625 -26.323  0.00  0.00    -0.126 OA
ATOM     19  N   UNL     1      34.007 -15.988 -25.438  0.00  0.00    +0.058 N 
ENDBRANCH  14  19
ENDBRANCH   3  11
BRANCH   6  20
ATOM     20  C   UNL     1      32.037  -8.418 -22.422  0.00  0.00    +0.030 C 
ATOM     21  C   UNL     1      32.278  -7.494 -21.403  0.00  0.00    +0.003 C 
ATOM     22  C   UNL     1      31.588  -7.974 -23.668  0.00  0.00    +0.003 C 
ATOM     23  C   UNL     1      32.074  -6.133 -21.628  0.00  0.00    +0.007 C 
ATOM     24  C   UNL     1      31.384  -6.612 -23.894  0.00  0.00    +0.007 C 
ATOM     25  C   UNL     1      31.627  -5.693 -22.874  0.00  0.00    +0.075 C 
BRANCH  25  27
ATOM     26  O   UNL     1      32.032  -3.582 -23.927  0.00  0.00    -0.245 OA
ATOM     27  C   UNL     1      31.413  -4.273 -23.111  0.00  0.00    +0.338 C 
BRANCH  27  28
ATOM     28  O   UNL     1      30.432  -3.756 -22.321  0.00  0.00    -0.477 OA
ATOM     29  H   UNL     1      29.716  -4.295 -22.049  0.00  0.00    +0.295 HD
ENDBRANCH  27  28
ENDBRANCH  25  27
ENDBRANCH   6  20
TORSDOF 5
ENDMDL
