MODEL 1
REMARK VINA RESULT:     -11.8      0.000      0.000
REMARK  Name = 66645351
REMARK  11 active torsions:
REMARK  status: ('A' for Active; 'I' for Inactive)
REMARK    1  A    between atoms: C_2  and  C_4
REMARK    2  A    between atoms: C_2  and  C_18
REMARK    3  A    between atoms: C_3  and  C_5
REMARK    4  A    between atoms: C_6  and  O_11
REMARK    5  A    between atoms: C_8  and  O_13
REMARK    6  A    between atoms: O_13  and  S_14
REMARK    7  A    between atoms: C_18  and  C_20
REMARK    8  A    between atoms: C_20  and  C_22
REMARK    9  A    between atoms: C_21  and  C_23
REMARK   10  A    between atoms: C_25  and  O_29
REMARK   11  A    between atoms: C_27  and  O_31
REMARK                            x       y       z     vdW  Elec       q    Type
REMARK                         _______ _______ _______ _____ _____    ______ ____
ROOT
ATOM      1  O   UNL     1      32.876 -21.870 -20.259  0.00  0.00    -0.291 OA
ATOM      2  C   UNL     1      33.849 -22.267 -19.623  0.00  0.00    +0.181 C 
ENDROOT
BRANCH   2   4
ATOM      3  C   UNL     1      34.776 -22.862 -17.423  0.00  0.00    +0.003 C 
ATOM      4  C   UNL     1      33.713 -22.808 -18.238  0.00  0.00    +0.038 C 
BRANCH   3   5
ATOM      5  C   UNL     1      34.745 -23.369 -16.039  0.00  0.00    +0.003 C 
ATOM      6  C   UNL     1      33.502 -23.941 -14.048  0.00  0.00    +0.175 C 
ATOM      7  C   UNL     1      33.532 -23.462 -15.358  0.00  0.00    +0.040 C 
ATOM      8  C   UNL     1      34.687 -24.327 -13.420  0.00  0.00    +0.209 C 
ATOM      9  C   UNL     1      35.930 -23.754 -15.411  0.00  0.00    +0.003 C 
ATOM     10  C   UNL     1      35.901 -24.233 -14.102  0.00  0.00    +0.043 C 
BRANCH   6  11
ATOM     11  O   UNL     1      32.311 -24.029 -13.393  0.00  0.00    -0.468 OA
ATOM     12  C   UNL     1      31.386 -25.009 -13.861  0.00  0.00    +0.253 C 
ENDBRANCH   6  11
BRANCH   8  13
ATOM     13  O   UNL     1      34.672 -24.796 -12.141  0.00  0.00    -0.319 OA
BRANCH  13  14
ATOM     14  S   UNL     1      36.060 -24.756 -11.263  0.00  0.00    +0.282 S 
ATOM     15  O   UNL     1      35.548 -24.850  -9.716  0.00  0.00    -0.012 OA
ATOM     16  O   UNL     1      36.835 -25.950 -11.549  0.00  0.00    -0.105 OA
ATOM     17  O   UNL     1      36.658 -23.446 -11.443  0.00  0.00    -0.105 OA
ENDBRANCH  13  14
ENDBRANCH   8  13
ENDBRANCH   3   5
ENDBRANCH   2   4
BRANCH   2  18
ATOM     18  C   UNL     1      35.261 -22.199 -20.167  0.00  0.00    +0.138 C 
BRANCH  18  20
ATOM     19  O   UNL     1      36.728 -20.372 -19.600  0.00  0.00    -0.291 OA
ATOM     20  C   UNL     1      35.833 -20.803 -20.322  0.00  0.00    +0.181 C 
BRANCH  20  22
ATOM     21  C   UNL     1      35.970 -19.329 -22.287  0.00  0.00    +0.003 C 
ATOM     22  C   UNL     1      35.207 -19.961 -21.384  0.00  0.00    +0.038 C 
BRANCH  21  23
ATOM     23  C   UNL     1      35.454 -18.472 -23.368  0.00  0.00    +0.003 C 
ATOM     24  C   UNL     1      35.650 -17.092 -23.318  0.00  0.00    +0.040 C 
ATOM     25  C   UNL     1      35.161 -16.279 -24.340  0.00  0.00    +0.172 C 
ATOM     26  C   UNL     1      34.765 -19.039 -24.441  0.00  0.00    +0.003 C 
ATOM     27  C   UNL     1      34.473 -16.847 -25.413  0.00  0.00    +0.168 C 
ATOM     28  C   UNL     1      34.275 -18.226 -25.463  0.00  0.00    +0.040 C 
BRANCH  25  29
ATOM     29  O   UNL     1      35.361 -14.932 -24.280  0.00  0.00    -0.468 OA
ATOM     30  C   UNL     1      34.563 -14.201 -23.351  0.00  0.00    +0.253 C 
ENDBRANCH  25  29
BRANCH  27  31
ATOM     31  O   UNL     1      33.990 -16.064 -26.418  0.00  0.00    -0.503 OA
ATOM     32  H   UNL     1      34.469 -15.308 -26.695  0.00  0.00    +0.292 HD
ENDBRANCH  27  31
ENDBRANCH  21  23
ENDBRANCH  20  22
ENDBRANCH  18  20
ENDBRANCH   2  18
TORSDOF 11
ENDMDL
MODEL 2
REMARK VINA RESULT:     -11.4      1.065      2.085
REMARK  Name = 66645351
REMARK  11 active torsions:
REMARK  status: ('A' for Active; 'I' for Inactive)
REMARK    1  A    between atoms: C_2  and  C_4
REMARK    2  A    between atoms: C_2  and  C_18
REMARK    3  A    between atoms: C_3  and  C_5
REMARK    4  A    between atoms: C_6  and  O_11
REMARK    5  A    between atoms: C_8  and  O_13
REMARK    6  A    between atoms: O_13  and  S_14
REMARK    7  A    between atoms: C_18  and  C_20
REMARK    8  A    between atoms: C_20  and  C_22
REMARK    9  A    between atoms: C_21  and  C_23
REMARK   10  A    between atoms: C_25  and  O_29
REMARK   11  A    between atoms: C_27  and  O_31
REMARK                            x       y       z     vdW  Elec       q    Type
REMARK                         _______ _______ _______ _____ _____    ______ ____
ROOT
ATOM      1  O   UNL     1      32.813 -22.179 -19.341  0.00  0.00    -0.291 OA
ATOM      2  C   UNL     1      34.012 -22.383 -19.167  0.00  0.00    +0.181 C 
ENDROOT
BRANCH   2   4
ATOM      3  C   UNL     1      33.981 -23.666 -17.068  0.00  0.00    +0.003 C 
ATOM      4  C   UNL     1      34.563 -22.723 -17.821  0.00  0.00    +0.038 C 
BRANCH   3   5
ATOM      5  C   UNL     1      34.450 -24.081 -15.733  0.00  0.00    +0.003 C 
ATOM      6  C   UNL     1      36.142 -25.082 -14.330  0.00  0.00    +0.175 C 
ATOM      7  C   UNL     1      35.697 -24.689 -15.592  0.00  0.00    +0.040 C 
ATOM      8  C   UNL     1      35.340 -24.867 -13.209  0.00  0.00    +0.209 C 
ATOM      9  C   UNL     1      33.647 -23.865 -14.613  0.00  0.00    +0.003 C 
ATOM     10  C   UNL     1      34.092 -24.258 -13.351  0.00  0.00    +0.043 C 
BRANCH   6  11
ATOM     11  O   UNL     1      37.363 -25.674 -14.203  0.00  0.00    -0.468 OA
ATOM     12  C   UNL     1      38.486 -24.959 -14.715  0.00  0.00    +0.253 C 
ENDBRANCH   6  11
BRANCH   8  13
ATOM     13  O   UNL     1      35.763 -25.246 -11.971  0.00  0.00    -0.319 OA
BRANCH  13  14
ATOM     14  S   UNL     1      36.705 -24.217 -11.103  0.00  0.00    +0.282 S 
ATOM     15  O   UNL     1      38.190 -24.890 -11.177  0.00  0.00    -0.012 OA
ATOM     16  O   UNL     1      36.761 -22.938 -11.787  0.00  0.00    -0.105 OA
ATOM     17  O   UNL     1      36.269 -24.280  -9.720  0.00  0.00    -0.105 OA
ENDBRANCH  13  14
ENDBRANCH   8  13
ENDBRANCH   3   5
ENDBRANCH   2   4
BRANCH   2  18
ATOM     18  C   UNL     1      35.030 -22.261 -20.283  0.00  0.00    +0.138 C 
BRANCH  18  20
ATOM     19  O   UNL     1      36.452 -20.400 -19.715  0.00  0.00    -0.291 OA
ATOM     20  C   UNL     1      35.618 -20.878 -20.479  0.00  0.00    +0.181 C 
BRANCH  20  22
ATOM     21  C   UNL     1      35.768 -19.062 -22.132  0.00  0.00    +0.003 C 
ATOM     22  C   UNL     1      35.086 -20.107 -21.642  0.00  0.00    +0.038 C 
BRANCH  21  23
ATOM     23  C   UNL     1      35.328 -18.234 -23.268  0.00  0.00    +0.003 C 
ATOM     24  C   UNL     1      35.427 -16.844 -23.198  0.00  0.00    +0.040 C 
ATOM     25  C   UNL     1      35.011 -16.059 -24.273  0.00  0.00    +0.172 C 
ATOM     26  C   UNL     1      34.810 -18.838 -24.414  0.00  0.00    +0.003 C 
ATOM     27  C   UNL     1      34.493 -16.664 -25.418  0.00  0.00    +0.168 C 
ATOM     28  C   UNL     1      34.393 -18.053 -25.489  0.00  0.00    +0.040 C 
BRANCH  25  29
ATOM     29  O   UNL     1      35.113 -14.703 -24.193  0.00  0.00    -0.468 OA
ATOM     30  C   UNL     1      34.823 -14.105 -22.931  0.00  0.00    +0.253 C 
ENDBRANCH  25  29
BRANCH  27  31
ATOM     31  O   UNL     1      34.082 -15.909 -26.475  0.00  0.00    -0.503 OA
ATOM     32  H   UNL     1      33.950 -16.308 -27.313  0.00  0.00    +0.292 HD
ENDBRANCH  27  31
ENDBRANCH  21  23
ENDBRANCH  20  22
ENDBRANCH  18  20
ENDBRANCH   2  18
TORSDOF 11
ENDMDL
MODEL 3
REMARK VINA RESULT:     -11.3      1.375      2.725
REMARK  Name = 66645351
REMARK  11 active torsions:
REMARK  status: ('A' for Active; 'I' for Inactive)
REMARK    1  A    between atoms: C_2  and  C_4
REMARK    2  A    between atoms: C_2  and  C_18
REMARK    3  A    between atoms: C_3  and  C_5
REMARK    4  A    between atoms: C_6  and  O_11
REMARK    5  A    between atoms: C_8  and  O_13
REMARK    6  A    between atoms: O_13  and  S_14
REMARK    7  A    between atoms: C_18  and  C_20
REMARK    8  A    between atoms: C_20  and  C_22
REMARK    9  A    between atoms: C_21  and  C_23
REMARK   10  A    between atoms: C_25  and  O_29
REMARK   11  A    between atoms: C_27  and  O_31
REMARK                            x       y       z     vdW  Elec       q    Type
REMARK                         _______ _______ _______ _____ _____    ______ ____
ROOT
ATOM      1  O   UNL     1      37.463 -19.920 -19.360  0.00  0.00    -0.291 OA
ATOM      2  C   UNL     1      36.861 -20.957 -19.096  0.00  0.00    +0.181 C 
ENDROOT
BRANCH   2   4
ATOM      3  C   UNL     1      36.158 -22.591 -17.397  0.00  0.00    +0.003 C 
ATOM      4  C   UNL     1      37.030 -21.651 -17.785  0.00  0.00    +0.038 C 
BRANCH   3   5
ATOM      5  C   UNL     1      36.241 -23.339 -16.128  0.00  0.00    +0.003 C 
ATOM      6  C   UNL     1      37.547 -24.180 -14.278  0.00  0.00    +0.175 C 
ATOM      7  C   UNL     1      37.467 -23.472 -15.478  0.00  0.00    +0.040 C 
ATOM      8  C   UNL     1      36.400 -24.754 -13.729  0.00  0.00    +0.209 C 
ATOM      9  C   UNL     1      35.094 -23.912 -15.581  0.00  0.00    +0.003 C 
ATOM     10  C   UNL     1      35.173 -24.620 -14.381  0.00  0.00    +0.043 C 
BRANCH   6  11
ATOM     11  O   UNL     1      38.750 -24.303 -13.651  0.00  0.00    -0.468 OA
ATOM     12  C   UNL     1      39.508 -25.479 -13.928  0.00  0.00    +0.253 C 
ENDBRANCH   6  11
BRANCH   8  13
ATOM     13  O   UNL     1      36.464 -25.448 -12.559  0.00  0.00    -0.319 OA
BRANCH  13  14
ATOM     14  S   UNL     1      36.066 -24.683 -11.160  0.00  0.00    +0.282 S 
ATOM     15  O   UNL     1      34.960 -23.574 -11.621  0.00  0.00    -0.012 OA
ATOM     16  O   UNL     1      35.407 -25.628 -10.276  0.00  0.00    -0.105 OA
ATOM     17  O   UNL     1      37.239 -23.961 -10.702  0.00  0.00    -0.105 OA
ENDBRANCH  13  14
ENDBRANCH   8  13
ENDBRANCH   3   5
ENDBRANCH   2   4
BRANCH   2  18
ATOM     18  C   UNL     1      35.939 -21.639 -20.086  0.00  0.00    +0.138 C 
BRANCH  18  20
ATOM     19  O   UNL     1      33.614 -21.498 -19.468  0.00  0.00    -0.291 OA
ATOM     20  C   UNL     1      34.534 -21.076 -20.163  0.00  0.00    +0.181 C 
BRANCH  20  22
ATOM     21  C   UNL     1      35.112 -19.917 -22.255  0.00  0.00    +0.003 C 
ATOM     22  C   UNL     1      34.323 -19.997 -21.174  0.00  0.00    +0.038 C 
BRANCH  21  23
ATOM     23  C   UNL     1      34.992 -18.890 -23.304  0.00  0.00    +0.003 C 
ATOM     24  C   UNL     1      35.389 -17.578 -23.045  0.00  0.00    +0.040 C 
ATOM     25  C   UNL     1      35.276 -16.605 -24.038  0.00  0.00    +0.172 C 
ATOM     26  C   UNL     1      34.480 -19.228 -24.557  0.00  0.00    +0.003 C 
ATOM     27  C   UNL     1      34.764 -16.944 -25.290  0.00  0.00    +0.168 C 
ATOM     28  C   UNL     1      34.365 -18.255 -25.550  0.00  0.00    +0.040 C 
BRANCH  25  29
ATOM     29  O   UNL     1      35.667 -15.327 -23.773  0.00  0.00    -0.468 OA
ATOM     30  C   UNL     1      34.734 -14.492 -23.091  0.00  0.00    +0.253 C 
ENDBRANCH  25  29
BRANCH  27  31
ATOM     31  O   UNL     1      34.647 -16.003 -26.269  0.00  0.00    -0.503 OA
ATOM     32  H   UNL     1      34.540 -16.267 -27.162  0.00  0.00    +0.292 HD
ENDBRANCH  27  31
ENDBRANCH  21  23
ENDBRANCH  20  22
ENDBRANCH  18  20
ENDBRANCH   2  18
TORSDOF 11
ENDMDL
MODEL 4
REMARK VINA RESULT:     -11.0      2.774      4.611
REMARK  Name = 66645351
REMARK  11 active torsions:
REMARK  status: ('A' for Active; 'I' for Inactive)
REMARK    1  A    between atoms: C_2  and  C_4
REMARK    2  A    between atoms: C_2  and  C_18
REMARK    3  A    between atoms: C_3  and  C_5
REMARK    4  A    between atoms: C_6  and  O_11
REMARK    5  A    between atoms: C_8  and  O_13
REMARK    6  A    between atoms: O_13  and  S_14
REMARK    7  A    between atoms: C_18  and  C_20
REMARK    8  A    between atoms: C_20  and  C_22
REMARK    9  A    between atoms: C_21  and  C_23
REMARK   10  A    between atoms: C_25  and  O_29
REMARK   11  A    between atoms: C_27  and  O_31
REMARK                            x       y       z     vdW  Elec       q    Type
REMARK                         _______ _______ _______ _____ _____    ______ ____
ROOT
ATOM      1  O   UNL     1      31.744 -22.797 -15.082  0.00  0.00    -0.291 OA
ATOM      2  C   UNL     1      32.655 -22.923 -15.896  0.00  0.00    +0.181 C 
ENDROOT
BRANCH   2   4
ATOM      3  C   UNL     1      34.350 -24.558 -15.184  0.00  0.00    +0.003 C 
ATOM      4  C   UNL     1      34.040 -23.287 -15.474  0.00  0.00    +0.038 C 
BRANCH   3   5
ATOM      5  C   UNL     1      35.686 -25.021 -14.767  0.00  0.00    +0.003 C 
ATOM      6  C   UNL     1      37.707 -24.692 -13.485  0.00  0.00    +0.175 C 
ATOM      7  C   UNL     1      36.442 -24.256 -13.880  0.00  0.00    +0.040 C 
ATOM      8  C   UNL     1      38.215 -25.895 -13.978  0.00  0.00    +0.209 C 
ATOM      9  C   UNL     1      36.193 -26.223 -15.260  0.00  0.00    +0.003 C 
ATOM     10  C   UNL     1      37.457 -26.660 -14.865  0.00  0.00    +0.043 C 
BRANCH   6  11
ATOM     11  O   UNL     1      38.437 -23.937 -12.618  0.00  0.00    -0.468 OA
ATOM     12  C   UNL     1      37.725 -22.982 -11.833  0.00  0.00    +0.253 C 
ENDBRANCH   6  11
BRANCH   8  13
ATOM     13  O   UNL     1      39.448 -26.332 -13.601  0.00  0.00    -0.319 OA
BRANCH  13  14
ATOM     14  S   UNL     1      40.738 -25.999 -14.563  0.00  0.00    +0.282 S 
ATOM     15  O   UNL     1      41.844 -27.123 -14.138  0.00  0.00    -0.012 OA
ATOM     16  O   UNL     1      40.370 -26.239 -15.946  0.00  0.00    -0.105 OA
ATOM     17  O   UNL     1      41.262 -24.705 -14.166  0.00  0.00    -0.105 OA
ENDBRANCH  13  14
ENDBRANCH   8  13
ENDBRANCH   3   5
ENDBRANCH   2   4
BRANCH   2  18
ATOM     18  C   UNL     1      32.463 -22.677 -17.379  0.00  0.00    +0.138 C 
BRANCH  18  20
ATOM     19  O   UNL     1      33.699 -24.426 -18.484  0.00  0.00    -0.291 OA
ATOM     20  C   UNL     1      33.555 -23.224 -18.276  0.00  0.00    +0.181 C 
BRANCH  20  22
ATOM     21  C   UNL     1      34.256 -21.713 -20.087  0.00  0.00    +0.003 C 
ATOM     22  C   UNL     1      34.481 -22.210 -18.862  0.00  0.00    +0.038 C 
BRANCH  21  23
ATOM     23  C   UNL     1      35.110 -20.717 -20.757  0.00  0.00    +0.003 C 
ATOM     24  C   UNL     1      34.603 -19.962 -21.814  0.00  0.00    +0.040 C 
ATOM     25  C   UNL     1      35.411 -19.019 -22.449  0.00  0.00    +0.172 C 
ATOM     26  C   UNL     1      36.427 -20.530 -20.335  0.00  0.00    +0.003 C 
ATOM     27  C   UNL     1      36.728 -18.833 -22.027  0.00  0.00    +0.168 C 
ATOM     28  C   UNL     1      37.236 -19.588 -20.970  0.00  0.00    +0.040 C 
BRANCH  25  29
ATOM     29  O   UNL     1      34.905 -18.287 -23.481  0.00  0.00    -0.468 OA
ATOM     30  C   UNL     1      34.526 -19.001 -24.656  0.00  0.00    +0.253 C 
ENDBRANCH  25  29
BRANCH  27  31
ATOM     31  O   UNL     1      37.528 -17.915 -22.639  0.00  0.00    -0.503 OA
ATOM     32  H   UNL     1      37.949 -18.127 -23.449  0.00  0.00    +0.292 HD
ENDBRANCH  27  31
ENDBRANCH  21  23
ENDBRANCH  20  22
ENDBRANCH  18  20
ENDBRANCH   2  18
TORSDOF 11
ENDMDL
MODEL 5
REMARK VINA RESULT:     -11.0      5.144     12.509
REMARK  Name = 66645351
REMARK  11 active torsions:
REMARK  status: ('A' for Active; 'I' for Inactive)
REMARK    1  A    between atoms: C_2  and  C_4
REMARK    2  A    between atoms: C_2  and  C_18
REMARK    3  A    between atoms: C_3  and  C_5
REMARK    4  A    between atoms: C_6  and  O_11
REMARK    5  A    between atoms: C_8  and  O_13
REMARK    6  A    between atoms: O_13  and  S_14
REMARK    7  A    between atoms: C_18  and  C_20
REMARK    8  A    between atoms: C_20  and  C_22
REMARK    9  A    between atoms: C_21  and  C_23
REMARK   10  A    between atoms: C_25  and  O_29
REMARK   11  A    between atoms: C_27  and  O_31
REMARK                            x       y       z     vdW  Elec       q    Type
REMARK                         _______ _______ _______ _____ _____    ______ ____
ROOT
ATOM      1  O   UNL     1      35.032 -16.401 -26.256  0.00  0.00    -0.291 OA
ATOM      2  C   UNL     1      34.745 -16.142 -25.090  0.00  0.00    +0.181 C 
ENDROOT
BRANCH   2   4
ATOM      3  C   UNL     1      34.503 -13.958 -23.984  0.00  0.00    +0.003 C 
ATOM      4  C   UNL     1      33.954 -14.929 -24.727  0.00  0.00    +0.038 C 
BRANCH   3   5
ATOM      5  C   UNL     1      33.811 -12.720 -23.579  0.00  0.00    +0.003 C 
ATOM      6  C   UNL     1      32.221 -11.580 -22.161  0.00  0.00    +0.175 C 
ATOM      7  C   UNL     1      32.877 -12.751 -22.545  0.00  0.00    +0.040 C 
ATOM      8  C   UNL     1      32.501 -10.379 -22.814  0.00  0.00    +0.209 C 
ATOM      9  C   UNL     1      34.091 -11.520 -24.232  0.00  0.00    +0.003 C 
ATOM     10  C   UNL     1      33.436 -10.349 -23.850  0.00  0.00    +0.043 C 
BRANCH   6  11
ATOM     11  O   UNL     1      31.312 -11.622 -21.148  0.00  0.00    -0.468 OA
ATOM     12  C   UNL     1      31.799 -11.968 -19.854  0.00  0.00    +0.253 C 
ENDBRANCH   6  11
BRANCH   8  13
ATOM     13  O   UNL     1      31.868  -9.229 -22.450  0.00  0.00    -0.319 OA
BRANCH  13  14
ATOM     14  S   UNL     1      32.680  -8.130 -21.537  0.00  0.00    +0.282 S 
ATOM     15  O   UNL     1      31.630  -6.887 -21.396  0.00  0.00    -0.012 OA
ATOM     16  O   UNL     1      32.896  -8.683 -20.213  0.00  0.00    -0.105 OA
ATOM     17  O   UNL     1      33.808  -7.657 -22.318  0.00  0.00    -0.105 OA
ENDBRANCH  13  14
ENDBRANCH   8  13
ENDBRANCH   3   5
ENDBRANCH   2   4
BRANCH   2  18
ATOM     18  C   UNL     1      35.205 -16.999 -23.928  0.00  0.00    +0.138 C 
BRANCH  18  20
ATOM     19  O   UNL     1      34.219 -18.937 -24.966  0.00  0.00    -0.291 OA
ATOM     20  C   UNL     1      34.863 -18.472 -24.030  0.00  0.00    +0.181 C 
BRANCH  20  22
ATOM     21  C   UNL     1      34.440 -19.797 -22.000  0.00  0.00    +0.003 C 
ATOM     22  C   UNL     1      35.322 -19.324 -22.893  0.00  0.00    +0.038 C 
BRANCH  21  23
ATOM     23  C   UNL     1      34.789 -20.636 -20.842  0.00  0.00    +0.003 C 
ATOM     24  C   UNL     1      33.834 -21.486 -20.282  0.00  0.00    +0.040 C 
ATOM     25  C   UNL     1      34.164 -22.281 -19.185  0.00  0.00    +0.172 C 
ATOM     26  C   UNL     1      36.074 -20.582 -20.302  0.00  0.00    +0.003 C 
ATOM     27  C   UNL     1      35.450 -22.226 -18.646  0.00  0.00    +0.168 C 
ATOM     28  C   UNL     1      36.405 -21.376 -19.204  0.00  0.00    +0.040 C 
BRANCH  25  29
ATOM     29  O   UNL     1      33.223 -23.107 -18.648  0.00  0.00    -0.468 OA
ATOM     30  C   UNL     1      32.616 -22.689 -17.428  0.00  0.00    +0.253 C 
ENDBRANCH  25  29
BRANCH  27  31
ATOM     31  O   UNL     1      35.785 -22.997 -17.574  0.00  0.00    -0.503 OA
ATOM     32  H   UNL     1      35.955 -23.911 -17.689  0.00  0.00    +0.292 HD
ENDBRANCH  27  31
ENDBRANCH  21  23
ENDBRANCH  20  22
ENDBRANCH  18  20
ENDBRANCH   2  18
TORSDOF 11
ENDMDL
MODEL 6
REMARK VINA RESULT:     -10.8      2.672      3.657
REMARK  Name = 66645351
REMARK  11 active torsions:
REMARK  status: ('A' for Active; 'I' for Inactive)
REMARK    1  A    between atoms: C_2  and  C_4
REMARK    2  A    between atoms: C_2  and  C_18
REMARK    3  A    between atoms: C_3  and  C_5
REMARK    4  A    between atoms: C_6  and  O_11
REMARK    5  A    between atoms: C_8  and  O_13
REMARK    6  A    between atoms: O_13  and  S_14
REMARK    7  A    between atoms: C_18  and  C_20
REMARK    8  A    between atoms: C_20  and  C_22
REMARK    9  A    between atoms: C_21  and  C_23
REMARK   10  A    between atoms: C_25  and  O_29
REMARK   11  A    between atoms: C_27  and  O_31
REMARK                            x       y       z     vdW  Elec       q    Type
REMARK                         _______ _______ _______ _____ _____    ______ ____
ROOT
ATOM      1  O   UNL     1      32.153 -22.875 -16.606  0.00  0.00    -0.291 OA
ATOM      2  C   UNL     1      33.138 -22.946 -17.336  0.00  0.00    +0.181 C 
ENDROOT
BRANCH   2   4
ATOM      3  C   UNL     1      34.529 -24.310 -15.834  0.00  0.00    +0.003 C 
ATOM      4  C   UNL     1      34.462 -23.410 -16.825  0.00  0.00    +0.038 C 
BRANCH   3   5
ATOM      5  C   UNL     1      35.783 -24.837 -15.265  0.00  0.00    +0.003 C 
ATOM      6  C   UNL     1      37.686 -24.580 -13.799  0.00  0.00    +0.175 C 
ATOM      7  C   UNL     1      36.498 -24.082 -14.337  0.00  0.00    +0.040 C 
ATOM      8  C   UNL     1      38.156 -25.834 -14.190  0.00  0.00    +0.209 C 
ATOM      9  C   UNL     1      36.253 -26.091 -15.657  0.00  0.00    +0.003 C 
ATOM     10  C   UNL     1      37.440 -26.589 -15.119  0.00  0.00    +0.043 C 
BRANCH   6  11
ATOM     11  O   UNL     1      38.375 -23.834 -12.891  0.00  0.00    -0.468 OA
ATOM     12  C   UNL     1      37.632 -22.875 -12.142  0.00  0.00    +0.253 C 
ENDBRANCH   6  11
BRANCH   8  13
ATOM     13  O   UNL     1      39.314 -26.332 -13.672  0.00  0.00    -0.319 OA
BRANCH  13  14
ATOM     14  S   UNL     1      40.723 -26.061 -14.473  0.00  0.00    +0.282 S 
ATOM     15  O   UNL     1      41.720 -27.227 -13.914  0.00  0.00    -0.012 OA
ATOM     16  O   UNL     1      40.514 -26.296 -15.890  0.00  0.00    -0.105 OA
ATOM     17  O   UNL     1      41.250 -24.787 -14.020  0.00  0.00    -0.105 OA
ENDBRANCH  13  14
ENDBRANCH   8  13
ENDBRANCH   3   5
ENDBRANCH   2   4
BRANCH   2  18
ATOM     18  C   UNL     1      33.105 -22.528 -18.792  0.00  0.00    +0.138 C 
BRANCH  18  20
ATOM     19  O   UNL     1      35.505 -22.367 -18.952  0.00  0.00    -0.291 OA
ATOM     20  C   UNL     1      34.407 -21.978 -19.341  0.00  0.00    +0.181 C 
BRANCH  20  22
ATOM     21  C   UNL     1      35.361 -20.394 -20.963  0.00  0.00    +0.003 C 
ATOM     22  C   UNL     1      34.274 -20.893 -20.359  0.00  0.00    +0.038 C 
BRANCH  21  23
ATOM     23  C   UNL     1      35.339 -19.321 -21.973  0.00  0.00    +0.003 C 
ATOM     24  C   UNL     1      35.373 -17.985 -21.572  0.00  0.00    +0.040 C 
ATOM     25  C   UNL     1      35.352 -16.969 -22.527  0.00  0.00    +0.172 C 
ATOM     26  C   UNL     1      35.283 -19.640 -23.330  0.00  0.00    +0.003 C 
ATOM     27  C   UNL     1      35.296 -17.289 -23.884  0.00  0.00    +0.168 C 
ATOM     28  C   UNL     1      35.261 -18.625 -24.285  0.00  0.00    +0.040 C 
BRANCH  25  29
ATOM     29  O   UNL     1      35.386 -15.668 -22.124  0.00  0.00    -0.468 OA
ATOM     30  C   UNL     1      34.641 -15.334 -20.955  0.00  0.00    +0.253 C 
ENDBRANCH  25  29
BRANCH  27  31
ATOM     31  O   UNL     1      35.274 -16.306 -24.828  0.00  0.00    -0.503 OA
ATOM     32  H   UNL     1      35.307 -15.406 -24.567  0.00  0.00    +0.292 HD
ENDBRANCH  27  31
ENDBRANCH  21  23
ENDBRANCH  20  22
ENDBRANCH  18  20
ENDBRANCH   2  18
TORSDOF 11
ENDMDL
MODEL 7
REMARK VINA RESULT:     -10.7      3.485     11.971
REMARK  Name = 66645351
REMARK  11 active torsions:
REMARK  status: ('A' for Active; 'I' for Inactive)
REMARK    1  A    between atoms: C_2  and  C_4
REMARK    2  A    between atoms: C_2  and  C_18
REMARK    3  A    between atoms: C_3  and  C_5
REMARK    4  A    between atoms: C_6  and  O_11
REMARK    5  A    between atoms: C_8  and  O_13
REMARK    6  A    between atoms: O_13  and  S_14
REMARK    7  A    between atoms: C_18  and  C_20
REMARK    8  A    between atoms: C_20  and  C_22
REMARK    9  A    between atoms: C_21  and  C_23
REMARK   10  A    between atoms: C_25  and  O_29
REMARK   11  A    between atoms: C_27  and  O_31
REMARK                            x       y       z     vdW  Elec       q    Type
REMARK                         _______ _______ _______ _____ _____    ______ ____
ROOT
ATOM      1  O   UNL     1      36.325 -21.489 -18.887  0.00  0.00    -0.291 OA
ATOM      2  C   UNL     1      35.394 -21.686 -19.663  0.00  0.00    +0.181 C 
ENDROOT
BRANCH   2   4
ATOM      3  C   UNL     1      35.950 -19.755 -21.083  0.00  0.00    +0.003 C 
ATOM      4  C   UNL     1      35.106 -20.755 -20.795  0.00  0.00    +0.038 C 
BRANCH   3   5
ATOM      5  C   UNL     1      35.762 -18.790 -22.181  0.00  0.00    +0.003 C 
ATOM      6  C   UNL     1      35.456 -16.516 -22.938  0.00  0.00    +0.175 C 
ATOM      7  C   UNL     1      35.635 -17.430 -21.900  0.00  0.00    +0.040 C 
ATOM      8  C   UNL     1      35.404 -16.963 -24.259  0.00  0.00    +0.209 C 
ATOM      9  C   UNL     1      35.710 -19.237 -23.501  0.00  0.00    +0.003 C 
ATOM     10  C   UNL     1      35.532 -18.324 -24.540  0.00  0.00    +0.043 C 
BRANCH   6  11
ATOM     11  O   UNL     1      35.334 -15.190 -22.651  0.00  0.00    -0.468 OA
ATOM     12  C   UNL     1      34.695 -14.849 -21.423  0.00  0.00    +0.253 C 
ENDBRANCH   6  11
BRANCH   8  13
ATOM     13  O   UNL     1      35.230 -16.081 -25.282  0.00  0.00    -0.319 OA
BRANCH  13  14
ATOM     14  S   UNL     1      33.704 -15.747 -25.793  0.00  0.00    +0.282 S 
ATOM     15  O   UNL     1      33.912 -15.201 -27.317  0.00  0.00    -0.012 OA
ATOM     16  O   UNL     1      32.948 -16.984 -25.863  0.00  0.00    -0.105 OA
ATOM     17  O   UNL     1      33.207 -14.638 -24.999  0.00  0.00    -0.105 OA
ENDBRANCH  13  14
ENDBRANCH   8  13
ENDBRANCH   3   5
ENDBRANCH   2   4
BRANCH   2  18
ATOM     18  C   UNL     1      34.439 -22.853 -19.513  0.00  0.00    +0.138 C 
BRANCH  18  20
ATOM     19  O   UNL     1      32.413 -22.043 -18.489  0.00  0.00    -0.291 OA
ATOM     20  C   UNL     1      33.428 -22.726 -18.390  0.00  0.00    +0.181 C 
BRANCH  20  22
ATOM     21  C   UNL     1      34.869 -23.131 -16.437  0.00  0.00    +0.003 C 
ATOM     22  C   UNL     1      33.766 -23.452 -17.130  0.00  0.00    +0.038 C 
BRANCH  21  23
ATOM     23  C   UNL     1      35.294 -23.789 -15.189  0.00  0.00    +0.003 C 
ATOM     24  C   UNL     1      36.598 -24.270 -15.064  0.00  0.00    +0.040 C 
ATOM     25  C   UNL     1      37.002 -24.893 -13.883  0.00  0.00    +0.172 C 
ATOM     26  C   UNL     1      34.394 -23.934 -14.134  0.00  0.00    +0.003 C 
ATOM     27  C   UNL     1      36.101 -25.037 -12.828  0.00  0.00    +0.168 C 
ATOM     28  C   UNL     1      34.797 -24.558 -12.953  0.00  0.00    +0.040 C 
BRANCH  25  29
ATOM     29  O   UNL     1      38.278 -25.357 -13.772  0.00  0.00    -0.468 OA
ATOM     30  C   UNL     1      39.098 -25.281 -14.936  0.00  0.00    +0.253 C 
ENDBRANCH  25  29
BRANCH  27  31
ATOM     31  O   UNL     1      36.482 -25.644 -11.669  0.00  0.00    -0.503 OA
ATOM     32  H   UNL     1      36.040 -25.444 -10.868  0.00  0.00    +0.292 HD
ENDBRANCH  27  31
ENDBRANCH  21  23
ENDBRANCH  20  22
ENDBRANCH  18  20
ENDBRANCH   2  18
TORSDOF 11
ENDMDL
MODEL 8
REMARK VINA RESULT:     -10.6      1.592      2.259
REMARK  Name = 66645351
REMARK  11 active torsions:
REMARK  status: ('A' for Active; 'I' for Inactive)
REMARK    1  A    between atoms: C_2  and  C_4
REMARK    2  A    between atoms: C_2  and  C_18
REMARK    3  A    between atoms: C_3  and  C_5
REMARK    4  A    between atoms: C_6  and  O_11
REMARK    5  A    between atoms: C_8  and  O_13
REMARK    6  A    between atoms: O_13  and  S_14
REMARK    7  A    between atoms: C_18  and  C_20
REMARK    8  A    between atoms: C_20  and  C_22
REMARK    9  A    between atoms: C_21  and  C_23
REMARK   10  A    between atoms: C_25  and  O_29
REMARK   11  A    between atoms: C_27  and  O_31
REMARK                            x       y       z     vdW  Elec       q    Type
REMARK                         _______ _______ _______ _____ _____    ______ ____
ROOT
ATOM      1  O   UNL     1      34.592 -21.014 -20.355  0.00  0.00    -0.291 OA
ATOM      2  C   UNL     1      35.807 -21.075 -20.181  0.00  0.00    +0.181 C 
ENDROOT
BRANCH   2   4
ATOM      3  C   UNL     1      35.606 -22.069 -17.939  0.00  0.00    +0.003 C 
ATOM      4  C   UNL     1      36.394 -21.700 -18.958  0.00  0.00    +0.038 C 
BRANCH   3   5
ATOM      5  C   UNL     1      36.085 -22.700 -16.696  0.00  0.00    +0.003 C 
ATOM      6  C   UNL     1      35.624 -23.684 -14.538  0.00  0.00    +0.175 C 
ATOM      7  C   UNL     1      35.172 -23.088 -15.716  0.00  0.00    +0.040 C 
ATOM      8  C   UNL     1      36.989 -23.893 -14.342  0.00  0.00    +0.209 C 
ATOM      9  C   UNL     1      37.450 -22.909 -16.500  0.00  0.00    +0.003 C 
ATOM     10  C   UNL     1      37.902 -23.505 -15.323  0.00  0.00    +0.043 C 
BRANCH   6  11
ATOM     11  O   UNL     1      34.723 -24.059 -13.587  0.00  0.00    -0.468 OA
ATOM     12  C   UNL     1      33.478 -24.582 -14.046  0.00  0.00    +0.253 C 
ENDBRANCH   6  11
BRANCH   8  13
ATOM     13  O   UNL     1      37.443 -24.474 -13.197  0.00  0.00    -0.319 OA
BRANCH  13  14
ATOM     14  S   UNL     1      37.670 -26.102 -13.167  0.00  0.00    +0.282 S 
ATOM     15  O   UNL     1      39.288 -26.274 -13.302  0.00  0.00    -0.012 OA
ATOM     16  O   UNL     1      37.275 -26.610 -11.866  0.00  0.00    -0.105 OA
ATOM     17  O   UNL     1      37.074 -26.651 -14.371  0.00  0.00    -0.105 OA
ENDBRANCH  13  14
ENDBRANCH   8  13
ENDBRANCH   3   5
ENDBRANCH   2   4
BRANCH   2  18
ATOM     18  C   UNL     1      36.802 -20.486 -21.160  0.00  0.00    +0.138 C 
BRANCH  18  20
ATOM     19  O   UNL     1      37.934 -18.666 -20.059  0.00  0.00    -0.291 OA
ATOM     20  C   UNL     1      37.153 -19.029 -20.934  0.00  0.00    +0.181 C 
BRANCH  20  22
ATOM     21  C   UNL     1      35.906 -18.449 -22.975  0.00  0.00    +0.003 C 
ATOM     22  C   UNL     1      36.452 -18.050 -21.817  0.00  0.00    +0.038 C 
BRANCH  21  23
ATOM     23  C   UNL     1      35.202 -17.564 -23.918  0.00  0.00    +0.003 C 
ATOM     24  C   UNL     1      35.124 -16.195 -23.664  0.00  0.00    +0.040 C 
ATOM     25  C   UNL     1      34.457 -15.356 -24.557  0.00  0.00    +0.172 C 
ATOM     26  C   UNL     1      34.611 -18.095 -25.065  0.00  0.00    +0.003 C 
ATOM     27  C   UNL     1      33.866 -15.887 -25.704  0.00  0.00    +0.168 C 
ATOM     28  C   UNL     1      33.942 -17.256 -25.958  0.00  0.00    +0.040 C 
BRANCH  25  29
ATOM     29  O   UNL     1      34.388 -14.020 -24.299  0.00  0.00    -0.468 OA
ATOM     30  C   UNL     1      33.511 -13.607 -23.253  0.00  0.00    +0.253 C 
ENDBRANCH  25  29
BRANCH  27  31
ATOM     31  O   UNL     1      33.211 -15.079 -26.584  0.00  0.00    -0.503 OA
ATOM     32  H   UNL     1      33.468 -14.182 -26.676  0.00  0.00    +0.292 HD
ENDBRANCH  27  31
ENDBRANCH  21  23
ENDBRANCH  20  22
ENDBRANCH  18  20
ENDBRANCH   2  18
TORSDOF 11
ENDMDL
MODEL 9
REMARK VINA RESULT:     -10.5      3.567     11.987
REMARK  Name = 66645351
REMARK  11 active torsions:
REMARK  status: ('A' for Active; 'I' for Inactive)
REMARK    1  A    between atoms: C_2  and  C_4
REMARK    2  A    between atoms: C_2  and  C_18
REMARK    3  A    between atoms: C_3  and  C_5
REMARK    4  A    between atoms: C_6  and  O_11
REMARK    5  A    between atoms: C_8  and  O_13
REMARK    6  A    between atoms: O_13  and  S_14
REMARK    7  A    between atoms: C_18  and  C_20
REMARK    8  A    between atoms: C_20  and  C_22
REMARK    9  A    between atoms: C_21  and  C_23
REMARK   10  A    between atoms: C_25  and  O_29
REMARK   11  A    between atoms: C_27  and  O_31
REMARK                            x       y       z     vdW  Elec       q    Type
REMARK                         _______ _______ _______ _____ _____    ______ ____
ROOT
ATOM      1  O   UNL     1      33.350 -22.289 -19.932  0.00  0.00    -0.291 OA
ATOM      2  C   UNL     1      34.358 -21.616 -20.130  0.00  0.00    +0.181 C 
ENDROOT
BRANCH   2   4
ATOM      3  C   UNL     1      35.250 -19.766 -21.484  0.00  0.00    +0.003 C 
ATOM      4  C   UNL     1      34.281 -20.232 -20.684  0.00  0.00    +0.038 C 
BRANCH   3   5
ATOM      5  C   UNL     1      35.263 -18.420 -22.087  0.00  0.00    +0.003 C 
ATOM      6  C   UNL     1      35.260 -17.006 -24.046  0.00  0.00    +0.175 C 
ATOM      7  C   UNL     1      35.246 -18.279 -23.473  0.00  0.00    +0.040 C 
ATOM      8  C   UNL     1      35.291 -15.875 -23.229  0.00  0.00    +0.209 C 
ATOM      9  C   UNL     1      35.295 -17.290 -21.270  0.00  0.00    +0.003 C 
ATOM     10  C   UNL     1      35.308 -16.017 -21.841  0.00  0.00    +0.043 C 
BRANCH   6  11
ATOM     11  O   UNL     1      35.241 -16.880 -25.402  0.00  0.00    -0.468 OA
ATOM     12  C   UNL     1      33.990 -17.085 -26.054  0.00  0.00    +0.253 C 
ENDBRANCH   6  11
BRANCH   8  13
ATOM     13  O   UNL     1      35.304 -14.627 -23.774  0.00  0.00    -0.319 OA
BRANCH  13  14
ATOM     14  S   UNL     1      33.890 -13.800 -23.901  0.00  0.00    +0.282 S 
ATOM     15  O   UNL     1      34.361 -12.258 -24.160  0.00  0.00    -0.012 OA
ATOM     16  O   UNL     1      33.181 -14.253 -25.084  0.00  0.00    -0.105 OA
ATOM     17  O   UNL     1      33.237 -13.841 -22.605  0.00  0.00    -0.105 OA
ENDBRANCH  13  14
ENDBRANCH   8  13
ENDBRANCH   3   5
ENDBRANCH   2   4
BRANCH   2  18
ATOM     18  C   UNL     1      35.755 -22.146 -19.875  0.00  0.00    +0.138 C 
BRANCH  18  20
ATOM     19  O   UNL     1      37.101 -20.672 -18.525  0.00  0.00    -0.291 OA
ATOM     20  C   UNL     1      36.403 -21.680 -18.586  0.00  0.00    +0.181 C 
BRANCH  20  22
ATOM     21  C   UNL     1      37.169 -22.782 -16.524  0.00  0.00    +0.003 C 
ATOM     22  C   UNL     1      36.176 -22.552 -17.395  0.00  0.00    +0.038 C 
BRANCH  21  23
ATOM     23  C   UNL     1      37.051 -23.630 -15.326  0.00  0.00    +0.003 C 
ATOM     24  C   UNL     1      38.110 -24.456 -14.949  0.00  0.00    +0.040 C 
ATOM     25  C   UNL     1      37.999 -25.260 -13.814  0.00  0.00    +0.172 C 
ATOM     26  C   UNL     1      35.880 -23.609 -14.568  0.00  0.00    +0.003 C 
ATOM     27  C   UNL     1      36.828 -25.238 -13.057  0.00  0.00    +0.168 C 
ATOM     28  C   UNL     1      35.768 -24.413 -13.433  0.00  0.00    +0.040 C 
BRANCH  25  29
ATOM     29  O   UNL     1      39.040 -26.062 -13.456  0.00  0.00    -0.468 OA
ATOM     30  C   UNL     1      40.226 -25.974 -14.244  0.00  0.00    +0.253 C 
ENDBRANCH  25  29
BRANCH  27  31
ATOM     31  O   UNL     1      36.706 -26.018 -11.946  0.00  0.00    -0.503 OA
ATOM     32  H   UNL     1      35.857 -26.214 -11.602  0.00  0.00    +0.292 HD
ENDBRANCH  27  31
ENDBRANCH  21  23
ENDBRANCH  20  22
ENDBRANCH  18  20
ENDBRANCH   2  18
TORSDOF 11
ENDMDL
