MODEL 1
REMARK VINA RESULT:     -11.8      0.000      0.000
REMARK  Name = 448903
REMARK  11 active torsions:
REMARK  status: ('A' for Active; 'I' for Inactive)
REMARK    1  A    between atoms: N_1  and  C_22
REMARK    2  A    between atoms: C_8  and  N_11
REMARK    3  A    between atoms: C_12  and  C_14
REMARK    4  A    between atoms: C_14  and  C_15
REMARK    5  A    between atoms: C_15  and  C_16
REMARK    6  A    between atoms: C_22  and  C_23
REMARK    7  A    between atoms: C_23  and  C_24
REMARK    8  A    between atoms: C_24  and  N_25
REMARK    9  A    between atoms: C_24  and  C_35
REMARK   10  A    between atoms: C_29  and  C_32
REMARK   11  A    between atoms: C_35  and  O_36
REMARK                            x       y       z     vdW  Elec       q    Type
REMARK                         _______ _______ _______ _____ _____    ______ ____
ROOT
ATOM      1  N   UNL     1      32.822 -24.833 -14.290  0.00  0.00    -0.286 N 
ATOM      2  C   UNL     1      32.228 -24.091 -15.286  0.00  0.00    +0.053 C 
ATOM      3  C   UNL     1      30.849 -24.140 -15.065  0.00  0.00    +0.015 C 
ATOM      4  C   UNL     1      31.871 -25.346 -13.450  0.00  0.00    +0.065 C 
ATOM      5  C   UNL     1      30.640 -24.935 -13.903  0.00  0.00    +0.017 C 
ATOM      6  C   UNL     1      32.798 -23.389 -16.353  0.00  0.00    +0.029 C 
ATOM      7  C   UNL     1      29.996 -23.455 -15.953  0.00  0.00    +0.003 C 
ATOM      8  C   UNL     1      31.931 -22.716 -17.220  0.00  0.00    +0.052 C 
ATOM      9  C   UNL     1      30.552 -22.747 -17.025  0.00  0.00    +0.015 C 
ENDROOT
BRANCH   8  11
ATOM     10  O   UNL     1      34.024 -23.488 -19.236  0.00  0.00    -0.275 OA
ATOM     11  N   UNL     1      32.459 -22.001 -18.297  0.00  0.00    -0.284 N 
ATOM     12  C   UNL     1      33.429 -22.415 -19.219  0.00  0.00    +0.226 C 
ATOM     13  H   UNL     1      32.106 -21.091 -18.424  0.00  0.00    +0.155 HD
BRANCH  12  14
ATOM     14  C   UNL     1      33.743 -21.345 -20.253  0.00  0.00    +0.090 C 
BRANCH  14  15
ATOM     15  C   UNL     1      35.224 -20.965 -20.240  0.00  0.00    +0.036 C 
BRANCH  15  16
ATOM     16  C   UNL     1      35.610 -20.024 -21.355  0.00  0.00    -0.022 C 
ATOM     17  C   UNL     1      34.712 -19.762 -22.389  0.00  0.00    -0.004 C 
ATOM     18  C   UNL     1      36.865 -19.414 -21.350  0.00  0.00    -0.004 C 
ATOM     19  C   UNL     1      35.069 -18.892 -23.420  0.00  0.00    -0.000 C 
ATOM     20  C   UNL     1      37.222 -18.544 -22.380  0.00  0.00    -0.000 C 
ATOM     21  C   UNL     1      36.324 -18.283 -23.415  0.00  0.00    -0.000 C 
ENDBRANCH  15  16
ENDBRANCH  14  15
ENDBRANCH  12  14
ENDBRANCH   8  11
BRANCH   1  22
ATOM     22  C   UNL     1      34.246 -25.049 -14.138  0.00  0.00    +0.097 C 
BRANCH  22  23
ATOM     23  C   UNL     1      34.884 -24.266 -12.984  0.00  0.00    +0.040 C 
BRANCH  23  24
ATOM     24  C   UNL     1      36.184 -24.878 -12.415  0.00  0.00    +0.091 C 
BRANCH  24  25
ATOM     25  N   UNL     1      37.323 -24.812 -13.346  0.00  0.00    -0.246 NA
ATOM     26  N   UNL     1      38.772 -24.150 -14.894  0.00  0.00    -0.251 NA
ATOM     27  C   UNL     1      38.303 -25.759 -13.511  0.00  0.00    +0.125 C 
ATOM     28  C   UNL     1      37.634 -23.857 -14.193  0.00  0.00    +0.201 C 
ATOM     29  C   UNL     1      39.213 -25.371 -14.466  0.00  0.00    +0.124 C 
BRANCH  29  32
ATOM     30  O   UNL     1      40.789 -25.969 -16.123  0.00  0.00    -0.269 OA
ATOM     31  N   UNL     1      41.103 -26.821 -14.033  0.00  0.00    -0.324 N 
ATOM     32  C   UNL     1      40.373 -26.046 -14.942  0.00  0.00    +0.257 C 
ATOM     33  H   UNL     1      41.910 -27.299 -14.331  0.00  0.00    +0.145 HD
ATOM     34  H   UNL     1      40.810 -26.887 -13.095  0.00  0.00    +0.145 HD
ENDBRANCH  29  32
ENDBRANCH  24  25
BRANCH  24  35
ATOM     35  C   UNL     1      36.549 -24.222 -11.073  0.00  0.00    +0.153 C 
BRANCH  35  36
ATOM     36  O   UNL     1      35.638 -24.649 -10.067  0.00  0.00    -0.381 OA
ATOM     37  H   UNL     1      36.087 -24.662  -9.207  0.00  0.00    +0.210 HD
ENDBRANCH  35  36
ENDBRANCH  24  35
ENDBRANCH  23  24
ENDBRANCH  22  23
ENDBRANCH   1  22
TORSDOF 11
ENDMDL
MODEL 2
REMARK VINA RESULT:     -11.6      9.672     14.041
REMARK  Name = 448903
REMARK  11 active torsions:
REMARK  status: ('A' for Active; 'I' for Inactive)
REMARK    1  A    between atoms: N_1  and  C_22
REMARK    2  A    between atoms: C_8  and  N_11
REMARK    3  A    between atoms: C_12  and  C_14
REMARK    4  A    between atoms: C_14  and  C_15
REMARK    5  A    between atoms: C_15  and  C_16
REMARK    6  A    between atoms: C_22  and  C_23
REMARK    7  A    between atoms: C_23  and  C_24
REMARK    8  A    between atoms: C_24  and  N_25
REMARK    9  A    between atoms: C_24  and  C_35
REMARK   10  A    between atoms: C_29  and  C_32
REMARK   11  A    between atoms: C_35  and  O_36
REMARK                            x       y       z     vdW  Elec       q    Type
REMARK                         _______ _______ _______ _____ _____    ______ ____
ROOT
ATOM      1  N   UNL     1      32.770 -13.246 -22.000  0.00  0.00    -0.286 N 
ATOM      2  C   UNL     1      32.435 -12.061 -21.382  0.00  0.00    +0.053 C 
ATOM      3  C   UNL     1      32.123 -12.366 -20.055  0.00  0.00    +0.015 C 
ATOM      4  C   UNL     1      32.681 -14.283 -21.112  0.00  0.00    +0.065 C 
ATOM      5  C   UNL     1      32.284 -13.771 -19.900  0.00  0.00    +0.017 C 
ATOM      6  C   UNL     1      32.385 -10.759 -21.891  0.00  0.00    +0.029 C 
ATOM      7  C   UNL     1      31.742 -11.319 -19.192  0.00  0.00    +0.003 C 
ATOM      8  C   UNL     1      32.005  -9.737 -21.015  0.00  0.00    +0.052 C 
ATOM      9  C   UNL     1      31.689 -10.011 -19.686  0.00  0.00    +0.015 C 
ENDROOT
BRANCH   8  11
ATOM     10  O   UNL     1      33.413  -7.259 -20.058  0.00  0.00    -0.275 OA
ATOM     11  N   UNL     1      31.944  -8.423 -21.482  0.00  0.00    -0.284 N 
ATOM     12  C   UNL     1      32.635  -7.302 -21.006  0.00  0.00    +0.226 C 
ATOM     13  H   UNL     1      31.338  -8.264 -22.242  0.00  0.00    +0.155 HD
BRANCH  12  14
ATOM     14  C   UNL     1      32.298  -6.038 -21.782  0.00  0.00    +0.090 C 
BRANCH  14  15
ATOM     15  C   UNL     1      31.911  -6.349 -23.228  0.00  0.00    +0.036 C 
BRANCH  15  16
ATOM     16  C   UNL     1      32.890  -5.803 -24.240  0.00  0.00    -0.022 C 
ATOM     17  C   UNL     1      32.546  -4.698 -25.017  0.00  0.00    -0.004 C 
ATOM     18  C   UNL     1      34.139  -6.405 -24.396  0.00  0.00    -0.004 C 
ATOM     19  C   UNL     1      33.450  -4.194 -25.953  0.00  0.00    -0.000 C 
ATOM     20  C   UNL     1      35.043  -5.901 -25.332  0.00  0.00    -0.000 C 
ATOM     21  C   UNL     1      34.699  -4.796 -26.110  0.00  0.00    -0.000 C 
ENDBRANCH  15  16
ENDBRANCH  14  15
ENDBRANCH  12  14
ENDBRANCH   8  11
BRANCH   1  22
ATOM     22  C   UNL     1      33.160 -13.389 -23.386  0.00  0.00    +0.097 C 
BRANCH  22  23
ATOM     23  C   UNL     1      34.583 -13.928 -23.590  0.00  0.00    +0.040 C 
BRANCH  23  24
ATOM     24  C   UNL     1      34.732 -14.980 -24.711  0.00  0.00    +0.091 C 
BRANCH  24  25
ATOM     25  N   UNL     1      35.034 -16.333 -24.213  0.00  0.00    -0.246 NA
ATOM     26  N   UNL     1      35.256 -18.535 -24.035  0.00  0.00    -0.251 NA
ATOM     27  C   UNL     1      35.578 -16.655 -22.996  0.00  0.00    +0.125 C 
ATOM     28  C   UNL     1      34.852 -17.487 -24.815  0.00  0.00    +0.201 C 
ATOM     29  C   UNL     1      35.726 -18.016 -22.861  0.00  0.00    +0.124 C 
BRANCH  29  32
ATOM     30  O   UNL     1      35.528 -19.361 -20.927  0.00  0.00    -0.269 OA
ATOM     31  N   UNL     1      37.636 -18.876 -21.647  0.00  0.00    -0.324 N 
ATOM     32  C   UNL     1      36.245 -18.770 -21.770  0.00  0.00    +0.257 C 
ATOM     33  H   UNL     1      38.026 -19.391 -20.904  0.00  0.00    +0.145 HD
ATOM     34  H   UNL     1      38.224 -18.436 -22.304  0.00  0.00    +0.145 HD
ENDBRANCH  29  32
ENDBRANCH  24  25
BRANCH  24  35
ATOM     35  C   UNL     1      33.479 -15.003 -25.602  0.00  0.00    +0.153 C 
BRANCH  35  36
ATOM     36  O   UNL     1      33.850 -15.297 -26.944  0.00  0.00    -0.381 OA
ATOM     37  H   UNL     1      34.815 -15.247 -27.031  0.00  0.00    +0.210 HD
ENDBRANCH  35  36
ENDBRANCH  24  35
ENDBRANCH  23  24
ENDBRANCH  22  23
ENDBRANCH   1  22
TORSDOF 11
ENDMDL
MODEL 3
REMARK VINA RESULT:     -11.5      2.944      6.975
REMARK  Name = 448903
REMARK  11 active torsions:
REMARK  status: ('A' for Active; 'I' for Inactive)
REMARK    1  A    between atoms: N_1  and  C_22
REMARK    2  A    between atoms: C_8  and  N_11
REMARK    3  A    between atoms: C_12  and  C_14
REMARK    4  A    between atoms: C_14  and  C_15
REMARK    5  A    between atoms: C_15  and  C_16
REMARK    6  A    between atoms: C_22  and  C_23
REMARK    7  A    between atoms: C_23  and  C_24
REMARK    8  A    between atoms: C_24  and  N_25
REMARK    9  A    between atoms: C_24  and  C_35
REMARK   10  A    between atoms: C_29  and  C_32
REMARK   11  A    between atoms: C_35  and  O_36
REMARK                            x       y       z     vdW  Elec       q    Type
REMARK                         _______ _______ _______ _____ _____    ______ ____
ROOT
ATOM      1  N   UNL     1      34.670 -24.090 -15.077  0.00  0.00    -0.286 N 
ATOM      2  C   UNL     1      35.339 -23.374 -16.044  0.00  0.00    +0.053 C 
ATOM      3  C   UNL     1      36.680 -23.316 -15.656  0.00  0.00    +0.015 C 
ATOM      4  C   UNL     1      35.538 -24.486 -14.096  0.00  0.00    +0.065 C 
ATOM      5  C   UNL     1      36.790 -24.022 -14.425  0.00  0.00    +0.017 C 
ATOM      6  C   UNL     1      34.865 -22.781 -17.219  0.00  0.00    +0.029 C 
ATOM      7  C   UNL     1      37.594 -22.630 -16.481  0.00  0.00    +0.003 C 
ATOM      8  C   UNL     1      35.792 -22.107 -18.022  0.00  0.00    +0.052 C 
ATOM      9  C   UNL     1      37.135 -22.033 -17.660  0.00  0.00    +0.015 C 
ENDROOT
BRANCH   8  11
ATOM     10  O   UNL     1      33.034 -21.860 -19.195  0.00  0.00    -0.275 OA
ATOM     11  N   UNL     1      35.361 -21.502 -19.203  0.00  0.00    -0.284 N 
ATOM     12  C   UNL     1      34.055 -21.403 -19.700  0.00  0.00    +0.226 C 
ATOM     13  H   UNL     1      36.064 -21.094 -19.759  0.00  0.00    +0.155 HD
BRANCH  12  14
ATOM     14  C   UNL     1      33.992 -20.665 -21.028  0.00  0.00    +0.090 C 
BRANCH  14  15
ATOM     15  C   UNL     1      35.352 -20.086 -21.418  0.00  0.00    +0.036 C 
BRANCH  15  16
ATOM     16  C   UNL     1      35.270 -19.055 -22.518  0.00  0.00    -0.022 C 
ATOM     17  C   UNL     1      35.672 -17.742 -22.275  0.00  0.00    -0.004 C 
ATOM     18  C   UNL     1      34.793 -19.417 -23.778  0.00  0.00    -0.004 C 
ATOM     19  C   UNL     1      35.596 -16.790 -23.291  0.00  0.00    -0.000 C 
ATOM     20  C   UNL     1      34.717 -18.464 -24.795  0.00  0.00    -0.000 C 
ATOM     21  C   UNL     1      35.119 -17.151 -24.551  0.00  0.00    -0.000 C 
ENDBRANCH  15  16
ENDBRANCH  14  15
ENDBRANCH  12  14
ENDBRANCH   8  11
BRANCH   1  22
ATOM     22  C   UNL     1      33.254 -24.390 -15.082  0.00  0.00    +0.097 C 
BRANCH  22  23
ATOM     23  C   UNL     1      32.347 -23.161 -14.934  0.00  0.00    +0.040 C 
BRANCH  23  24
ATOM     24  C   UNL     1      30.893 -23.466 -14.509  0.00  0.00    +0.091 C 
BRANCH  24  25
ATOM     25  N   UNL     1      29.892 -23.087 -15.520  0.00  0.00    -0.246 NA
ATOM     26  N   UNL     1      28.879 -22.609 -17.438  0.00  0.00    -0.251 NA
ATOM     27  C   UNL     1      28.579 -22.760 -15.292  0.00  0.00    +0.125 C 
ATOM     28  C   UNL     1      30.040 -22.987 -16.822  0.00  0.00    +0.201 C 
ATOM     29  C   UNL     1      27.930 -22.459 -16.466  0.00  0.00    +0.124 C 
BRANCH  29  32
ATOM     30  O   UNL     1      25.647 -22.303 -15.871  0.00  0.00    -0.269 OA
ATOM     31  N   UNL     1      26.270 -21.378 -17.859  0.00  0.00    -0.324 N 
ATOM     32  C   UNL     1      26.576 -22.073 -16.683  0.00  0.00    +0.257 C 
ATOM     33  H   UNL     1      25.343 -21.097 -18.038  0.00  0.00    +0.145 HD
ATOM     34  H   UNL     1      26.981 -21.170 -18.508  0.00  0.00    +0.145 HD
ENDBRANCH  29  32
ENDBRANCH  24  25
BRANCH  24  35
ATOM     35  C   UNL     1      30.739 -24.948 -14.130  0.00  0.00    +0.153 C 
BRANCH  35  36
ATOM     36  O   UNL     1      30.752 -25.086 -12.714  0.00  0.00    -0.381 OA
ATOM     37  H   UNL     1      31.369 -24.441 -12.332  0.00  0.00    +0.210 HD
ENDBRANCH  35  36
ENDBRANCH  24  35
ENDBRANCH  23  24
ENDBRANCH  22  23
ENDBRANCH   1  22
TORSDOF 11
ENDMDL
MODEL 4
REMARK VINA RESULT:     -11.5      3.725      7.464
REMARK  Name = 448903
REMARK  11 active torsions:
REMARK  status: ('A' for Active; 'I' for Inactive)
REMARK    1  A    between atoms: N_1  and  C_22
REMARK    2  A    between atoms: C_8  and  N_11
REMARK    3  A    between atoms: C_12  and  C_14
REMARK    4  A    between atoms: C_14  and  C_15
REMARK    5  A    between atoms: C_15  and  C_16
REMARK    6  A    between atoms: C_22  and  C_23
REMARK    7  A    between atoms: C_23  and  C_24
REMARK    8  A    between atoms: C_24  and  N_25
REMARK    9  A    between atoms: C_24  and  C_35
REMARK   10  A    between atoms: C_29  and  C_32
REMARK   11  A    between atoms: C_35  and  O_36
REMARK                            x       y       z     vdW  Elec       q    Type
REMARK                         _______ _______ _______ _____ _____    ______ ____
ROOT
ATOM      1  N   UNL     1      34.166 -23.174 -16.901  0.00  0.00    -0.286 N 
ATOM      2  C   UNL     1      34.891 -22.512 -17.867  0.00  0.00    +0.053 C 
ATOM      3  C   UNL     1      36.208 -22.431 -17.406  0.00  0.00    +0.015 C 
ATOM      4  C   UNL     1      34.975 -23.514 -15.852  0.00  0.00    +0.065 C 
ATOM      5  C   UNL     1      36.245 -23.068 -16.134  0.00  0.00    +0.017 C 
ATOM      6  C   UNL     1      34.487 -21.984 -19.098  0.00  0.00    +0.029 C 
ATOM      7  C   UNL     1      37.170 -21.791 -18.214  0.00  0.00    +0.003 C 
ATOM      8  C   UNL     1      35.459 -21.355 -19.882  0.00  0.00    +0.052 C 
ATOM      9  C   UNL     1      36.780 -21.260 -19.448  0.00  0.00    +0.015 C 
ENDROOT
BRANCH   8  11
ATOM     10  O   UNL     1      36.011 -18.647 -21.066  0.00  0.00    -0.275 OA
ATOM     11  N   UNL     1      35.099 -20.816 -21.118  0.00  0.00    -0.284 N 
ATOM     12  C   UNL     1      35.394 -19.547 -21.629  0.00  0.00    +0.226 C 
ATOM     13  H   UNL     1      34.568 -21.403 -21.705  0.00  0.00    +0.155 HD
BRANCH  12  14
ATOM     14  C   UNL     1      34.821 -19.331 -23.021  0.00  0.00    +0.090 C 
BRANCH  14  15
ATOM     15  C   UNL     1      35.742 -18.465 -23.883  0.00  0.00    +0.036 C 
BRANCH  15  16
ATOM     16  C   UNL     1      35.131 -17.138 -24.263  0.00  0.00    -0.022 C 
ATOM     17  C   UNL     1      34.524 -16.981 -25.508  0.00  0.00    -0.004 C 
ATOM     18  C   UNL     1      35.173 -16.069 -23.367  0.00  0.00    -0.004 C 
ATOM     19  C   UNL     1      33.960 -15.754 -25.860  0.00  0.00    -0.000 C 
ATOM     20  C   UNL     1      34.609 -14.842 -23.719  0.00  0.00    -0.000 C 
ATOM     21  C   UNL     1      34.003 -14.685 -24.965  0.00  0.00    -0.000 C 
ENDBRANCH  15  16
ENDBRANCH  14  15
ENDBRANCH  12  14
ENDBRANCH   8  11
BRANCH   1  22
ATOM     22  C   UNL     1      32.752 -23.475 -16.972  0.00  0.00    +0.097 C 
BRANCH  22  23
ATOM     23  C   UNL     1      32.194 -24.184 -15.730  0.00  0.00    +0.040 C 
BRANCH  23  24
ATOM     24  C   UNL     1      31.049 -23.438 -15.008  0.00  0.00    +0.091 C 
BRANCH  24  25
ATOM     25  N   UNL     1      29.779 -23.445 -15.753  0.00  0.00    -0.246 NA
ATOM     26  N   UNL     1      28.106 -24.002 -17.103  0.00  0.00    -0.251 NA
ATOM     27  C   UNL     1      28.788 -22.498 -15.692  0.00  0.00    +0.125 C 
ATOM     28  C   UNL     1      29.338 -24.337 -16.612  0.00  0.00    +0.201 C 
ATOM     29  C   UNL     1      27.739 -22.822 -16.521  0.00  0.00    +0.124 C 
BRANCH  29  32
ATOM     30  O   UNL     1      25.569 -22.084 -15.942  0.00  0.00    -0.269 OA
ATOM     31  N   UNL     1      26.387 -21.424 -17.964  0.00  0.00    -0.324 N 
ATOM     32  C   UNL     1      26.521 -22.124 -16.759  0.00  0.00    +0.257 C 
ATOM     33  H   UNL     1      25.557 -20.931 -18.158  0.00  0.00    +0.145 HD
ATOM     34  H   UNL     1      27.124 -21.424 -18.618  0.00  0.00    +0.145 HD
ENDBRANCH  29  32
ENDBRANCH  24  25
BRANCH  24  35
ATOM     35  C   UNL     1      30.843 -24.004 -13.593  0.00  0.00    +0.153 C 
BRANCH  35  36
ATOM     36  O   UNL     1      30.655 -25.412 -13.662  0.00  0.00    -0.381 OA
ATOM     37  H   UNL     1      30.256 -25.726 -12.835  0.00  0.00    +0.210 HD
ENDBRANCH  35  36
ENDBRANCH  24  35
ENDBRANCH  23  24
ENDBRANCH  22  23
ENDBRANCH   1  22
TORSDOF 11
ENDMDL
MODEL 5
REMARK VINA RESULT:     -11.0      2.461      4.570
REMARK  Name = 448903
REMARK  11 active torsions:
REMARK  status: ('A' for Active; 'I' for Inactive)
REMARK    1  A    between atoms: N_1  and  C_22
REMARK    2  A    between atoms: C_8  and  N_11
REMARK    3  A    between atoms: C_12  and  C_14
REMARK    4  A    between atoms: C_14  and  C_15
REMARK    5  A    between atoms: C_15  and  C_16
REMARK    6  A    between atoms: C_22  and  C_23
REMARK    7  A    between atoms: C_23  and  C_24
REMARK    8  A    between atoms: C_24  and  N_25
REMARK    9  A    between atoms: C_24  and  C_35
REMARK   10  A    between atoms: C_29  and  C_32
REMARK   11  A    between atoms: C_35  and  O_36
REMARK                            x       y       z     vdW  Elec       q    Type
REMARK                         _______ _______ _______ _____ _____    ______ ____
ROOT
ATOM      1  N   UNL     1      36.421 -23.033 -16.310  0.00  0.00    -0.286 N 
ATOM      2  C   UNL     1      35.856 -22.537 -17.464  0.00  0.00    +0.053 C 
ATOM      3  C   UNL     1      34.547 -23.021 -17.520  0.00  0.00    +0.015 C 
ATOM      4  C   UNL     1      35.517 -23.809 -15.637  0.00  0.00    +0.065 C 
ATOM      5  C   UNL     1      34.347 -23.821 -16.361  0.00  0.00    +0.017 C 
ATOM      6  C   UNL     1      36.399 -21.707 -18.452  0.00  0.00    +0.029 C 
ATOM      7  C   UNL     1      33.737 -22.659 -18.616  0.00  0.00    +0.003 C 
ATOM      8  C   UNL     1      35.576 -21.362 -19.529  0.00  0.00    +0.052 C 
ATOM      9  C   UNL     1      34.266 -21.829 -19.611  0.00  0.00    +0.015 C 
ENDROOT
BRANCH   8  11
ATOM     10  O   UNL     1      34.150 -19.842 -21.696  0.00  0.00    -0.275 OA
ATOM     11  N   UNL     1      36.077 -20.534 -20.535  0.00  0.00    -0.284 N 
ATOM     12  C   UNL     1      35.365 -19.835 -21.517  0.00  0.00    +0.226 C 
ATOM     13  H   UNL     1      37.056 -20.429 -20.558  0.00  0.00    +0.155 HD
BRANCH  12  14
ATOM     14  C   UNL     1      36.273 -19.037 -22.439  0.00  0.00    +0.090 C 
BRANCH  14  15
ATOM     15  C   UNL     1      35.685 -18.917 -23.846  0.00  0.00    +0.036 C 
BRANCH  15  16
ATOM     16  C   UNL     1      35.211 -17.523 -24.179  0.00  0.00    -0.022 C 
ATOM     17  C   UNL     1      34.594 -17.270 -25.404  0.00  0.00    -0.004 C 
ATOM     18  C   UNL     1      35.388 -16.488 -23.260  0.00  0.00    -0.004 C 
ATOM     19  C   UNL     1      34.156 -15.982 -25.712  0.00  0.00    -0.000 C 
ATOM     20  C   UNL     1      34.950 -15.200 -23.569  0.00  0.00    -0.000 C 
ATOM     21  C   UNL     1      34.334 -14.947 -24.794  0.00  0.00    -0.000 C 
ENDBRANCH  15  16
ENDBRANCH  14  15
ENDBRANCH  12  14
ENDBRANCH   8  11
BRANCH   1  22
ATOM     22  C   UNL     1      37.773 -22.779 -15.860  0.00  0.00    +0.097 C 
BRANCH  22  23
ATOM     23  C   UNL     1      38.771 -23.896 -16.195  0.00  0.00    +0.040 C 
BRANCH  23  24
ATOM     24  C   UNL     1      39.431 -24.574 -14.973  0.00  0.00    +0.091 C 
BRANCH  24  25
ATOM     25  N   UNL     1      38.464 -25.057 -13.973  0.00  0.00    -0.246 NA
ATOM     26  N   UNL     1      37.036 -26.312 -12.826  0.00  0.00    -0.251 NA
ATOM     27  C   UNL     1      37.980 -24.357 -12.896  0.00  0.00    +0.125 C 
ATOM     28  C   UNL     1      37.876 -26.230 -13.902  0.00  0.00    +0.201 C 
ATOM     29  C   UNL     1      37.092 -25.115 -12.169  0.00  0.00    +0.124 C 
BRANCH  29  32
ATOM     30  O   UNL     1      35.437 -25.483 -10.522  0.00  0.00    -0.269 OA
ATOM     31  N   UNL     1      36.727 -23.617 -10.303  0.00  0.00    -0.324 N 
ATOM     32  C   UNL     1      36.366 -24.782 -10.990  0.00  0.00    +0.257 C 
ATOM     33  H   UNL     1      36.245 -23.359  -9.484  0.00  0.00    +0.145 HD
ATOM     34  H   UNL     1      37.463 -23.055 -10.638  0.00  0.00    +0.145 HD
ENDBRANCH  29  32
ENDBRANCH  24  25
BRANCH  24  35
ATOM     35  C   UNL     1      40.355 -25.718 -15.423  0.00  0.00    +0.153 C 
BRANCH  35  36
ATOM     36  O   UNL     1      41.275 -26.028 -14.382  0.00  0.00    -0.381 OA
ATOM     37  H   UNL     1      41.028 -25.546 -13.578  0.00  0.00    +0.210 HD
ENDBRANCH  35  36
ENDBRANCH  24  35
ENDBRANCH  23  24
ENDBRANCH  22  23
ENDBRANCH   1  22
TORSDOF 11
ENDMDL
MODEL 6
REMARK VINA RESULT:     -11.0      6.765     11.518
REMARK  Name = 448903
REMARK  11 active torsions:
REMARK  status: ('A' for Active; 'I' for Inactive)
REMARK    1  A    between atoms: N_1  and  C_22
REMARK    2  A    between atoms: C_8  and  N_11
REMARK    3  A    between atoms: C_12  and  C_14
REMARK    4  A    between atoms: C_14  and  C_15
REMARK    5  A    between atoms: C_15  and  C_16
REMARK    6  A    between atoms: C_22  and  C_23
REMARK    7  A    between atoms: C_23  and  C_24
REMARK    8  A    between atoms: C_24  and  N_25
REMARK    9  A    between atoms: C_24  and  C_35
REMARK   10  A    between atoms: C_29  and  C_32
REMARK   11  A    between atoms: C_35  and  O_36
REMARK                            x       y       z     vdW  Elec       q    Type
REMARK                         _______ _______ _______ _____ _____    ______ ____
ROOT
ATOM      1  N   UNL     1      35.014 -16.447 -23.747  0.00  0.00    -0.286 N 
ATOM      2  C   UNL     1      34.551 -15.281 -24.314  0.00  0.00    +0.053 C 
ATOM      3  C   UNL     1      34.228 -15.572 -25.642  0.00  0.00    +0.015 C 
ATOM      4  C   UNL     1      34.993 -17.461 -24.666  0.00  0.00    +0.065 C 
ATOM      5  C   UNL     1      34.512 -16.951 -25.848  0.00  0.00    +0.017 C 
ATOM      6  C   UNL     1      34.396 -14.005 -23.761  0.00  0.00    +0.029 C 
ATOM      7  C   UNL     1      33.725 -14.539 -26.459  0.00  0.00    +0.003 C 
ATOM      8  C   UNL     1      33.895 -12.997 -24.590  0.00  0.00    +0.052 C 
ATOM      9  C   UNL     1      33.564 -13.258 -25.919  0.00  0.00    +0.015 C 
ENDROOT
BRANCH   8  11
ATOM     10  O   UNL     1      35.386 -10.451 -25.167  0.00  0.00    -0.275 OA
ATOM     11  N   UNL     1      33.723 -11.711 -24.077  0.00  0.00    -0.284 N 
ATOM     12  C   UNL     1      34.440 -10.550 -24.391  0.00  0.00    +0.226 C 
ATOM     13  H   UNL     1      33.007 -11.606 -23.409  0.00  0.00    +0.155 HD
BRANCH  12  14
ATOM     14  C   UNL     1      33.953  -9.336 -23.616  0.00  0.00    +0.090 C 
BRANCH  14  15
ATOM     15  C   UNL     1      32.434  -9.353 -23.437  0.00  0.00    +0.036 C 
BRANCH  15  16
ATOM     16  C   UNL     1      31.999  -9.807 -22.064  0.00  0.00    -0.022 C 
ATOM     17  C   UNL     1      32.368  -9.073 -20.937  0.00  0.00    -0.004 C 
ATOM     18  C   UNL     1      31.225 -10.960 -21.924  0.00  0.00    -0.004 C 
ATOM     19  C   UNL     1      31.966  -9.493 -19.669  0.00  0.00    -0.000 C 
ATOM     20  C   UNL     1      30.823 -11.379 -20.656  0.00  0.00    -0.000 C 
ATOM     21  C   UNL     1      31.193 -10.646 -19.528  0.00  0.00    -0.000 C 
ENDBRANCH  15  16
ENDBRANCH  14  15
ENDBRANCH  12  14
ENDBRANCH   8  11
BRANCH   1  22
ATOM     22  C   UNL     1      35.461 -16.596 -22.378  0.00  0.00    +0.097 C 
BRANCH  22  23
ATOM     23  C   UNL     1      35.188 -17.978 -21.771  0.00  0.00    +0.040 C 
BRANCH  23  24
ATOM     24  C   UNL     1      36.448 -18.776 -21.363  0.00  0.00    +0.091 C 
BRANCH  24  25
ATOM     25  N   UNL     1      36.147 -20.009 -20.616  0.00  0.00    -0.246 NA
ATOM     26  N   UNL     1      36.302 -21.795 -19.306  0.00  0.00    -0.251 NA
ATOM     27  C   UNL     1      34.953 -20.685 -20.596  0.00  0.00    +0.125 C 
ATOM     28  C   UNL     1      36.938 -20.703 -19.829  0.00  0.00    +0.201 C 
ATOM     29  C   UNL     1      35.025 -21.797 -19.790  0.00  0.00    +0.124 C 
BRANCH  29  32
ATOM     30  O   UNL     1      34.104 -23.974 -19.823  0.00  0.00    -0.269 OA
ATOM     31  N   UNL     1      32.905 -22.352 -18.761  0.00  0.00    -0.324 N 
ATOM     32  C   UNL     1      34.026 -22.767 -19.490  0.00  0.00    +0.257 C 
ATOM     33  H   UNL     1      32.197 -22.999 -18.537  0.00  0.00    +0.145 HD
ATOM     34  H   UNL     1      32.824 -21.414 -18.472  0.00  0.00    +0.145 HD
ENDBRANCH  29  32
ENDBRANCH  24  25
BRANCH  24  35
ATOM     35  C   UNL     1      37.310 -19.092 -22.596  0.00  0.00    +0.153 C 
BRANCH  35  36
ATOM     36  O   UNL     1      38.547 -18.394 -22.508  0.00  0.00    -0.381 OA
ATOM     37  H   UNL     1      39.188 -18.932 -22.016  0.00  0.00    +0.210 HD
ENDBRANCH  35  36
ENDBRANCH  24  35
ENDBRANCH  23  24
ENDBRANCH  22  23
ENDBRANCH   1  22
TORSDOF 11
ENDMDL
MODEL 7
REMARK VINA RESULT:     -10.9      1.458      2.132
REMARK  Name = 448903
REMARK  11 active torsions:
REMARK  status: ('A' for Active; 'I' for Inactive)
REMARK    1  A    between atoms: N_1  and  C_22
REMARK    2  A    between atoms: C_8  and  N_11
REMARK    3  A    between atoms: C_12  and  C_14
REMARK    4  A    between atoms: C_14  and  C_15
REMARK    5  A    between atoms: C_15  and  C_16
REMARK    6  A    between atoms: C_22  and  C_23
REMARK    7  A    between atoms: C_23  and  C_24
REMARK    8  A    between atoms: C_24  and  N_25
REMARK    9  A    between atoms: C_24  and  C_35
REMARK   10  A    between atoms: C_29  and  C_32
REMARK   11  A    between atoms: C_35  and  O_36
REMARK                            x       y       z     vdW  Elec       q    Type
REMARK                         _______ _______ _______ _____ _____    ______ ____
ROOT
ATOM      1  N   UNL     1      32.838 -24.781 -14.232  0.00  0.00    -0.286 N 
ATOM      2  C   UNL     1      32.247 -24.069 -15.252  0.00  0.00    +0.053 C 
ATOM      3  C   UNL     1      30.867 -24.108 -15.033  0.00  0.00    +0.015 C 
ATOM      4  C   UNL     1      31.884 -25.266 -13.380  0.00  0.00    +0.065 C 
ATOM      5  C   UNL     1      30.654 -24.866 -13.848  0.00  0.00    +0.017 C 
ATOM      6  C   UNL     1      32.821 -23.401 -16.339  0.00  0.00    +0.029 C 
ATOM      7  C   UNL     1      30.018 -23.449 -15.944  0.00  0.00    +0.003 C 
ATOM      8  C   UNL     1      31.958 -22.753 -17.229  0.00  0.00    +0.052 C 
ATOM      9  C   UNL     1      30.578 -22.775 -17.036  0.00  0.00    +0.015 C 
ENDROOT
BRANCH   8  11
ATOM     10  O   UNL     1      34.044 -23.597 -19.223  0.00  0.00    -0.275 OA
ATOM     11  N   UNL     1      32.490 -22.073 -18.326  0.00  0.00    -0.284 N 
ATOM     12  C   UNL     1      33.456 -22.519 -19.236  0.00  0.00    +0.226 C 
ATOM     13  H   UNL     1      32.143 -21.164 -18.478  0.00  0.00    +0.155 HD
BRANCH  12  14
ATOM     14  C   UNL     1      33.776 -21.482 -20.301  0.00  0.00    +0.090 C 
BRANCH  14  15
ATOM     15  C   UNL     1      35.183 -20.908 -20.124  0.00  0.00    +0.036 C 
BRANCH  15  16
ATOM     16  C   UNL     1      35.611 -20.012 -21.261  0.00  0.00    -0.022 C 
ATOM     17  C   UNL     1      34.716 -19.713 -22.288  0.00  0.00    -0.004 C 
ATOM     18  C   UNL     1      36.901 -19.482 -21.283  0.00  0.00    -0.004 C 
ATOM     19  C   UNL     1      35.112 -18.886 -23.339  0.00  0.00    -0.000 C 
ATOM     20  C   UNL     1      37.297 -18.654 -22.334  0.00  0.00    -0.000 C 
ATOM     21  C   UNL     1      36.402 -18.356 -23.362  0.00  0.00    -0.000 C 
ENDBRANCH  15  16
ENDBRANCH  14  15
ENDBRANCH  12  14
ENDBRANCH   8  11
BRANCH   1  22
ATOM     22  C   UNL     1      34.260 -24.994 -14.071  0.00  0.00    +0.097 C 
BRANCH  22  23
ATOM     23  C   UNL     1      34.883 -24.240 -12.888  0.00  0.00    +0.040 C 
BRANCH  23  24
ATOM     24  C   UNL     1      36.425 -24.302 -12.809  0.00  0.00    +0.091 C 
BRANCH  24  25
ATOM     25  N   UNL     1      37.095 -23.900 -14.057  0.00  0.00    -0.246 NA
ATOM     26  N   UNL     1      38.527 -23.734 -15.747  0.00  0.00    -0.251 NA
ATOM     27  C   UNL     1      36.658 -22.958 -14.956  0.00  0.00    +0.125 C 
ATOM     28  C   UNL     1      38.222 -24.348 -14.564  0.00  0.00    +0.201 C 
ATOM     29  C   UNL     1      37.530 -22.838 -16.012  0.00  0.00    +0.124 C 
BRANCH  29  32
ATOM     30  O   UNL     1      37.071 -22.369 -18.283  0.00  0.00    -0.269 OA
ATOM     31  N   UNL     1      37.831 -20.647 -16.999  0.00  0.00    -0.324 N 
ATOM     32  C   UNL     1      37.462 -21.988 -17.154  0.00  0.00    +0.257 C 
ATOM     33  H   UNL     1      37.795 -20.034 -17.768  0.00  0.00    +0.145 HD
ATOM     34  H   UNL     1      38.128 -20.316 -16.120  0.00  0.00    +0.145 HD
ENDBRANCH  29  32
ENDBRANCH  24  25
BRANCH  24  35
ATOM     35  C   UNL     1      36.940 -23.461 -11.629  0.00  0.00    +0.153 C 
BRANCH  35  36
ATOM     36  O   UNL     1      36.922 -24.243 -10.440  0.00  0.00    -0.381 OA
ATOM     37  H   UNL     1      36.005 -24.453 -10.204  0.00  0.00    +0.210 HD
ENDBRANCH  35  36
ENDBRANCH  24  35
ENDBRANCH  23  24
ENDBRANCH  22  23
ENDBRANCH   1  22
TORSDOF 11
ENDMDL
MODEL 8
REMARK VINA RESULT:     -10.9      8.132     13.812
REMARK  Name = 448903
REMARK  11 active torsions:
REMARK  status: ('A' for Active; 'I' for Inactive)
REMARK    1  A    between atoms: N_1  and  C_22
REMARK    2  A    between atoms: C_8  and  N_11
REMARK    3  A    between atoms: C_12  and  C_14
REMARK    4  A    between atoms: C_14  and  C_15
REMARK    5  A    between atoms: C_15  and  C_16
REMARK    6  A    between atoms: C_22  and  C_23
REMARK    7  A    between atoms: C_23  and  C_24
REMARK    8  A    between atoms: C_24  and  N_25
REMARK    9  A    between atoms: C_24  and  C_35
REMARK   10  A    between atoms: C_29  and  C_32
REMARK   11  A    between atoms: C_35  and  O_36
REMARK                            x       y       z     vdW  Elec       q    Type
REMARK                         _______ _______ _______ _____ _____    ______ ____
ROOT
ATOM      1  N   UNL     1      33.811 -13.694 -22.223  0.00  0.00    -0.286 N 
ATOM      2  C   UNL     1      34.432 -14.888 -22.513  0.00  0.00    +0.053 C 
ATOM      3  C   UNL     1      34.653 -14.910 -23.893  0.00  0.00    +0.015 C 
ATOM      4  C   UNL     1      33.633 -12.963 -23.366  0.00  0.00    +0.065 C 
ATOM      5  C   UNL     1      34.144 -13.688 -24.416  0.00  0.00    +0.017 C 
ATOM      6  C   UNL     1      34.811 -15.939 -21.671  0.00  0.00    +0.029 C 
ATOM      7  C   UNL     1      35.282 -16.036 -24.461  0.00  0.00    +0.003 C 
ATOM      8  C   UNL     1      35.435 -17.045 -22.257  0.00  0.00    +0.052 C 
ATOM      9  C   UNL     1      35.668 -17.094 -23.630  0.00  0.00    +0.015 C 
ENDROOT
BRANCH   8  11
ATOM     10  O   UNL     1      37.948 -18.695 -22.301  0.00  0.00    -0.275 OA
ATOM     11  N   UNL     1      35.831 -18.114 -21.452  0.00  0.00    -0.284 N 
ATOM     12  C   UNL     1      37.024 -18.844 -21.505  0.00  0.00    +0.226 C 
ATOM     13  H   UNL     1      35.189 -18.390 -20.758  0.00  0.00    +0.155 HD
BRANCH  12  14
ATOM     14  C   UNL     1      37.085 -19.941 -20.454  0.00  0.00    +0.090 C 
BRANCH  14  15
ATOM     15  C   UNL     1      35.936 -20.938 -20.612  0.00  0.00    +0.036 C 
BRANCH  15  16
ATOM     16  C   UNL     1      35.605 -21.675 -19.337  0.00  0.00    -0.022 C 
ATOM     17  C   UNL     1      34.354 -22.272 -19.182  0.00  0.00    -0.004 C 
ATOM     18  C   UNL     1      36.551 -21.761 -18.315  0.00  0.00    -0.004 C 
ATOM     19  C   UNL     1      34.048 -22.954 -18.004  0.00  0.00    -0.000 C 
ATOM     20  C   UNL     1      36.244 -22.442 -17.137  0.00  0.00    -0.000 C 
ATOM     21  C   UNL     1      34.993 -23.039 -16.981  0.00  0.00    -0.000 C 
ENDBRANCH  15  16
ENDBRANCH  14  15
ENDBRANCH  12  14
ENDBRANCH   8  11
BRANCH   1  22
ATOM     22  C   UNL     1      33.400 -13.260 -20.904  0.00  0.00    +0.097 C 
BRANCH  22  23
ATOM     23  C   UNL     1      32.086 -12.467 -20.882  0.00  0.00    +0.040 C 
BRANCH  23  24
ATOM     24  C   UNL     1      32.182 -11.056 -20.259  0.00  0.00    +0.091 C 
BRANCH  24  25
ATOM     25  N   UNL     1      32.066  -9.968 -21.245  0.00  0.00    -0.246 NA
ATOM     26  N   UNL     1      31.666  -8.805 -23.095  0.00  0.00    -0.251 NA
ATOM     27  C   UNL     1      32.399  -8.651 -21.056  0.00  0.00    +0.125 C 
ATOM     28  C   UNL     1      31.628 -10.028 -22.483  0.00  0.00    +0.201 C 
ATOM     29  C   UNL     1      32.160  -7.909 -22.189  0.00  0.00    +0.124 C 
BRANCH  29  32
ATOM     30  O   UNL     1      32.440  -6.009 -23.568  0.00  0.00    -0.269 OA
ATOM     31  N   UNL     1      32.452  -5.670 -21.314  0.00  0.00    -0.324 N 
ATOM     32  C   UNL     1      32.361  -6.519 -22.424  0.00  0.00    +0.257 C 
ATOM     33  H   UNL     1      32.591  -4.704 -21.443  0.00  0.00    +0.145 HD
ATOM     34  H   UNL     1      32.378  -6.040 -20.404  0.00  0.00    +0.145 HD
ENDBRANCH  29  32
ENDBRANCH  24  25
BRANCH  24  35
ATOM     35  C   UNL     1      31.138 -10.884 -19.144  0.00  0.00    +0.153 C 
BRANCH  35  36
ATOM     36  O   UNL     1      31.591 -11.526 -17.959  0.00  0.00    -0.381 OA
ATOM     37  H   UNL     1      31.183 -12.403 -17.890  0.00  0.00    +0.210 HD
ENDBRANCH  35  36
ENDBRANCH  24  35
ENDBRANCH  23  24
ENDBRANCH  22  23
ENDBRANCH   1  22
TORSDOF 11
ENDMDL
MODEL 9
REMARK VINA RESULT:     -10.8      9.854     14.394
REMARK  Name = 448903
REMARK  11 active torsions:
REMARK  status: ('A' for Active; 'I' for Inactive)
REMARK    1  A    between atoms: N_1  and  C_22
REMARK    2  A    between atoms: C_8  and  N_11
REMARK    3  A    between atoms: C_12  and  C_14
REMARK    4  A    between atoms: C_14  and  C_15
REMARK    5  A    between atoms: C_15  and  C_16
REMARK    6  A    between atoms: C_22  and  C_23
REMARK    7  A    between atoms: C_23  and  C_24
REMARK    8  A    between atoms: C_24  and  N_25
REMARK    9  A    between atoms: C_24  and  C_35
REMARK   10  A    between atoms: C_29  and  C_32
REMARK   11  A    between atoms: C_35  and  O_36
REMARK                            x       y       z     vdW  Elec       q    Type
REMARK                         _______ _______ _______ _____ _____    ______ ____
ROOT
ATOM      1  N   UNL     1      32.913 -13.005 -22.470  0.00  0.00    -0.286 N 
ATOM      2  C   UNL     1      32.633 -11.711 -22.092  0.00  0.00    +0.053 C 
ATOM      3  C   UNL     1      32.142 -11.763 -20.785  0.00  0.00    +0.015 C 
ATOM      4  C   UNL     1      32.617 -13.870 -21.452  0.00  0.00    +0.065 C 
ATOM      5  C   UNL     1      32.138 -13.132 -20.395  0.00  0.00    +0.017 C 
ATOM      6  C   UNL     1      32.776 -10.511 -22.798  0.00  0.00    +0.029 C 
ATOM      7  C   UNL     1      31.773 -10.560 -20.151  0.00  0.00    +0.003 C 
ATOM      8  C   UNL     1      32.405  -9.330 -22.148  0.00  0.00    +0.052 C 
ATOM      9  C   UNL     1      31.912  -9.352 -20.844  0.00  0.00    +0.015 C 
ENDROOT
BRANCH   8  11
ATOM     10  O   UNL     1      30.447  -7.836 -23.872  0.00  0.00    -0.275 OA
ATOM     11  N   UNL     1      32.533  -8.112 -22.816  0.00  0.00    -0.284 N 
ATOM     12  C   UNL     1      31.580  -7.449 -23.600  0.00  0.00    +0.226 C 
ATOM     13  H   UNL     1      33.404  -7.661 -22.726  0.00  0.00    +0.155 HD
BRANCH  12  14
ATOM     14  C   UNL     1      32.100  -6.136 -24.163  0.00  0.00    +0.090 C 
BRANCH  14  15
ATOM     15  C   UNL     1      33.627  -6.120 -24.240  0.00  0.00    +0.036 C 
BRANCH  15  16
ATOM     16  C   UNL     1      34.157  -5.429 -25.473  0.00  0.00    -0.022 C 
ATOM     17  C   UNL     1      35.497  -5.573 -25.832  0.00  0.00    -0.004 C 
ATOM     18  C   UNL     1      33.306  -4.646 -26.254  0.00  0.00    -0.004 C 
ATOM     19  C   UNL     1      35.986  -4.935 -26.972  0.00  0.00    -0.000 C 
ATOM     20  C   UNL     1      33.796  -4.007 -27.393  0.00  0.00    -0.000 C 
ATOM     21  C   UNL     1      35.136  -4.152 -27.752  0.00  0.00    -0.000 C 
ENDBRANCH  15  16
ENDBRANCH  14  15
ENDBRANCH  12  14
ENDBRANCH   8  11
BRANCH   1  22
ATOM     22  C   UNL     1      33.443 -13.409 -23.755  0.00  0.00    +0.097 C 
BRANCH  22  23
ATOM     23  C   UNL     1      34.686 -14.304 -23.673  0.00  0.00    +0.040 C 
BRANCH  23  24
ATOM     24  C   UNL     1      34.782 -15.396 -24.762  0.00  0.00    +0.091 C 
BRANCH  24  25
ATOM     25  N   UNL     1      34.992 -16.750 -24.221  0.00  0.00    -0.246 NA
ATOM     26  N   UNL     1      35.069 -18.955 -23.974  0.00  0.00    -0.251 NA
ATOM     27  C   UNL     1      35.509 -17.070 -22.991  0.00  0.00    +0.125 C 
ATOM     28  C   UNL     1      34.738 -17.907 -24.788  0.00  0.00    +0.201 C 
ATOM     29  C   UNL     1      35.567 -18.432 -22.815  0.00  0.00    +0.124 C 
BRANCH  29  32
ATOM     30  O   UNL     1      35.504 -20.256 -21.311  0.00  0.00    -0.269 OA
ATOM     31  N   UNL     1      37.154 -18.714 -21.008  0.00  0.00    -0.324 N 
ATOM     32  C   UNL     1      36.031 -19.185 -21.698  0.00  0.00    +0.257 C 
ATOM     33  H   UNL     1      37.500 -19.212 -20.232  0.00  0.00    +0.145 HD
ATOM     34  H   UNL     1      37.599 -17.884 -21.299  0.00  0.00    +0.145 HD
ENDBRANCH  29  32
ENDBRANCH  24  25
BRANCH  24  35
ATOM     35  C   UNL     1      33.540 -15.367 -25.668  0.00  0.00    +0.153 C 
BRANCH  35  36
ATOM     36  O   UNL     1      33.943 -15.381 -27.033  0.00  0.00    -0.381 OA
ATOM     37  H   UNL     1      34.321 -16.247 -27.250  0.00  0.00    +0.210 HD
ENDBRANCH  35  36
ENDBRANCH  24  35
ENDBRANCH  23  24
ENDBRANCH  22  23
ENDBRANCH   1  22
TORSDOF 11
ENDMDL
