MODEL 1
REMARK VINA RESULT:     -12.5      0.000      0.000
REMARK  Name = 71245288
REMARK  5 active torsions:
REMARK  status: ('A' for Active; 'I' for Inactive)
REMARK    1  A    between atoms: C_3  and  C_9
REMARK    2  A    between atoms: C_6  and  N_14
REMARK    3  A    between atoms: C_15  and  C_18
REMARK    4  A    between atoms: C_22  and  C_30
REMARK    5  A    between atoms: N_27  and  C_32
REMARK                            x       y       z     vdW  Elec       q    Type
REMARK                         _______ _______ _______ _____ _____    ______ ____
ROOT
ATOM      1  O   UNL     1      32.987 -21.776 -19.949  0.00  0.00    -0.270 OA
ATOM      2  N   UNL     1      34.569 -22.111 -18.249  0.00  0.00    -0.259 N 
ATOM      3  C   UNL     1      34.129 -21.626 -19.489  0.00  0.00    +0.253 C 
ATOM      4  H   UNL     1      35.506 -21.913 -18.020  0.00  0.00    +0.157 HD
ATOM      5  N   UNL     1      34.471 -23.218 -16.146  0.00  0.00    -0.388 NA
ATOM      6  C   UNL     1      33.738 -23.921 -15.255  0.00  0.00    +0.166 C 
ATOM      7  C   UNL     1      33.843 -22.849 -17.284  0.00  0.00    +0.167 C 
ATOM      8  C   UNL     1      32.411 -24.270 -15.447  0.00  0.00    +0.031 C 
ATOM      9  C   UNL     1      32.520 -23.148 -17.571  0.00  0.00    +0.101 C 
ATOM     10  C   UNL     1      31.797 -23.873 -16.629  0.00  0.00    -0.015 C 
ENDROOT
BRANCH   3  15
ATOM     11  F   UNL     1      36.850 -21.555 -18.797  0.00  0.00    -0.204 F 
ATOM     12  C   UNL     1      35.635 -19.426 -22.121  0.00  0.00    +0.046 C 
ATOM     13  C   UNL     1      36.976 -19.422 -21.737  0.00  0.00    -0.006 C 
ATOM     14  C   UNL     1      34.700 -20.151 -21.382  0.00  0.00    +0.021 C 
ATOM     15  C   UNL     1      35.107 -20.871 -20.258  0.00  0.00    +0.082 C 
ATOM     16  C   UNL     1      37.382 -20.141 -20.614  0.00  0.00    +0.027 C 
ATOM     17  C   UNL     1      38.004 -18.654 -22.507  0.00  0.00    +0.032 C 
ATOM     18  C   UNL     1      36.447 -20.866 -19.875  0.00  0.00    +0.144 C 
BRANCH  12  20
ATOM     19  N   UNL     1      34.265 -18.302 -25.200  0.00  0.00    -0.255 NA
ATOM     20  N   UNL     1      35.211 -18.718 -23.233  0.00  0.00    -0.282 N 
ATOM     21  C   UNL     1      34.805 -17.151 -24.683  0.00  0.00    +0.053 C 
ATOM     22  C   UNL     1      35.397 -17.384 -23.464  0.00  0.00    +0.134 C 
ATOM     23  C   UNL     1      34.526 -19.227 -24.302  0.00  0.00    +0.219 C 
BRANCH  21  24
ATOM     24  C   UNL     1      34.750 -15.794 -25.377  0.00  0.00    +0.037 C 
ATOM     25  C   UNL     1      33.891 -14.716 -24.785  0.00  0.00    +0.006 C 
ATOM     26  C   UNL     1      33.480 -15.387 -26.063  0.00  0.00    +0.006 C 
ENDBRANCH  21  24
ENDBRANCH  12  20
ENDBRANCH   3  15
BRANCH   6  30
ATOM     27  N   UNL     1      35.698 -24.825 -14.046  0.00  0.00    -0.252 N 
ATOM     28  N   UNL     1      33.999 -24.182 -12.826  0.00  0.00    -0.129 NA
ATOM     29  N   UNL     1      34.987 -24.652 -11.985  0.00  0.00    -0.128 NA
ATOM     30  C   UNL     1      34.444 -24.295 -14.057  0.00  0.00    +0.188 C 
ATOM     31  C   UNL     1      35.997 -25.032 -12.733  0.00  0.00    +0.192 C 
BRANCH  27  32
ATOM     32  C   UNL     1      36.553 -25.115 -15.172  0.00  0.00    +0.080 C 
ATOM     33  C   UNL     1      37.902 -24.402 -15.053  0.00  0.00    +0.022 C 
ATOM     34  C   UNL     1      36.747 -26.621 -15.357  0.00  0.00    +0.022 C 
ENDBRANCH  27  32
ENDBRANCH   6  30
TORSDOF 5
ENDMDL
MODEL 2
REMARK VINA RESULT:     -12.0      3.257     11.024
REMARK  Name = 71245288
REMARK  5 active torsions:
REMARK  status: ('A' for Active; 'I' for Inactive)
REMARK    1  A    between atoms: C_3  and  C_9
REMARK    2  A    between atoms: C_6  and  N_14
REMARK    3  A    between atoms: C_15  and  C_18
REMARK    4  A    between atoms: C_22  and  C_30
REMARK    5  A    between atoms: N_27  and  C_32
REMARK                            x       y       z     vdW  Elec       q    Type
REMARK                         _______ _______ _______ _____ _____    ______ ____
ROOT
ATOM      1  O   UNL     1      34.906 -18.764 -24.669  0.00  0.00    -0.270 OA
ATOM      2  N   UNL     1      35.003 -16.780 -23.418  0.00  0.00    -0.259 N 
ATOM      3  C   UNL     1      35.152 -18.161 -23.613  0.00  0.00    +0.253 C 
ATOM      4  H   UNL     1      35.238 -16.446 -22.523  0.00  0.00    +0.157 HD
ATOM      5  N   UNL     1      34.488 -14.517 -23.937  0.00  0.00    -0.388 NA
ATOM      6  C   UNL     1      34.055 -13.621 -24.852  0.00  0.00    +0.166 C 
ATOM      7  C   UNL     1      34.555 -15.804 -24.341  0.00  0.00    +0.167 C 
ATOM      8  C   UNL     1      33.690 -13.952 -26.148  0.00  0.00    +0.031 C 
ATOM      9  C   UNL     1      34.214 -16.237 -25.613  0.00  0.00    +0.101 C 
ATOM     10  C   UNL     1      33.773 -15.286 -26.528  0.00  0.00    -0.015 C 
ENDROOT
BRANCH   3  15
ATOM     11  F   UNL     1      37.857 -18.088 -22.861  0.00  0.00    -0.204 F 
ATOM     12  C   UNL     1      35.282 -20.418 -20.625  0.00  0.00    +0.046 C 
ATOM     13  C   UNL     1      36.635 -20.349 -20.291  0.00  0.00    -0.006 C 
ATOM     14  C   UNL     1      34.796 -19.699 -21.717  0.00  0.00    +0.021 C 
ATOM     15  C   UNL     1      35.663 -18.910 -22.475  0.00  0.00    +0.082 C 
ATOM     16  C   UNL     1      37.501 -19.562 -21.049  0.00  0.00    +0.027 C 
ATOM     17  C   UNL     1      37.190 -21.108 -19.128  0.00  0.00    +0.032 C 
ATOM     18  C   UNL     1      37.015 -18.842 -22.141  0.00  0.00    +0.144 C 
BRANCH  12  20
ATOM     19  N   UNL     1      32.487 -21.988 -19.096  0.00  0.00    -0.255 NA
ATOM     20  N   UNL     1      34.406 -21.194 -19.886  0.00  0.00    -0.282 N 
ATOM     21  C   UNL     1      33.543 -22.654 -18.527  0.00  0.00    +0.053 C 
ATOM     22  C   UNL     1      34.744 -22.180 -19.002  0.00  0.00    +0.134 C 
ATOM     23  C   UNL     1      33.040 -21.116 -19.910  0.00  0.00    +0.219 C 
BRANCH  21  24
ATOM     24  C   UNL     1      33.396 -23.774 -17.503  0.00  0.00    +0.037 C 
ATOM     25  C   UNL     1      32.489 -23.559 -16.326  0.00  0.00    +0.006 C 
ATOM     26  C   UNL     1      33.978 -23.580 -16.134  0.00  0.00    +0.006 C 
ENDBRANCH  21  24
ENDBRANCH  12  20
ENDBRANCH   3  15
BRANCH   6  30
ATOM     27  N   UNL     1      33.249 -11.854 -23.321  0.00  0.00    -0.252 N 
ATOM     28  N   UNL     1      34.642 -11.236 -24.890  0.00  0.00    -0.129 NA
ATOM     29  N   UNL     1      34.307 -10.125 -24.143  0.00  0.00    -0.128 NA
ATOM     30  C   UNL     1      33.998 -12.262 -24.382  0.00  0.00    +0.188 C 
ATOM     31  C   UNL     1      33.472 -10.515 -23.207  0.00  0.00    +0.192 C 
BRANCH  27  32
ATOM     32  C   UNL     1      32.393 -12.651 -22.476  0.00  0.00    +0.080 C 
ATOM     33  C   UNL     1      33.192 -13.385 -21.396  0.00  0.00    +0.022 C 
ATOM     34  C   UNL     1      31.278 -11.810 -21.850  0.00  0.00    +0.022 C 
ENDBRANCH  27  32
ENDBRANCH   6  30
TORSDOF 5
ENDMDL
MODEL 3
REMARK VINA RESULT:     -11.4      1.647     10.778
REMARK  Name = 71245288
REMARK  5 active torsions:
REMARK  status: ('A' for Active; 'I' for Inactive)
REMARK    1  A    between atoms: C_3  and  C_9
REMARK    2  A    between atoms: C_6  and  N_14
REMARK    3  A    between atoms: C_15  and  C_18
REMARK    4  A    between atoms: C_22  and  C_30
REMARK    5  A    between atoms: N_27  and  C_32
REMARK                            x       y       z     vdW  Elec       q    Type
REMARK                         _______ _______ _______ _____ _____    ______ ____
ROOT
ATOM      1  O   UNL     1      37.055 -21.263 -19.015  0.00  0.00    -0.270 OA
ATOM      2  N   UNL     1      35.274 -20.608 -20.397  0.00  0.00    -0.259 N 
ATOM      3  C   UNL     1      35.850 -21.285 -19.311  0.00  0.00    +0.253 C 
ATOM      4  H   UNL     1      34.303 -20.722 -20.505  0.00  0.00    +0.157 HD
ATOM      5  N   UNL     1      35.153 -19.226 -22.329  0.00  0.00    -0.388 NA
ATOM      6  C   UNL     1      35.802 -18.448 -23.224  0.00  0.00    +0.166 C 
ATOM      7  C   UNL     1      35.909 -19.784 -21.358  0.00  0.00    +0.167 C 
ATOM      8  C   UNL     1      37.166 -18.203 -23.192  0.00  0.00    +0.031 C 
ATOM      9  C   UNL     1      37.277 -19.601 -21.239  0.00  0.00    +0.101 C 
ATOM     10  C   UNL     1      37.910 -18.794 -22.178  0.00  0.00    -0.015 C 
ENDROOT
BRANCH   3  15
ATOM     11  F   UNL     1      33.132 -21.576 -19.956  0.00  0.00    -0.204 F 
ATOM     12  C   UNL     1      34.514 -23.373 -16.503  0.00  0.00    +0.046 C 
ATOM     13  C   UNL     1      33.171 -23.489 -16.866  0.00  0.00    -0.006 C 
ATOM     14  C   UNL     1      35.393 -22.648 -17.307  0.00  0.00    +0.021 C 
ATOM     15  C   UNL     1      34.930 -22.040 -18.475  0.00  0.00    +0.082 C 
ATOM     16  C   UNL     1      32.709 -22.881 -18.031  0.00  0.00    +0.027 C 
ATOM     17  C   UNL     1      32.202 -24.258 -16.025  0.00  0.00    +0.032 C 
ATOM     18  C   UNL     1      33.589 -22.156 -18.836  0.00  0.00    +0.144 C 
BRANCH  12  20
ATOM     19  N   UNL     1      35.162 -24.507 -13.200  0.00  0.00    -0.255 NA
ATOM     20  N   UNL     1      34.993 -23.969 -15.349  0.00  0.00    -0.282 N 
ATOM     21  C   UNL     1      36.138 -25.144 -13.925  0.00  0.00    +0.053 C 
ATOM     22  C   UNL     1      36.054 -24.826 -15.259  0.00  0.00    +0.134 C 
ATOM     23  C   UNL     1      34.490 -23.808 -14.087  0.00  0.00    +0.219 C 
BRANCH  21  24
ATOM     24  C   UNL     1      37.178 -26.081 -13.318  0.00  0.00    +0.037 C 
ATOM     25  C   UNL     1      38.176 -25.519 -12.348  0.00  0.00    +0.006 C 
ATOM     26  C   UNL     1      38.614 -25.924 -13.726  0.00  0.00    +0.006 C 
ENDBRANCH  21  24
ENDBRANCH  12  20
ENDBRANCH   3  15
BRANCH   6  30
ATOM     27  N   UNL     1      34.703 -16.541 -24.352  0.00  0.00    -0.252 N 
ATOM     28  N   UNL     1      34.336 -18.527 -25.193  0.00  0.00    -0.129 NA
ATOM     29  N   UNL     1      33.646 -17.600 -25.948  0.00  0.00    -0.128 NA
ATOM     30  C   UNL     1      34.962 -17.873 -24.241  0.00  0.00    +0.188 C 
ATOM     31  C   UNL     1      33.879 -16.416 -25.430  0.00  0.00    +0.192 C 
BRANCH  27  32
ATOM     32  C   UNL     1      35.188 -15.467 -23.520  0.00  0.00    +0.080 C 
ATOM     33  C   UNL     1      34.652 -14.110 -23.983  0.00  0.00    +0.022 C 
ATOM     34  C   UNL     1      34.862 -15.707 -22.044  0.00  0.00    +0.022 C 
ENDBRANCH  27  32
ENDBRANCH   6  30
TORSDOF 5
ENDMDL
MODEL 4
REMARK VINA RESULT:     -11.4      5.498      9.161
REMARK  Name = 71245288
REMARK  5 active torsions:
REMARK  status: ('A' for Active; 'I' for Inactive)
REMARK    1  A    between atoms: C_3  and  C_9
REMARK    2  A    between atoms: C_6  and  N_14
REMARK    3  A    between atoms: C_15  and  C_18
REMARK    4  A    between atoms: C_22  and  C_30
REMARK    5  A    between atoms: N_27  and  C_32
REMARK                            x       y       z     vdW  Elec       q    Type
REMARK                         _______ _______ _______ _____ _____    ______ ____
ROOT
ATOM      1  O   UNL     1      33.698 -14.152 -24.040  0.00  0.00    -0.270 OA
ATOM      2  N   UNL     1      34.301 -15.170 -22.013  0.00  0.00    -0.259 N 
ATOM      3  C   UNL     1      33.737 -14.155 -22.800  0.00  0.00    +0.253 C 
ATOM      4  H   UNL     1      34.256 -15.030 -21.040  0.00  0.00    +0.157 HD
ATOM      5  N   UNL     1      35.404 -17.213 -21.497  0.00  0.00    -0.388 NA
ATOM      6  C   UNL     1      35.993 -18.342 -21.949  0.00  0.00    +0.166 C 
ATOM      7  C   UNL     1      34.926 -16.367 -22.437  0.00  0.00    +0.167 C 
ATOM      8  C   UNL     1      36.124 -18.665 -23.290  0.00  0.00    +0.031 C 
ATOM      9  C   UNL     1      35.007 -16.598 -23.801  0.00  0.00    +0.101 C 
ATOM     10  C   UNL     1      35.620 -17.771 -24.227  0.00  0.00    -0.015 C 
ENDROOT
BRANCH   3  15
ATOM     11  F   UNL     1      32.704 -14.450 -20.206  0.00  0.00    -0.204 F 
ATOM     12  C   UNL     1      32.488 -10.722 -21.969  0.00  0.00    +0.046 C 
ATOM     13  C   UNL     1      31.989 -10.918 -20.681  0.00  0.00    -0.006 C 
ATOM     14  C   UNL     1      33.062 -11.786 -22.665  0.00  0.00    +0.021 C 
ATOM     15  C   UNL     1      33.137 -13.047 -22.072  0.00  0.00    +0.082 C 
ATOM     16  C   UNL     1      32.063 -12.179 -20.090  0.00  0.00    +0.027 C 
ATOM     17  C   UNL     1      31.366  -9.800 -19.909  0.00  0.00    +0.032 C 
ATOM     18  C   UNL     1      32.637 -13.243 -20.785  0.00  0.00    +0.144 C 
BRANCH  12  20
ATOM     19  N   UNL     1      31.604  -7.763 -23.725  0.00  0.00    -0.255 NA
ATOM     20  N   UNL     1      32.424  -9.478 -22.575  0.00  0.00    -0.282 N 
ATOM     21  C   UNL     1      32.880  -7.483 -23.304  0.00  0.00    +0.053 C 
ATOM     22  C   UNL     1      33.409  -8.531 -22.590  0.00  0.00    +0.134 C 
ATOM     23  C   UNL     1      31.360  -8.972 -23.269  0.00  0.00    +0.219 C 
BRANCH  21  24
ATOM     24  C   UNL     1      33.608  -6.175 -23.597  0.00  0.00    +0.037 C 
ATOM     25  C   UNL     1      33.203  -5.380 -24.804  0.00  0.00    +0.006 C 
ATOM     26  C   UNL     1      34.516  -6.108 -24.790  0.00  0.00    +0.006 C 
ENDBRANCH  21  24
ENDBRANCH  12  20
ENDBRANCH   3  15
BRANCH   6  30
ATOM     27  N   UNL     1      35.853 -20.347 -20.506  0.00  0.00    -0.252 N 
ATOM     28  N   UNL     1      37.600 -19.058 -20.234  0.00  0.00    -0.129 NA
ATOM     29  N   UNL     1      37.695 -20.115 -19.351  0.00  0.00    -0.128 NA
ATOM     30  C   UNL     1      36.488 -19.215 -20.917  0.00  0.00    +0.188 C 
ATOM     31  C   UNL     1      36.640 -20.876 -19.529  0.00  0.00    +0.192 C 
BRANCH  27  32
ATOM     32  C   UNL     1      34.608 -20.895 -20.989  0.00  0.00    +0.080 C 
ATOM     33  C   UNL     1      34.206 -22.150 -20.211  0.00  0.00    +0.022 C 
ATOM     34  C   UNL     1      33.486 -19.854 -20.959  0.00  0.00    +0.022 C 
ENDBRANCH  27  32
ENDBRANCH   6  30
TORSDOF 5
ENDMDL
MODEL 5
REMARK VINA RESULT:     -11.3      2.901      5.274
REMARK  Name = 71245288
REMARK  5 active torsions:
REMARK  status: ('A' for Active; 'I' for Inactive)
REMARK    1  A    between atoms: C_3  and  C_9
REMARK    2  A    between atoms: C_6  and  N_14
REMARK    3  A    between atoms: C_15  and  C_18
REMARK    4  A    between atoms: C_22  and  C_30
REMARK    5  A    between atoms: N_27  and  C_32
REMARK                            x       y       z     vdW  Elec       q    Type
REMARK                         _______ _______ _______ _____ _____    ______ ____
ROOT
ATOM      1  O   UNL     1      37.235 -18.669 -22.458  0.00  0.00    -0.270 OA
ATOM      2  N   UNL     1      35.136 -19.371 -21.675  0.00  0.00    -0.259 N 
ATOM      3  C   UNL     1      35.995 -18.626 -22.496  0.00  0.00    +0.253 C 
ATOM      4  H   UNL     1      34.174 -19.229 -21.822  0.00  0.00    +0.157 HD
ATOM      5  N   UNL     1      34.475 -20.910 -19.986  0.00  0.00    -0.388 NA
ATOM      6  C   UNL     1      34.845 -21.788 -19.027  0.00  0.00    +0.166 C 
ATOM      7  C   UNL     1      35.474 -20.300 -20.661  0.00  0.00    +0.167 C 
ATOM      8  C   UNL     1      36.162 -22.083 -18.714  0.00  0.00    +0.031 C 
ATOM      9  C   UNL     1      36.820 -20.526 -20.424  0.00  0.00    +0.101 C 
ATOM     10  C   UNL     1      37.163 -21.436 -19.429  0.00  0.00    -0.015 C 
ENDROOT
BRANCH   3  15
ATOM     11  F   UNL     1      35.329 -19.522 -25.073  0.00  0.00    -0.204 F 
ATOM     12  C   UNL     1      34.419 -15.618 -24.079  0.00  0.00    +0.046 C 
ATOM     13  C   UNL     1      34.108 -16.110 -25.347  0.00  0.00    -0.006 C 
ATOM     14  C   UNL     1      35.040 -16.446 -23.143  0.00  0.00    +0.021 C 
ATOM     15  C   UNL     1      35.349 -17.765 -23.475  0.00  0.00    +0.082 C 
ATOM     16  C   UNL     1      34.418 -17.428 -25.679  0.00  0.00    +0.027 C 
ATOM     17  C   UNL     1      33.444 -15.249 -26.374  0.00  0.00    +0.032 C 
ATOM     18  C   UNL     1      35.037 -18.256 -24.742  0.00  0.00    +0.144 C 
BRANCH  12  20
ATOM     19  N   UNL     1      34.098 -12.092 -23.801  0.00  0.00    -0.255 NA
ATOM     20  N   UNL     1      34.122 -14.312 -23.729  0.00  0.00    -0.282 N 
ATOM     21  C   UNL     1      33.345 -12.538 -22.744  0.00  0.00    +0.053 C 
ATOM     22  C   UNL     1      33.344 -13.911 -22.679  0.00  0.00    +0.134 C 
ATOM     23  C   UNL     1      34.552 -13.185 -24.373  0.00  0.00    +0.219 C 
BRANCH  21  24
ATOM     24  C   UNL     1      32.607 -11.621 -21.774  0.00  0.00    +0.037 C 
ATOM     25  C   UNL     1      31.783 -12.241 -20.683  0.00  0.00    +0.006 C 
ATOM     26  C   UNL     1      31.110 -11.558 -21.839  0.00  0.00    +0.006 C 
ENDBRANCH  21  24
ENDBRANCH  12  20
ENDBRANCH   3  15
BRANCH   6  30
ATOM     27  N   UNL     1      33.893 -23.152 -17.196  0.00  0.00    -0.252 N 
ATOM     28  N   UNL     1      32.485 -22.374 -18.679  0.00  0.00    -0.129 NA
ATOM     29  N   UNL     1      31.776 -23.103 -17.745  0.00  0.00    -0.128 NA
ATOM     30  C   UNL     1      33.751 -22.416 -18.333  0.00  0.00    +0.188 C 
ATOM     31  C   UNL     1      32.637 -23.560 -16.865  0.00  0.00    +0.192 C 
BRANCH  27  32
ATOM     32  C   UNL     1      35.106 -23.450 -16.473  0.00  0.00    +0.080 C 
ATOM     33  C   UNL     1      35.411 -22.382 -15.420  0.00  0.00    +0.022 C 
ATOM     34  C   UNL     1      35.055 -24.842 -15.839  0.00  0.00    +0.022 C 
ENDBRANCH  27  32
ENDBRANCH   6  30
TORSDOF 5
ENDMDL
MODEL 6
REMARK VINA RESULT:     -11.1      2.834      5.204
REMARK  Name = 71245288
REMARK  5 active torsions:
REMARK  status: ('A' for Active; 'I' for Inactive)
REMARK    1  A    between atoms: C_3  and  C_9
REMARK    2  A    between atoms: C_6  and  N_14
REMARK    3  A    between atoms: C_15  and  C_18
REMARK    4  A    between atoms: C_22  and  C_30
REMARK    5  A    between atoms: N_27  and  C_32
REMARK                            x       y       z     vdW  Elec       q    Type
REMARK                         _______ _______ _______ _____ _____    ______ ____
ROOT
ATOM      1  O   UNL     1      37.266 -18.705 -22.450  0.00  0.00    -0.270 OA
ATOM      2  N   UNL     1      35.172 -19.430 -21.677  0.00  0.00    -0.259 N 
ATOM      3  C   UNL     1      36.026 -18.683 -22.501  0.00  0.00    +0.253 C 
ATOM      4  H   UNL     1      34.208 -19.307 -21.836  0.00  0.00    +0.157 HD
ATOM      5  N   UNL     1      34.519 -20.954 -19.971  0.00  0.00    -0.388 NA
ATOM      6  C   UNL     1      34.895 -21.810 -18.995  0.00  0.00    +0.166 C 
ATOM      7  C   UNL     1      35.515 -20.337 -20.645  0.00  0.00    +0.167 C 
ATOM      8  C   UNL     1      36.214 -22.078 -18.664  0.00  0.00    +0.031 C 
ATOM      9  C   UNL     1      36.862 -20.536 -20.392  0.00  0.00    +0.101 C 
ATOM     10  C   UNL     1      37.210 -21.425 -19.380  0.00  0.00    -0.015 C 
ENDROOT
BRANCH   3  15
ATOM     11  F   UNL     1      35.151 -19.702 -24.968  0.00  0.00    -0.204 F 
ATOM     12  C   UNL     1      34.543 -15.690 -24.198  0.00  0.00    +0.046 C 
ATOM     13  C   UNL     1      34.126 -16.243 -25.409  0.00  0.00    -0.006 C 
ATOM     14  C   UNL     1      35.168 -16.493 -23.243  0.00  0.00    +0.021 C 
ATOM     15  C   UNL     1      35.375 -17.849 -23.499  0.00  0.00    +0.082 C 
ATOM     16  C   UNL     1      34.334 -17.598 -25.666  0.00  0.00    +0.027 C 
ATOM     17  C   UNL     1      33.455 -15.411 -26.455  0.00  0.00    +0.032 C 
ATOM     18  C   UNL     1      34.958 -18.401 -24.710  0.00  0.00    +0.144 C 
BRANCH  12  20
ATOM     19  N   UNL     1      33.996 -12.491 -22.755  0.00  0.00    -0.255 NA
ATOM     20  N   UNL     1      34.347 -14.347 -23.924  0.00  0.00    -0.282 N 
ATOM     21  C   UNL     1      34.097 -12.195 -24.091  0.00  0.00    +0.053 C 
ATOM     22  C   UNL     1      34.315 -13.330 -24.837  0.00  0.00    +0.134 C 
ATOM     23  C   UNL     1      34.151 -13.795 -22.689  0.00  0.00    +0.219 C 
BRANCH  21  24
ATOM     24  C   UNL     1      33.982 -10.787 -24.666  0.00  0.00    +0.037 C 
ATOM     25  C   UNL     1      34.938  -9.734 -24.189  0.00  0.00    +0.006 C 
ATOM     26  C   UNL     1      33.496  -9.683 -23.774  0.00  0.00    +0.006 C 
ENDBRANCH  21  24
ENDBRANCH  12  20
ENDBRANCH   3  15
BRANCH   6  30
ATOM     27  N   UNL     1      33.952 -23.184 -17.167  0.00  0.00    -0.252 N 
ATOM     28  N   UNL     1      32.538 -22.410 -18.647  0.00  0.00    -0.129 NA
ATOM     29  N   UNL     1      31.834 -23.146 -17.715  0.00  0.00    -0.128 NA
ATOM     30  C   UNL     1      33.805 -22.446 -18.302  0.00  0.00    +0.188 C 
ATOM     31  C   UNL     1      32.698 -23.600 -16.836  0.00  0.00    +0.192 C 
BRANCH  27  32
ATOM     32  C   UNL     1      35.166 -23.477 -16.445  0.00  0.00    +0.080 C 
ATOM     33  C   UNL     1      35.459 -22.417 -15.381  0.00  0.00    +0.022 C 
ATOM     34  C   UNL     1      35.129 -24.876 -15.825  0.00  0.00    +0.022 C 
ENDBRANCH  27  32
ENDBRANCH   6  30
TORSDOF 5
ENDMDL
MODEL 7
REMARK VINA RESULT:     -11.1      1.996     10.630
REMARK  Name = 71245288
REMARK  5 active torsions:
REMARK  status: ('A' for Active; 'I' for Inactive)
REMARK    1  A    between atoms: C_3  and  C_9
REMARK    2  A    between atoms: C_6  and  N_14
REMARK    3  A    between atoms: C_15  and  C_18
REMARK    4  A    between atoms: C_22  and  C_30
REMARK    5  A    between atoms: N_27  and  C_32
REMARK                            x       y       z     vdW  Elec       q    Type
REMARK                         _______ _______ _______ _____ _____    ______ ____
ROOT
ATOM      1  O   UNL     1      36.704 -22.022 -20.203  0.00  0.00    -0.270 OA
ATOM      2  N   UNL     1      35.223 -20.203 -20.226  0.00  0.00    -0.259 N 
ATOM      3  C   UNL     1      35.676 -21.459 -19.798  0.00  0.00    +0.253 C 
ATOM      4  H   UNL     1      34.387 -19.886 -19.814  0.00  0.00    +0.157 HD
ATOM      5  N   UNL     1      35.196 -18.157 -21.440  0.00  0.00    -0.388 NA
ATOM      6  C   UNL     1      35.793 -17.359 -22.353  0.00  0.00    +0.166 C 
ATOM      7  C   UNL     1      35.809 -19.331 -21.176  0.00  0.00    +0.167 C 
ATOM      8  C   UNL     1      36.969 -17.679 -23.011  0.00  0.00    +0.031 C 
ATOM      9  C   UNL     1      36.987 -19.744 -21.779  0.00  0.00    +0.101 C 
ATOM     10  C   UNL     1      37.572 -18.896 -22.714  0.00  0.00    -0.015 C 
ENDROOT
BRANCH   3  15
ATOM     11  F   UNL     1      32.875 -21.585 -19.964  0.00  0.00    -0.204 F 
ATOM     12  C   UNL     1      34.708 -23.329 -16.699  0.00  0.00    +0.046 C 
ATOM     13  C   UNL     1      33.319 -23.366 -16.826  0.00  0.00    -0.006 C 
ATOM     14  C   UNL     1      35.482 -22.702 -17.676  0.00  0.00    +0.021 C 
ATOM     15  C   UNL     1      34.866 -22.112 -18.781  0.00  0.00    +0.082 C 
ATOM     16  C   UNL     1      32.704 -22.775 -17.929  0.00  0.00    +0.027 C 
ATOM     17  C   UNL     1      32.461 -24.029 -15.796  0.00  0.00    +0.032 C 
ATOM     18  C   UNL     1      33.478 -22.149 -18.907  0.00  0.00    +0.144 C 
BRANCH  12  20
ATOM     19  N   UNL     1      36.314 -25.458 -14.352  0.00  0.00    -0.255 NA
ATOM     20  N   UNL     1      35.339 -23.908 -15.611  0.00  0.00    -0.282 N 
ATOM     21  C   UNL     1      36.273 -24.261 -13.681  0.00  0.00    +0.053 C 
ATOM     22  C   UNL     1      35.672 -23.285 -14.441  0.00  0.00    +0.134 C 
ATOM     23  C   UNL     1      35.744 -25.211 -15.511  0.00  0.00    +0.219 C 
BRANCH  21  24
ATOM     24  C   UNL     1      36.823 -24.051 -12.274  0.00  0.00    +0.037 C 
ATOM     25  C   UNL     1      37.763 -22.907 -12.032  0.00  0.00    +0.006 C 
ATOM     26  C   UNL     1      38.278 -24.317 -12.023  0.00  0.00    +0.006 C 
ENDBRANCH  21  24
ENDBRANCH  12  20
ENDBRANCH   3  15
BRANCH   6  30
ATOM     27  N   UNL     1      34.694 -15.713 -23.837  0.00  0.00    -0.252 N 
ATOM     28  N   UNL     1      34.786 -15.213 -21.709  0.00  0.00    -0.129 NA
ATOM     29  N   UNL     1      34.144 -14.186 -22.371  0.00  0.00    -0.128 NA
ATOM     30  C   UNL     1      35.108 -16.118 -22.605  0.00  0.00    +0.188 C 
ATOM     31  C   UNL     1      34.098 -14.504 -23.645  0.00  0.00    +0.192 C 
BRANCH  27  32
ATOM     32  C   UNL     1      34.840 -16.401 -25.097  0.00  0.00    +0.080 C 
ATOM     33  C   UNL     1      34.284 -17.825 -25.029  0.00  0.00    +0.022 C 
ATOM     34  C   UNL     1      34.196 -15.619 -26.244  0.00  0.00    +0.022 C 
ENDBRANCH  27  32
ENDBRANCH   6  30
TORSDOF 5
ENDMDL
MODEL 8
REMARK VINA RESULT:     -10.7      1.046      1.701
REMARK  Name = 71245288
REMARK  5 active torsions:
REMARK  status: ('A' for Active; 'I' for Inactive)
REMARK    1  A    between atoms: C_3  and  C_9
REMARK    2  A    between atoms: C_6  and  N_14
REMARK    3  A    between atoms: C_15  and  C_18
REMARK    4  A    between atoms: C_22  and  C_30
REMARK    5  A    between atoms: N_27  and  C_32
REMARK                            x       y       z     vdW  Elec       q    Type
REMARK                         _______ _______ _______ _____ _____    ______ ____
ROOT
ATOM      1  O   UNL     1      33.265 -21.149 -19.561  0.00  0.00    -0.270 OA
ATOM      2  N   UNL     1      35.138 -22.182 -18.595  0.00  0.00    -0.259 N 
ATOM      3  C   UNL     1      34.492 -21.316 -19.490  0.00  0.00    +0.253 C 
ATOM      4  H   UNL     1      36.120 -22.207 -18.658  0.00  0.00    +0.157 HD
ATOM      5  N   UNL     1      35.381 -23.783 -16.853  0.00  0.00    -0.388 NA
ATOM      6  C   UNL     1      34.786 -24.571 -15.931  0.00  0.00    +0.166 C 
ATOM      7  C   UNL     1      34.562 -23.025 -17.614  0.00  0.00    +0.167 C 
ATOM      8  C   UNL     1      33.416 -24.635 -15.734  0.00  0.00    +0.031 C 
ATOM      9  C   UNL     1      33.181 -23.016 -17.496  0.00  0.00    +0.101 C 
ATOM     10  C   UNL     1      32.605 -23.840 -16.535  0.00  0.00    -0.015 C 
ENDROOT
BRANCH   3  15
ATOM     11  F   UNL     1      37.237 -21.001 -18.985  0.00  0.00    -0.204 F 
ATOM     12  C   UNL     1      35.664 -19.211 -22.359  0.00  0.00    +0.046 C 
ATOM     13  C   UNL     1      37.022 -19.083 -22.066  0.00  0.00    -0.006 C 
ATOM     14  C   UNL     1      34.834 -19.945 -21.512  0.00  0.00    +0.021 C 
ATOM     15  C   UNL     1      35.361 -20.551 -20.371  0.00  0.00    +0.082 C 
ATOM     16  C   UNL     1      37.549 -19.688 -20.925  0.00  0.00    +0.027 C 
ATOM     17  C   UNL     1      37.940 -18.302 -22.951  0.00  0.00    +0.032 C 
ATOM     18  C   UNL     1      36.718 -20.422 -20.078  0.00  0.00    +0.144 C 
BRANCH  12  20
ATOM     19  N   UNL     1      33.948 -18.392 -25.359  0.00  0.00    -0.255 NA
ATOM     20  N   UNL     1      35.121 -18.618 -23.486  0.00  0.00    -0.282 N 
ATOM     21  C   UNL     1      34.571 -17.210 -25.047  0.00  0.00    +0.053 C 
ATOM     22  C   UNL     1      35.305 -17.325 -23.890  0.00  0.00    +0.134 C 
ATOM     23  C   UNL     1      34.299 -19.219 -24.399  0.00  0.00    +0.219 C 
BRANCH  21  24
ATOM     24  C   UNL     1      34.460 -15.938 -25.882  0.00  0.00    +0.037 C 
ATOM     25  C   UNL     1      33.922 -14.696 -25.234  0.00  0.00    +0.006 C 
ATOM     26  C   UNL     1      33.095 -15.434 -26.247  0.00  0.00    +0.006 C 
ENDBRANCH  21  24
ENDBRANCH  12  20
ENDBRANCH   3  15
BRANCH   6  30
ATOM     27  N   UNL     1      36.151 -24.998 -13.913  0.00  0.00    -0.252 N 
ATOM     28  N   UNL     1      36.201 -26.527 -15.476  0.00  0.00    -0.129 NA
ATOM     29  N   UNL     1      37.016 -26.936 -14.440  0.00  0.00    -0.128 NA
ATOM     30  C   UNL     1      35.693 -25.363 -15.142  0.00  0.00    +0.188 C 
ATOM     31  C   UNL     1      36.973 -26.008 -13.512  0.00  0.00    +0.192 C 
BRANCH  27  32
ATOM     32  C   UNL     1      35.846 -23.800 -13.168  0.00  0.00    +0.080 C 
ATOM     33  C   UNL     1      34.751 -24.048 -12.127  0.00  0.00    +0.022 C 
ATOM     34  C   UNL     1      37.097 -23.211 -12.512  0.00  0.00    +0.022 C 
ENDBRANCH  27  32
ENDBRANCH   6  30
TORSDOF 5
ENDMDL
MODEL 9
REMARK VINA RESULT:      -9.7      2.106     10.174
REMARK  Name = 71245288
REMARK  5 active torsions:
REMARK  status: ('A' for Active; 'I' for Inactive)
REMARK    1  A    between atoms: C_3  and  C_9
REMARK    2  A    between atoms: C_6  and  N_14
REMARK    3  A    between atoms: C_15  and  C_18
REMARK    4  A    between atoms: C_22  and  C_30
REMARK    5  A    between atoms: N_27  and  C_32
REMARK                            x       y       z     vdW  Elec       q    Type
REMARK                         _______ _______ _______ _____ _____    ______ ____
ROOT
ATOM      1  O   UNL     1      35.722 -22.441 -20.739  0.00  0.00    -0.270 OA
ATOM      2  N   UNL     1      35.518 -20.201 -20.069  0.00  0.00    -0.259 N 
ATOM      3  C   UNL     1      35.678 -21.577 -19.849  0.00  0.00    +0.253 C 
ATOM      4  H   UNL     1      35.501 -19.638 -19.262  0.00  0.00    +0.157 HD
ATOM      5  N   UNL     1      35.233 -18.173 -21.280  0.00  0.00    -0.388 NA
ATOM      6  C   UNL     1      35.101 -17.564 -22.479  0.00  0.00    +0.166 C 
ATOM      7  C   UNL     1      35.376 -19.517 -21.301  0.00  0.00    +0.167 C 
ATOM      8  C   UNL     1      35.106 -18.232 -23.693  0.00  0.00    +0.031 C 
ATOM      9  C   UNL     1      35.395 -20.277 -22.460  0.00  0.00    +0.101 C 
ATOM     10  C   UNL     1      35.256 -19.614 -23.675  0.00  0.00    -0.015 C 
ENDROOT
BRANCH   3  15
ATOM     11  F   UNL     1      38.059 -21.175 -18.416  0.00  0.00    -0.204 F 
ATOM     12  C   UNL     1      34.901 -22.989 -16.467  0.00  0.00    +0.046 C 
ATOM     13  C   UNL     1      36.104 -22.767 -15.797  0.00  0.00    -0.006 C 
ATOM     14  C   UNL     1      34.762 -22.597 -17.799  0.00  0.00    +0.021 C 
ATOM     15  C   UNL     1      35.826 -21.984 -18.461  0.00  0.00    +0.082 C 
ATOM     16  C   UNL     1      37.168 -22.156 -16.459  0.00  0.00    +0.027 C 
ATOM     17  C   UNL     1      36.287 -23.176 -14.370  0.00  0.00    +0.032 C 
ATOM     18  C   UNL     1      37.029 -21.764 -17.790  0.00  0.00    +0.144 C 
BRANCH  12  20
ATOM     19  N   UNL     1      32.704 -25.049 -14.584  0.00  0.00    -0.255 NA
ATOM     20  N   UNL     1      33.832 -23.595 -15.829  0.00  0.00    -0.282 N 
ATOM     21  C   UNL     1      31.853 -24.095 -15.084  0.00  0.00    +0.053 C 
ATOM     22  C   UNL     1      32.529 -23.183 -15.860  0.00  0.00    +0.134 C 
ATOM     23  C   UNL     1      33.887 -24.719 -15.051  0.00  0.00    +0.219 C 
BRANCH  21  24
ATOM     24  C   UNL     1      30.353 -24.060 -14.810  0.00  0.00    +0.037 C 
ATOM     25  C   UNL     1      29.541 -25.291 -15.089  0.00  0.00    +0.006 C 
ATOM     26  C   UNL     1      29.407 -24.086 -15.974  0.00  0.00    +0.006 C 
ENDBRANCH  21  24
ENDBRANCH  12  20
ENDBRANCH   3  15
BRANCH   6  30
ATOM     27  N   UNL     1      34.594 -15.356 -23.472  0.00  0.00    -0.252 N 
ATOM     28  N   UNL     1      35.127 -15.383 -21.350  0.00  0.00    -0.129 NA
ATOM     29  N   UNL     1      34.882 -14.076 -21.721  0.00  0.00    -0.128 NA
ATOM     30  C   UNL     1      34.951 -16.134 -22.413  0.00  0.00    +0.188 C 
ATOM     31  C   UNL     1      34.563 -14.080 -22.995  0.00  0.00    +0.192 C 
BRANCH  27  32
ATOM     32  C   UNL     1      34.304 -15.769 -24.823  0.00  0.00    +0.080 C 
ATOM     33  C   UNL     1      33.398 -14.763 -25.537  0.00  0.00    +0.022 C 
ATOM     34  C   UNL     1      35.584 -16.013 -25.625  0.00  0.00    +0.022 C 
ENDBRANCH  27  32
ENDBRANCH   6  30
TORSDOF 5
ENDMDL
