MODEL 1
REMARK VINA RESULT:     -12.2      0.000      0.000
REMARK  Name = 24996872
REMARK  6 active torsions:
REMARK  status: ('A' for Active; 'I' for Inactive)
REMARK    1  A    between atoms: O_1  and  C_3
REMARK    2  A    between atoms: O_1  and  C_18
REMARK    3  A    between atoms: C_7  and  C_8
REMARK    4  A    between atoms: C_11  and  S_14
REMARK    5  A    between atoms: C_18  and  C_23
REMARK    6  A    between atoms: C_29  and  C_30
REMARK                            x       y       z     vdW  Elec       q    Type
REMARK                         _______ _______ _______ _____ _____    ______ ____
ROOT
ATOM      1  O   UNL     1      35.001 -19.015 -22.744  0.00  0.00    -0.474 OA
ENDROOT
BRANCH   1   3
ATOM      2  N   UNL     1      36.700 -20.545 -19.884  0.00  0.00    -0.241 NA
ATOM      3  C   UNL     1      35.198 -19.768 -21.613  0.00  0.00    +0.158 C 
ATOM      4  C   UNL     1      34.158 -20.498 -21.048  0.00  0.00    +0.040 C 
ATOM      5  C   UNL     1      36.439 -19.824 -20.998  0.00  0.00    +0.136 C 
ATOM      6  C   UNL     1      34.388 -21.252 -19.902  0.00  0.00    +0.022 C 
ATOM      7  C   UNL     1      35.664 -21.241 -19.364  0.00  0.00    +0.082 C 
BRANCH   7   8
ATOM      8  C   UNL     1      35.976 -22.000 -18.176  0.00  0.00    +0.018 C 
ATOM      9  C   UNL     1      37.256 -21.938 -17.624  0.00  0.00    +0.003 C 
ATOM     10  C   UNL     1      34.997 -22.794 -17.579  0.00  0.00    +0.003 C 
ATOM     11  C   UNL     1      36.577 -23.466 -15.879  0.00  0.00    +0.106 C 
ATOM     12  C   UNL     1      37.555 -22.672 -16.476  0.00  0.00    +0.018 C 
ATOM     13  C   UNL     1      35.297 -23.527 -16.431  0.00  0.00    +0.018 C 
BRANCH  11  14
ATOM     14  S   UNL     1      36.952 -24.383 -14.442  0.00  0.00    +0.010 S 
ATOM     15  O   UNL     1      38.160 -23.820 -13.854  0.00  0.00    -0.169 OA
ATOM     16  O   UNL     1      35.747 -24.510 -13.634  0.00  0.00    -0.169 OA
ATOM     17  C   UNL     1      37.345 -26.009 -15.046  0.00  0.00    +0.182 C 
ENDBRANCH  11  14
ENDBRANCH   7   8
ENDBRANCH   1   3
BRANCH   1  18
ATOM     18  C   UNL     1      36.082 -18.210 -23.177  0.00  0.00    +0.205 C 
BRANCH  18  23
ATOM     19  O   UNL     1      32.482 -12.921 -22.893  0.00  0.00    -0.296 OA
ATOM     20  N   UNL     1      33.975 -14.584 -22.194  0.00  0.00    -0.251 N 
ATOM     21  N   UNL     1      32.928 -12.947 -20.698  0.00  0.00    -0.300 NA
ATOM     22  N   UNL     1      31.736 -11.876 -22.331  0.00  0.00    -0.010 NA
ATOM     23  C   UNL     1      35.785 -16.759 -22.808  0.00  0.00    +0.047 C 
ATOM     24  C   UNL     1      35.050 -16.678 -21.466  0.00  0.00    +0.025 C 
ATOM     25  C   UNL     1      34.942 -16.081 -23.893  0.00  0.00    +0.025 C 
ATOM     26  C   UNL     1      34.711 -15.233 -21.101  0.00  0.00    +0.096 C 
ATOM     27  C   UNL     1      34.598 -14.639 -23.521  0.00  0.00    +0.096 C 
ATOM     28  C   UNL     1      33.153 -13.499 -21.864  0.00  0.00    +0.379 C 
ATOM     29  C   UNL     1      32.052 -11.957 -21.035  0.00  0.00    +0.104 C 
BRANCH  29  30
ATOM     30  C   UNL     1      31.490 -11.038 -20.041  0.00  0.00    +0.101 C 
ATOM     31  C   UNL     1      31.699 -11.513 -18.579  0.00  0.00    +0.017 C 
ATOM     32  C   UNL     1      32.022  -9.588 -20.175  0.00  0.00    +0.017 C 
ENDBRANCH  29  30
ENDBRANCH  18  23
ENDBRANCH   1  18
TORSDOF 6
ENDMDL
MODEL 2
REMARK VINA RESULT:     -12.2      2.938      4.060
REMARK  Name = 24996872
REMARK  6 active torsions:
REMARK  status: ('A' for Active; 'I' for Inactive)
REMARK    1  A    between atoms: O_1  and  C_3
REMARK    2  A    between atoms: O_1  and  C_18
REMARK    3  A    between atoms: C_7  and  C_8
REMARK    4  A    between atoms: C_11  and  S_14
REMARK    5  A    between atoms: C_18  and  C_23
REMARK    6  A    between atoms: C_29  and  C_30
REMARK                            x       y       z     vdW  Elec       q    Type
REMARK                         _______ _______ _______ _____ _____    ______ ____
ROOT
ATOM      1  O   UNL     1      35.517 -16.024 -24.589  0.00  0.00    -0.474 OA
ENDROOT
BRANCH   1   3
ATOM      2  N   UNL     1      35.230 -17.932 -21.477  0.00  0.00    -0.241 NA
ATOM      3  C   UNL     1      35.300 -17.081 -23.739  0.00  0.00    +0.158 C 
ATOM      4  C   UNL     1      34.945 -18.332 -24.229  0.00  0.00    +0.040 C 
ATOM      5  C   UNL     1      35.429 -16.934 -22.367  0.00  0.00    +0.136 C 
ATOM      6  C   UNL     1      34.733 -19.385 -23.344  0.00  0.00    +0.022 C 
ATOM      7  C   UNL     1      34.886 -19.134 -21.990  0.00  0.00    +0.082 C 
BRANCH   7   8
ATOM      8  C   UNL     1      34.681 -20.178 -21.014  0.00  0.00    +0.018 C 
ATOM      9  C   UNL     1      35.778 -20.827 -20.447  0.00  0.00    +0.003 C 
ATOM     10  C   UNL     1      33.387 -20.536 -20.637  0.00  0.00    +0.003 C 
ATOM     11  C   UNL     1      34.285 -22.194 -19.126  0.00  0.00    +0.106 C 
ATOM     12  C   UNL     1      35.579 -21.835 -19.504  0.00  0.00    +0.018 C 
ATOM     13  C   UNL     1      33.189 -21.544 -19.694  0.00  0.00    +0.018 C 
BRANCH  11  14
ATOM     14  S   UNL     1      34.037 -23.455 -17.946  0.00  0.00    +0.010 S 
ATOM     15  O   UNL     1      33.744 -24.689 -18.663  0.00  0.00    -0.169 OA
ATOM     16  O   UNL     1      35.128 -23.422 -16.982  0.00  0.00    -0.169 OA
ATOM     17  C   UNL     1      32.563 -22.966 -17.078  0.00  0.00    +0.182 C 
ENDBRANCH  11  14
ENDBRANCH   7   8
ENDBRANCH   1   3
BRANCH   1  18
ATOM     18  C   UNL     1      34.382 -15.281 -24.994  0.00  0.00    +0.205 C 
BRANCH  18  23
ATOM     19  O   UNL     1      32.747  -9.117 -24.400  0.00  0.00    -0.296 OA
ATOM     20  N   UNL     1      33.409 -11.271 -23.760  0.00  0.00    -0.251 N 
ATOM     21  N   UNL     1      32.637  -9.540 -22.203  0.00  0.00    -0.300 NA
ATOM     22  N   UNL     1      32.275  -7.943 -23.800  0.00  0.00    -0.010 NA
ATOM     23  C   UNL     1      34.498 -13.869 -24.426  0.00  0.00    +0.047 C 
ATOM     24  C   UNL     1      33.539 -13.676 -23.246  0.00  0.00    +0.025 C 
ATOM     25  C   UNL     1      34.200 -12.821 -25.502  0.00  0.00    +0.025 C 
ATOM     26  C   UNL     1      33.616 -12.255 -22.689  0.00  0.00    +0.096 C 
ATOM     27  C   UNL     1      34.270 -11.401 -24.940  0.00  0.00    +0.096 C 
ATOM     28  C   UNL     1      32.934 -10.006 -23.390  0.00  0.00    +0.379 C 
ATOM     29  C   UNL     1      32.237  -8.272 -22.505  0.00  0.00    +0.104 C 
BRANCH  29  30
ATOM     30  C   UNL     1      31.792  -7.326 -21.477  0.00  0.00    +0.101 C 
ATOM     31  C   UNL     1      32.884  -7.007 -20.423  0.00  0.00    +0.017 C 
ATOM     32  C   UNL     1      31.255  -5.993 -22.058  0.00  0.00    +0.017 C 
ENDBRANCH  29  30
ENDBRANCH  18  23
ENDBRANCH   1  18
TORSDOF 6
ENDMDL
MODEL 3
REMARK VINA RESULT:     -12.0      4.202     11.255
REMARK  Name = 24996872
REMARK  6 active torsions:
REMARK  status: ('A' for Active; 'I' for Inactive)
REMARK    1  A    between atoms: O_1  and  C_3
REMARK    2  A    between atoms: O_1  and  C_18
REMARK    3  A    between atoms: C_7  and  C_8
REMARK    4  A    between atoms: C_11  and  S_14
REMARK    5  A    between atoms: C_18  and  C_23
REMARK    6  A    between atoms: C_29  and  C_30
REMARK                            x       y       z     vdW  Elec       q    Type
REMARK                         _______ _______ _______ _____ _____    ______ ____
ROOT
ATOM      1  O   UNL     1      35.757 -18.507 -23.352  0.00  0.00    -0.474 OA
ENDROOT
BRANCH   1   3
ATOM      2  N   UNL     1      34.767 -15.171 -22.214  0.00  0.00    -0.241 NA
ATOM      3  C   UNL     1      35.295 -17.214 -23.394  0.00  0.00    +0.158 C 
ATOM      4  C   UNL     1      34.895 -16.634 -24.592  0.00  0.00    +0.040 C 
ATOM      5  C   UNL     1      35.212 -16.447 -22.242  0.00  0.00    +0.136 C 
ATOM      6  C   UNL     1      34.431 -15.323 -24.603  0.00  0.00    +0.022 C 
ATOM      7  C   UNL     1      34.387 -14.641 -23.398  0.00  0.00    +0.082 C 
BRANCH   7   8
ATOM      8  C   UNL     1      33.917 -13.277 -23.333  0.00  0.00    +0.018 C 
ATOM      9  C   UNL     1      34.397 -12.330 -24.238  0.00  0.00    +0.003 C 
ATOM     10  C   UNL     1      32.983 -12.907 -22.367  0.00  0.00    +0.003 C 
ATOM     11  C   UNL     1      33.008 -10.643 -23.208  0.00  0.00    +0.106 C 
ATOM     12  C   UNL     1      33.943 -11.013 -24.175  0.00  0.00    +0.018 C 
ATOM     13  C   UNL     1      32.528 -11.590 -22.303  0.00  0.00    +0.018 C 
BRANCH  11  14
ATOM     14  S   UNL     1      32.439  -8.995 -23.129  0.00  0.00    +0.010 S 
ATOM     15  O   UNL     1      33.410  -8.151 -23.814  0.00  0.00    -0.169 OA
ATOM     16  O   UNL     1      31.040  -8.957 -23.532  0.00  0.00    -0.169 OA
ATOM     17  C   UNL     1      32.490  -8.591 -21.398  0.00  0.00    +0.182 C 
ENDBRANCH  11  14
ENDBRANCH   7   8
ENDBRANCH   1   3
BRANCH   1  18
ATOM     18  C   UNL     1      36.404 -18.921 -22.164  0.00  0.00    +0.205 C 
BRANCH  18  23
ATOM     19  O   UNL     1      34.601 -23.010 -17.576  0.00  0.00    -0.296 OA
ATOM     20  N   UNL     1      34.426 -21.625 -19.457  0.00  0.00    -0.251 N 
ATOM     21  N   UNL     1      32.511 -22.578 -18.257  0.00  0.00    -0.300 NA
ATOM     22  N   UNL     1      33.753 -23.691 -16.692  0.00  0.00    -0.010 NA
ATOM     23  C   UNL     1      35.666 -20.136 -21.607  0.00  0.00    +0.047 C 
ATOM     24  C   UNL     1      34.308 -19.729 -21.025  0.00  0.00    +0.025 C 
ATOM     25  C   UNL     1      36.498 -20.832 -20.525  0.00  0.00    +0.025 C 
ATOM     26  C   UNL     1      33.573 -20.929 -20.430  0.00  0.00    +0.096 C 
ATOM     27  C   UNL     1      35.756 -22.027 -19.926  0.00  0.00    +0.096 C 
ATOM     28  C   UNL     1      33.788 -22.381 -18.465  0.00  0.00    +0.379 C 
ATOM     29  C   UNL     1      32.539 -23.387 -17.159  0.00  0.00    +0.104 C 
BRANCH  29  30
ATOM     30  C   UNL     1      31.315 -23.893 -16.529  0.00  0.00    +0.101 C 
ATOM     31  C   UNL     1      31.514 -24.308 -15.048  0.00  0.00    +0.017 C 
ATOM     32  C   UNL     1      30.126 -22.904 -16.615  0.00  0.00    +0.017 C 
ENDBRANCH  29  30
ENDBRANCH  18  23
ENDBRANCH   1  18
TORSDOF 6
ENDMDL
MODEL 4
REMARK VINA RESULT:     -11.8      2.093      2.648
REMARK  Name = 24996872
REMARK  6 active torsions:
REMARK  status: ('A' for Active; 'I' for Inactive)
REMARK    1  A    between atoms: O_1  and  C_3
REMARK    2  A    between atoms: O_1  and  C_18
REMARK    3  A    between atoms: C_7  and  C_8
REMARK    4  A    between atoms: C_11  and  S_14
REMARK    5  A    between atoms: C_18  and  C_23
REMARK    6  A    between atoms: C_29  and  C_30
REMARK                            x       y       z     vdW  Elec       q    Type
REMARK                         _______ _______ _______ _____ _____    ______ ____
ROOT
ATOM      1  O   UNL     1      34.387 -19.649 -22.258  0.00  0.00    -0.474 OA
ENDROOT
BRANCH   1   3
ATOM      2  N   UNL     1      36.476 -20.923 -19.535  0.00  0.00    -0.241 NA
ATOM      3  C   UNL     1      34.750 -20.321 -21.117  0.00  0.00    +0.158 C 
ATOM      4  C   UNL     1      33.820 -21.060 -20.395  0.00  0.00    +0.040 C 
ATOM      5  C   UNL     1      36.054 -20.284 -20.650  0.00  0.00    +0.136 C 
ATOM      6  C   UNL     1      34.217 -21.731 -19.243  0.00  0.00    +0.022 C 
ATOM      7  C   UNL     1      35.544 -21.631 -18.859  0.00  0.00    +0.082 C 
BRANCH   7   8
ATOM      8  C   UNL     1      36.027 -22.300 -17.675  0.00  0.00    +0.018 C 
ATOM      9  C   UNL     1      37.368 -22.187 -17.307  0.00  0.00    +0.003 C 
ATOM     10  C   UNL     1      35.153 -23.058 -16.897  0.00  0.00    +0.003 C 
ATOM     11  C   UNL     1      36.960 -23.593 -15.385  0.00  0.00    +0.106 C 
ATOM     12  C   UNL     1      37.834 -22.834 -16.163  0.00  0.00    +0.018 C 
ATOM     13  C   UNL     1      35.618 -23.705 -15.752  0.00  0.00    +0.018 C 
BRANCH  11  14
ATOM     14  S   UNL     1      37.543 -24.402 -13.953  0.00  0.00    +0.010 S 
ATOM     15  O   UNL     1      36.660 -25.529 -13.683  0.00  0.00    -0.169 OA
ATOM     16  O   UNL     1      38.976 -24.623 -14.085  0.00  0.00    -0.169 OA
ATOM     17  C   UNL     1      37.320 -23.211 -12.650  0.00  0.00    +0.182 C 
ENDBRANCH  11  14
ENDBRANCH   7   8
ENDBRANCH   1   3
BRANCH   1  18
ATOM     18  C   UNL     1      35.298 -19.683 -23.342  0.00  0.00    +0.205 C 
BRANCH  18  23
ATOM     19  O   UNL     1      33.702 -14.070 -25.983  0.00  0.00    -0.296 OA
ATOM     20  N   UNL     1      34.680 -15.573 -24.477  0.00  0.00    -0.251 N 
ATOM     21  N   UNL     1      34.499 -13.157 -24.099  0.00  0.00    -0.300 NA
ATOM     22  N   UNL     1      33.444 -12.696 -26.076  0.00  0.00    -0.010 NA
ATOM     23  C   UNL     1      35.554 -18.250 -23.805  0.00  0.00    +0.047 C 
ATOM     24  C   UNL     1      35.135 -17.246 -22.726  0.00  0.00    +0.025 C 
ATOM     25  C   UNL     1      34.795 -17.952 -25.102  0.00  0.00    +0.025 C 
ATOM     26  C   UNL     1      35.350 -15.806 -23.190  0.00  0.00    +0.096 C 
ATOM     27  C   UNL     1      35.006 -16.508 -25.559  0.00  0.00    +0.096 C 
ATOM     28  C   UNL     1      34.324 -14.256 -24.789  0.00  0.00    +0.379 C 
ATOM     29  C   UNL     1      33.943 -12.227 -24.928  0.00  0.00    +0.104 C 
BRANCH  29  30
ATOM     30  C   UNL     1      33.894 -10.803 -24.585  0.00  0.00    +0.101 C 
ATOM     31  C   UNL     1      33.184 -10.521 -23.235  0.00  0.00    +0.017 C 
ATOM     32  C   UNL     1      35.288 -10.126 -24.567  0.00  0.00    +0.017 C 
ENDBRANCH  29  30
ENDBRANCH  18  23
ENDBRANCH   1  18
TORSDOF 6
ENDMDL
MODEL 5
REMARK VINA RESULT:     -11.5      4.131     11.412
REMARK  Name = 24996872
REMARK  6 active torsions:
REMARK  status: ('A' for Active; 'I' for Inactive)
REMARK    1  A    between atoms: O_1  and  C_3
REMARK    2  A    between atoms: O_1  and  C_18
REMARK    3  A    between atoms: C_7  and  C_8
REMARK    4  A    between atoms: C_11  and  S_14
REMARK    5  A    between atoms: C_18  and  C_23
REMARK    6  A    between atoms: C_29  and  C_30
REMARK                            x       y       z     vdW  Elec       q    Type
REMARK                         _______ _______ _______ _____ _____    ______ ____
ROOT
ATOM      1  O   UNL     1      35.848 -18.313 -23.490  0.00  0.00    -0.474 OA
ENDROOT
BRANCH   1   3
ATOM      2  N   UNL     1      34.830 -15.003 -22.302  0.00  0.00    -0.241 NA
ATOM      3  C   UNL     1      35.355 -17.031 -23.509  0.00  0.00    +0.158 C 
ATOM      4  C   UNL     1      34.892 -16.459 -24.688  0.00  0.00    +0.040 C 
ATOM      5  C   UNL     1      35.303 -16.268 -22.353  0.00  0.00    +0.136 C 
ATOM      6  C   UNL     1      34.397 -15.159 -24.676  0.00  0.00    +0.022 C 
ATOM      7  C   UNL     1      34.388 -14.480 -23.468  0.00  0.00    +0.082 C 
BRANCH   7   8
ATOM      8  C   UNL     1      33.890 -13.128 -23.380  0.00  0.00    +0.018 C 
ATOM      9  C   UNL     1      34.386 -12.144 -24.236  0.00  0.00    +0.003 C 
ATOM     10  C   UNL     1      32.911 -12.805 -22.441  0.00  0.00    +0.003 C 
ATOM     11  C   UNL     1      32.925 -10.516 -23.211  0.00  0.00    +0.106 C 
ATOM     12  C   UNL     1      33.903 -10.839 -24.151  0.00  0.00    +0.018 C 
ATOM     13  C   UNL     1      32.429 -11.500 -22.355  0.00  0.00    +0.018 C 
BRANCH  11  14
ATOM     14  S   UNL     1      32.321  -8.882 -23.104  0.00  0.00    +0.010 S 
ATOM     15  O   UNL     1      33.186  -8.030 -23.911  0.00  0.00    -0.169 OA
ATOM     16  O   UNL     1      30.885  -8.891 -23.349  0.00  0.00    -0.169 OA
ATOM     17  C   UNL     1      32.553  -8.435 -21.398  0.00  0.00    +0.182 C 
ENDBRANCH  11  14
ENDBRANCH   7   8
ENDBRANCH   1   3
BRANCH   1  18
ATOM     18  C   UNL     1      34.908 -19.363 -23.362  0.00  0.00    +0.205 C 
BRANCH  18  23
ATOM     19  O   UNL     1      32.841 -22.819 -18.382  0.00  0.00    -0.296 OA
ATOM     20  N   UNL     1      34.298 -21.540 -19.695  0.00  0.00    -0.251 N 
ATOM     21  N   UNL     1      34.983 -22.832 -17.726  0.00  0.00    -0.300 NA
ATOM     22  N   UNL     1      32.897 -23.640 -17.247  0.00  0.00    -0.010 NA
ATOM     23  C   UNL     1      34.751 -19.695 -21.880  0.00  0.00    +0.047 C 
ATOM     24  C   UNL     1      35.828 -20.687 -21.427  0.00  0.00    +0.025 C 
ATOM     25  C   UNL     1      33.365 -20.282 -21.595  0.00  0.00    +0.025 C 
ATOM     26  C   UNL     1      35.662 -21.059 -19.954  0.00  0.00    +0.096 C 
ATOM     27  C   UNL     1      33.205 -20.661 -20.123  0.00  0.00    +0.096 C 
ATOM     28  C   UNL     1      34.111 -22.386 -18.595  0.00  0.00    +0.379 C 
ATOM     29  C   UNL     1      34.192 -23.597 -16.920  0.00  0.00    +0.104 C 
BRANCH  29  30
ATOM     30  C   UNL     1      34.726 -24.328 -15.767  0.00  0.00    +0.101 C 
ATOM     31  C   UNL     1      36.082 -23.770 -15.261  0.00  0.00    +0.017 C 
ATOM     32  C   UNL     1      33.740 -24.399 -14.574  0.00  0.00    +0.017 C 
ENDBRANCH  29  30
ENDBRANCH  18  23
ENDBRANCH   1  18
TORSDOF 6
ENDMDL
MODEL 6
REMARK VINA RESULT:     -11.4      3.221      4.070
REMARK  Name = 24996872
REMARK  6 active torsions:
REMARK  status: ('A' for Active; 'I' for Inactive)
REMARK    1  A    between atoms: O_1  and  C_3
REMARK    2  A    between atoms: O_1  and  C_18
REMARK    3  A    between atoms: C_7  and  C_8
REMARK    4  A    between atoms: C_11  and  S_14
REMARK    5  A    between atoms: C_18  and  C_23
REMARK    6  A    between atoms: C_29  and  C_30
REMARK                            x       y       z     vdW  Elec       q    Type
REMARK                         _______ _______ _______ _____ _____    ______ ____
ROOT
ATOM      1  O   UNL     1      36.600 -20.348 -20.728  0.00  0.00    -0.474 OA
ENDROOT
BRANCH   1   3
ATOM      2  N   UNL     1      37.445 -21.424 -17.332  0.00  0.00    -0.241 NA
ATOM      3  C   UNL     1      36.517 -21.006 -19.526  0.00  0.00    +0.158 C 
ATOM      4  C   UNL     1      35.478 -21.891 -19.263  0.00  0.00    +0.040 C 
ATOM      5  C   UNL     1      37.467 -20.809 -18.536  0.00  0.00    +0.136 C 
ATOM      6  C   UNL     1      35.421 -22.544 -18.036  0.00  0.00    +0.022 C 
ATOM      7  C   UNL     1      36.419 -22.277 -17.113  0.00  0.00    +0.082 C 
BRANCH   7   8
ATOM      8  C   UNL     1      36.424 -22.917 -15.819  0.00  0.00    +0.018 C 
ATOM      9  C   UNL     1      35.225 -23.338 -15.244  0.00  0.00    +0.003 C 
ATOM     10  C   UNL     1      37.628 -23.116 -15.144  0.00  0.00    +0.003 C 
ATOM     11  C   UNL     1      36.435 -24.155 -13.319  0.00  0.00    +0.106 C 
ATOM     12  C   UNL     1      35.231 -23.956 -13.994  0.00  0.00    +0.018 C 
ATOM     13  C   UNL     1      37.635 -23.734 -13.894  0.00  0.00    +0.018 C 
BRANCH  11  14
ATOM     14  S   UNL     1      36.442 -24.929 -11.754  0.00  0.00    +0.010 S 
ATOM     15  O   UNL     1      37.247 -24.113 -10.854  0.00  0.00    -0.169 OA
ATOM     16  O   UNL     1      35.074 -25.272 -11.390  0.00  0.00    -0.169 OA
ATOM     17  C   UNL     1      37.306 -26.461 -12.022  0.00  0.00    +0.182 C 
ENDBRANCH  11  14
ENDBRANCH   7   8
ENDBRANCH   1   3
BRANCH   1  18
ATOM     18  C   UNL     1      35.384 -20.089 -21.405  0.00  0.00    +0.205 C 
BRANCH  18  23
ATOM     19  O   UNL     1      33.839 -16.444 -26.440  0.00  0.00    -0.296 OA
ATOM     20  N   UNL     1      34.769 -17.026 -24.370  0.00  0.00    -0.251 N 
ATOM     21  N   UNL     1      34.544 -14.725 -25.189  0.00  0.00    -0.300 NA
ATOM     22  N   UNL     1      33.570 -15.286 -27.181  0.00  0.00    -0.010 NA
ATOM     23  C   UNL     1      35.643 -19.039 -22.483  0.00  0.00    +0.047 C 
ATOM     24  C   UNL     1      35.167 -17.657 -22.023  0.00  0.00    +0.025 C 
ATOM     25  C   UNL     1      34.938 -19.413 -23.790  0.00  0.00    +0.025 C 
ATOM     26  C   UNL     1      35.385 -16.602 -23.106  0.00  0.00    +0.096 C 
ATOM     27  C   UNL     1      35.151 -18.351 -24.869  0.00  0.00    +0.096 C 
ATOM     28  C   UNL     1      34.411 -16.024 -25.281  0.00  0.00    +0.379 C 
ATOM     29  C   UNL     1      34.014 -14.315 -26.377  0.00  0.00    +0.104 C 
BRANCH  29  30
ATOM     30  C   UNL     1      33.933 -12.900 -26.751  0.00  0.00    +0.101 C 
ATOM     31  C   UNL     1      32.616 -12.532 -27.481  0.00  0.00    +0.017 C 
ATOM     32  C   UNL     1      34.127 -11.936 -25.553  0.00  0.00    +0.017 C 
ENDBRANCH  29  30
ENDBRANCH  18  23
ENDBRANCH   1  18
TORSDOF 6
ENDMDL
MODEL 7
REMARK VINA RESULT:     -11.3      4.612     11.833
REMARK  Name = 24996872
REMARK  6 active torsions:
REMARK  status: ('A' for Active; 'I' for Inactive)
REMARK    1  A    between atoms: O_1  and  C_3
REMARK    2  A    between atoms: O_1  and  C_18
REMARK    3  A    between atoms: C_7  and  C_8
REMARK    4  A    between atoms: C_11  and  S_14
REMARK    5  A    between atoms: C_18  and  C_23
REMARK    6  A    between atoms: C_29  and  C_30
REMARK                            x       y       z     vdW  Elec       q    Type
REMARK                         _______ _______ _______ _____ _____    ______ ____
ROOT
ATOM      1  O   UNL     1      34.334 -16.920 -25.265  0.00  0.00    -0.474 OA
ENDROOT
BRANCH   1   3
ATOM      2  N   UNL     1      33.642 -13.335 -25.528  0.00  0.00    -0.241 NA
ATOM      3  C   UNL     1      34.254 -15.594 -24.920  0.00  0.00    +0.158 C 
ATOM      4  C   UNL     1      34.676 -15.151 -23.672  0.00  0.00    +0.040 C 
ATOM      5  C   UNL     1      33.749 -14.654 -25.805  0.00  0.00    +0.136 C 
ATOM      6  C   UNL     1      34.583 -13.801 -23.350  0.00  0.00    +0.022 C 
ATOM      7  C   UNL     1      34.063 -12.942 -24.305  0.00  0.00    +0.082 C 
BRANCH   7   8
ATOM      8  C   UNL     1      33.936 -11.529 -24.041  0.00  0.00    +0.018 C 
ATOM      9  C   UNL     1      32.865 -11.053 -23.283  0.00  0.00    +0.003 C 
ATOM     10  C   UNL     1      34.884 -10.637 -24.543  0.00  0.00    +0.003 C 
ATOM     11  C   UNL     1      33.692  -8.796 -23.531  0.00  0.00    +0.106 C 
ATOM     12  C   UNL     1      32.744  -9.687 -23.029  0.00  0.00    +0.018 C 
ATOM     13  C   UNL     1      34.762  -9.271 -24.289  0.00  0.00    +0.018 C 
BRANCH  11  14
ATOM     14  S   UNL     1      33.539  -7.087 -23.213  0.00  0.00    +0.010 S 
ATOM     15  O   UNL     1      33.344  -6.913 -21.779  0.00  0.00    -0.169 OA
ATOM     16  O   UNL     1      34.622  -6.382 -23.885  0.00  0.00    -0.169 OA
ATOM     17  C   UNL     1      32.030  -6.618 -24.030  0.00  0.00    +0.182 C 
ENDBRANCH  11  14
ENDBRANCH   7   8
ENDBRANCH   1   3
BRANCH   1  18
ATOM     18  C   UNL     1      35.513 -17.612 -24.893  0.00  0.00    +0.205 C 
BRANCH  18  23
ATOM     19  O   UNL     1      34.951 -21.902 -20.170  0.00  0.00    -0.296 OA
ATOM     20  N   UNL     1      35.682 -19.986 -21.303  0.00  0.00    -0.251 N 
ATOM     21  N   UNL     1      36.694 -20.846 -19.241  0.00  0.00    -0.300 NA
ATOM     22  N   UNL     1      35.287 -22.636 -19.025  0.00  0.00    -0.010 NA
ATOM     23  C   UNL     1      35.374 -18.057 -23.439  0.00  0.00    +0.047 C 
ATOM     24  C   UNL     1      36.745 -18.376 -22.833  0.00  0.00    +0.025 C 
ATOM     25  C   UNL     1      34.468 -19.287 -23.328  0.00  0.00    +0.025 C 
ATOM     26  C   UNL     1      36.620 -18.859 -21.389  0.00  0.00    +0.096 C 
ATOM     27  C   UNL     1      34.352 -19.773 -21.883  0.00  0.00    +0.096 C 
ATOM     28  C   UNL     1      35.829 -20.866 -20.223  0.00  0.00    +0.379 C 
ATOM     29  C   UNL     1      36.323 -21.951 -18.533  0.00  0.00    +0.104 C 
BRANCH  29  30
ATOM     30  C   UNL     1      37.015 -22.364 -17.308  0.00  0.00    +0.101 C 
ATOM     31  C   UNL     1      38.037 -21.315 -16.797  0.00  0.00    +0.017 C 
ATOM     32  C   UNL     1      36.051 -22.726 -16.150  0.00  0.00    +0.017 C 
ENDBRANCH  29  30
ENDBRANCH  18  23
ENDBRANCH   1  18
TORSDOF 6
ENDMDL
MODEL 8
REMARK VINA RESULT:     -11.3      2.057      2.350
REMARK  Name = 24996872
REMARK  6 active torsions:
REMARK  status: ('A' for Active; 'I' for Inactive)
REMARK    1  A    between atoms: O_1  and  C_3
REMARK    2  A    between atoms: O_1  and  C_18
REMARK    3  A    between atoms: C_7  and  C_8
REMARK    4  A    between atoms: C_11  and  S_14
REMARK    5  A    between atoms: C_18  and  C_23
REMARK    6  A    between atoms: C_29  and  C_30
REMARK                            x       y       z     vdW  Elec       q    Type
REMARK                         _______ _______ _______ _____ _____    ______ ____
ROOT
ATOM      1  O   UNL     1      35.062 -19.478 -22.791  0.00  0.00    -0.474 OA
ENDROOT
BRANCH   1   3
ATOM      2  N   UNL     1      33.167 -21.006 -20.056  0.00  0.00    -0.241 NA
ATOM      3  C   UNL     1      34.796 -20.177 -21.639  0.00  0.00    +0.158 C 
ATOM      4  C   UNL     1      35.821 -20.752 -20.897  0.00  0.00    +0.040 C 
ATOM      5  C   UNL     1      33.497 -20.331 -21.180  0.00  0.00    +0.136 C 
ATOM      6  C   UNL     1      35.522 -21.454 -19.734  0.00  0.00    +0.022 C 
ATOM      7  C   UNL     1      34.191 -21.552 -19.361  0.00  0.00    +0.082 C 
BRANCH   7   8
ATOM      8  C   UNL     1      33.805 -22.265 -18.167  0.00  0.00    +0.018 C 
ATOM      9  C   UNL     1      34.783 -22.749 -17.296  0.00  0.00    +0.003 C 
ATOM     10  C   UNL     1      32.456 -22.470 -17.882  0.00  0.00    +0.003 C 
ATOM     11  C   UNL     1      33.059 -23.642 -15.858  0.00  0.00    +0.106 C 
ATOM     12  C   UNL     1      34.409 -23.438 -16.143  0.00  0.00    +0.018 C 
ATOM     13  C   UNL     1      32.082 -23.159 -16.728  0.00  0.00    +0.018 C 
BRANCH  11  14
ATOM     14  S   UNL     1      32.592 -24.504 -14.414  0.00  0.00    +0.010 S 
ATOM     15  O   UNL     1      31.727 -23.632 -13.631  0.00  0.00    -0.169 OA
ATOM     16  O   UNL     1      32.130 -25.835 -14.786  0.00  0.00    -0.169 OA
ATOM     17  C   UNL     1      34.112 -24.717 -13.514  0.00  0.00    +0.182 C 
ENDBRANCH  11  14
ENDBRANCH   7   8
ENDBRANCH   1   3
BRANCH   1  18
ATOM     18  C   UNL     1      36.283 -18.763 -22.843  0.00  0.00    +0.205 C 
BRANCH  18  23
ATOM     19  O   UNL     1      32.767 -13.420 -23.169  0.00  0.00    -0.296 OA
ATOM     20  N   UNL     1      34.186 -15.046 -22.260  0.00  0.00    -0.251 N 
ATOM     21  N   UNL     1      33.080 -13.288 -20.955  0.00  0.00    -0.300 NA
ATOM     22  N   UNL     1      32.007 -12.327 -22.732  0.00  0.00    -0.010 NA
ATOM     23  C   UNL     1      35.989 -17.285 -22.600  0.00  0.00    +0.047 C 
ATOM     24  C   UNL     1      35.177 -17.094 -21.315  0.00  0.00    +0.025 C 
ATOM     25  C   UNL     1      35.226 -16.679 -23.782  0.00  0.00    +0.025 C 
ATOM     26  C   UNL     1      34.843 -15.621 -21.078  0.00  0.00    +0.096 C 
ATOM     27  C   UNL     1      34.885 -15.208 -23.538  0.00  0.00    +0.096 C 
ATOM     28  C   UNL     1      33.365 -13.929 -22.061  0.00  0.00    +0.379 C 
ATOM     29  C   UNL     1      32.244 -12.314 -21.417  0.00  0.00    +0.104 C 
BRANCH  29  30
ATOM     30  C   UNL     1      31.641 -11.316 -20.529  0.00  0.00    +0.101 C 
ATOM     31  C   UNL     1      31.865 -11.617 -19.024  0.00  0.00    +0.017 C 
ATOM     32  C   UNL     1      32.109  -9.868 -20.824  0.00  0.00    +0.017 C 
ENDBRANCH  29  30
ENDBRANCH  18  23
ENDBRANCH   1  18
TORSDOF 6
ENDMDL
MODEL 9
REMARK VINA RESULT:     -11.1      4.097     11.686
REMARK  Name = 24996872
REMARK  6 active torsions:
REMARK  status: ('A' for Active; 'I' for Inactive)
REMARK    1  A    between atoms: O_1  and  C_3
REMARK    2  A    between atoms: O_1  and  C_18
REMARK    3  A    between atoms: C_7  and  C_8
REMARK    4  A    between atoms: C_11  and  S_14
REMARK    5  A    between atoms: C_18  and  C_23
REMARK    6  A    between atoms: C_29  and  C_30
REMARK                            x       y       z     vdW  Elec       q    Type
REMARK                         _______ _______ _______ _____ _____    ______ ____
ROOT
ATOM      1  O   UNL     1      35.813 -17.571 -22.981  0.00  0.00    -0.474 OA
ENDROOT
BRANCH   1   3
ATOM      2  N   UNL     1      34.597 -14.324 -24.157  0.00  0.00    -0.241 NA
ATOM      3  C   UNL     1      35.291 -16.301 -22.950  0.00  0.00    +0.158 C 
ATOM      4  C   UNL     1      34.935 -15.702 -21.748  0.00  0.00    +0.040 C 
ATOM      5  C   UNL     1      35.104 -15.577 -24.117  0.00  0.00    +0.136 C 
ATOM      6  C   UNL     1      34.410 -14.414 -21.748  0.00  0.00    +0.022 C 
ATOM      7  C   UNL     1      34.262 -13.774 -22.968  0.00  0.00    +0.082 C 
BRANCH   7   8
ATOM      8  C   UNL     1      33.723 -12.437 -23.045  0.00  0.00    +0.018 C 
ATOM      9  C   UNL     1      34.240 -11.529 -23.969  0.00  0.00    +0.003 C 
ATOM     10  C   UNL     1      32.685 -12.053 -22.196  0.00  0.00    +0.003 C 
ATOM     11  C   UNL     1      32.681  -9.853 -23.194  0.00  0.00    +0.106 C 
ATOM     12  C   UNL     1      33.719 -10.237 -24.043  0.00  0.00    +0.018 C 
ATOM     13  C   UNL     1      32.164 -10.762 -22.270  0.00  0.00    +0.018 C 
BRANCH  11  14
ATOM     14  S   UNL     1      32.030  -8.237 -23.287  0.00  0.00    +0.010 S 
ATOM     15  O   UNL     1      32.914  -7.444 -24.130  0.00  0.00    -0.169 OA
ATOM     16  O   UNL     1      30.610  -8.317 -23.604  0.00  0.00    -0.169 OA
ATOM     17  C   UNL     1      32.155  -7.613 -21.625  0.00  0.00    +0.182 C 
ENDBRANCH  11  14
ENDBRANCH   7   8
ENDBRANCH   1   3
BRANCH   1  18
ATOM     18  C   UNL     1      34.890 -18.644 -23.032  0.00  0.00    +0.205 C 
BRANCH  18  23
ATOM     19  O   UNL     1      37.518 -21.161 -17.761  0.00  0.00    -0.296 OA
ATOM     20  N   UNL     1      36.075 -20.953 -19.594  0.00  0.00    -0.251 N 
ATOM     21  N   UNL     1      35.751 -22.537 -17.750  0.00  0.00    -0.300 NA
ATOM     22  N   UNL     1      37.624 -21.923 -16.590  0.00  0.00    -0.010 NA
ATOM     23  C   UNL     1      35.418 -19.779 -22.157  0.00  0.00    +0.047 C 
ATOM     24  C   UNL     1      34.332 -20.278 -21.198  0.00  0.00    +0.025 C 
ATOM     25  C   UNL     1      36.640 -19.325 -21.353  0.00  0.00    +0.025 C 
ATOM     26  C   UNL     1      34.856 -21.389 -20.289  0.00  0.00    +0.096 C 
ATOM     27  C   UNL     1      37.157 -20.436 -20.438  0.00  0.00    +0.096 C 
ATOM     28  C   UNL     1      36.388 -21.586 -18.384  0.00  0.00    +0.379 C 
ATOM     29  C   UNL     1      36.546 -22.710 -16.655  0.00  0.00    +0.104 C 
BRANCH  29  30
ATOM     30  C   UNL     1      36.240 -23.696 -15.614  0.00  0.00    +0.101 C 
ATOM     31  C   UNL     1      36.996 -23.439 -14.285  0.00  0.00    +0.017 C 
ATOM     32  C   UNL     1      34.726 -23.820 -15.311  0.00  0.00    +0.017 C 
ENDBRANCH  29  30
ENDBRANCH  18  23
ENDBRANCH   1  18
TORSDOF 6
ENDMDL
