MODEL 1
REMARK VINA RESULT:     -11.1      0.000      0.000
REMARK  Name = 4823
REMARK  3 active torsions:
REMARK  status: ('A' for Active; 'I' for Inactive)
REMARK    1  A    between atoms: C_3  and  C_16
REMARK    2  A    between atoms: C_9  and  C_21
REMARK    3  A    between atoms: C_26  and  O_27
REMARK                            x       y       z     vdW  Elec       q    Type
REMARK                         _______ _______ _______ _____ _____    ______ ____
ROOT
ATOM      1  N   UNL     1      36.022 -20.434 -20.301  0.00  0.00    -0.315 N 
ATOM      2  N   UNL     1      33.863 -20.763 -20.709  0.00  0.00    -0.315 N 
ATOM      3  C   UNL     1      35.502 -22.813 -17.500  0.00  0.00    +0.016 C 
ATOM      4  C   UNL     1      35.601 -21.320 -19.344  0.00  0.00    +0.059 C 
ATOM      5  C   UNL     1      36.265 -21.953 -18.293  0.00  0.00    +0.017 C 
ATOM      6  C   UNL     1      34.250 -21.510 -19.620  0.00  0.00    +0.059 C 
ATOM      7  C   UNL     1      34.147 -23.027 -17.747  0.00  0.00    +0.003 C 
ATOM      8  C   UNL     1      33.501 -22.380 -18.809  0.00  0.00    +0.016 C 
ATOM      9  C   UNL     1      34.949 -20.131 -21.091  0.00  0.00    +0.168 C 
ATOM     10  H   UNL     1      36.936 -20.078 -20.401  0.00  0.00    +0.149 HD
ATOM     11  H   UNL     1      32.966 -20.714 -21.113  0.00  0.00    +0.149 HD
ENDROOT
BRANCH   3  16
ATOM     12  O   UNL     1      38.186 -25.640 -13.598  0.00  0.00    -0.273 OA
ATOM     13  N   UNL     1      37.373 -23.194 -16.031  0.00  0.00    -0.184 NA
ATOM     14  N   UNL     1      37.990 -23.860 -15.029  0.00  0.00    -0.206 N 
ATOM     15  C   UNL     1      35.384 -24.584 -15.582  0.00  0.00    +0.051 C 
ATOM     16  C   UNL     1      36.159 -23.525 -16.354  0.00  0.00    +0.076 C 
ATOM     17  C   UNL     1      36.359 -25.662 -15.138  0.00  0.00    +0.093 C 
ATOM     18  C   UNL     1      34.666 -23.948 -14.390  0.00  0.00    +0.007 C 
ATOM     19  C   UNL     1      37.577 -25.058 -14.495  0.00  0.00    +0.241 C 
ATOM     20  H   UNL     1      38.803 -23.453 -14.650  0.00  0.00    +0.177 HD
ENDBRANCH   3  16
BRANCH   9  21
ATOM     21  C   UNL     1      35.053 -19.218 -22.205  0.00  0.00    +0.015 C 
ATOM     22  C   UNL     1      34.671 -19.630 -23.481  0.00  0.00    +0.002 C 
ATOM     23  C   UNL     1      35.537 -17.925 -22.004  0.00  0.00    +0.002 C 
ATOM     24  C   UNL     1      34.771 -18.748 -24.557  0.00  0.00    +0.037 C 
ATOM     25  C   UNL     1      35.637 -17.044 -23.079  0.00  0.00    +0.037 C 
ATOM     26  C   UNL     1      35.253 -17.455 -24.356  0.00  0.00    +0.139 C 
BRANCH  26  27
ATOM     27  O   UNL     1      35.351 -16.595 -25.406  0.00  0.00    -0.471 OA
ATOM     28  C   UNL     1      34.175 -15.868 -25.763  0.00  0.00    +0.252 C 
ENDBRANCH  26  27
ENDBRANCH   9  21
TORSDOF 3
ENDMDL
MODEL 2
REMARK VINA RESULT:     -11.0      1.075      1.346
REMARK  Name = 4823
REMARK  3 active torsions:
REMARK  status: ('A' for Active; 'I' for Inactive)
REMARK    1  A    between atoms: C_3  and  C_16
REMARK    2  A    between atoms: C_9  and  C_21
REMARK    3  A    between atoms: C_26  and  O_27
REMARK                            x       y       z     vdW  Elec       q    Type
REMARK                         _______ _______ _______ _____ _____    ______ ____
ROOT
ATOM      1  N   UNL     1      35.863 -20.573 -20.129  0.00  0.00    -0.315 N 
ATOM      2  N   UNL     1      33.709 -20.834 -20.609  0.00  0.00    -0.315 N 
ATOM      3  C   UNL     1      35.180 -22.959 -17.367  0.00  0.00    +0.016 C 
ATOM      4  C   UNL     1      35.384 -21.454 -19.194  0.00  0.00    +0.059 C 
ATOM      5  C   UNL     1      35.994 -22.116 -18.127  0.00  0.00    +0.017 C 
ATOM      6  C   UNL     1      34.037 -21.601 -19.515  0.00  0.00    +0.059 C 
ATOM      7  C   UNL     1      33.828 -23.129 -17.660  0.00  0.00    +0.003 C 
ATOM      8  C   UNL     1      33.237 -22.454 -18.736  0.00  0.00    +0.016 C 
ATOM      9  C   UNL     1      34.825 -20.232 -20.950  0.00  0.00    +0.168 C 
ATOM     10  H   UNL     1      36.789 -20.245 -20.195  0.00  0.00    +0.149 HD
ATOM     11  H   UNL     1      32.828 -20.754 -21.041  0.00  0.00    +0.149 HD
ENDROOT
BRANCH   3  16
ATOM     12  O   UNL     1      36.972 -25.639 -12.892  0.00  0.00    -0.273 OA
ATOM     13  N   UNL     1      35.390 -24.918 -15.982  0.00  0.00    -0.184 NA
ATOM     14  N   UNL     1      35.890 -25.578 -14.913  0.00  0.00    -0.206 N 
ATOM     15  C   UNL     1      36.841 -23.024 -15.351  0.00  0.00    +0.051 C 
ATOM     16  C   UNL     1      35.778 -23.699 -16.207  0.00  0.00    +0.076 C 
ATOM     17  C   UNL     1      36.675 -23.501 -13.918  0.00  0.00    +0.093 C 
ATOM     18  C   UNL     1      38.236 -23.342 -15.893  0.00  0.00    +0.007 C 
ATOM     19  C   UNL     1      36.555 -24.999 -13.858  0.00  0.00    +0.241 C 
ATOM     20  H   UNL     1      35.768 -26.555 -14.888  0.00  0.00    +0.177 HD
ENDBRANCH   3  16
BRANCH   9  21
ATOM     21  C   UNL     1      34.992 -19.314 -22.052  0.00  0.00    +0.015 C 
ATOM     22  C   UNL     1      34.646 -19.706 -23.344  0.00  0.00    +0.002 C 
ATOM     23  C   UNL     1      35.503 -18.036 -21.823  0.00  0.00    +0.002 C 
ATOM     24  C   UNL     1      34.807 -18.818 -24.408  0.00  0.00    +0.037 C 
ATOM     25  C   UNL     1      35.664 -17.149 -22.886  0.00  0.00    +0.037 C 
ATOM     26  C   UNL     1      35.316 -17.540 -24.179  0.00  0.00    +0.139 C 
BRANCH  26  27
ATOM     27  O   UNL     1      35.474 -16.675 -25.218  0.00  0.00    -0.471 OA
ATOM     28  C   UNL     1      34.351 -15.864 -25.564  0.00  0.00    +0.252 C 
ENDBRANCH  26  27
ENDBRANCH   9  21
TORSDOF 3
ENDMDL
MODEL 3
REMARK VINA RESULT:     -10.9      2.786      9.391
REMARK  Name = 4823
REMARK  3 active torsions:
REMARK  status: ('A' for Active; 'I' for Inactive)
REMARK    1  A    between atoms: C_3  and  C_16
REMARK    2  A    between atoms: C_9  and  C_21
REMARK    3  A    between atoms: C_26  and  O_27
REMARK                            x       y       z     vdW  Elec       q    Type
REMARK                         _______ _______ _______ _____ _____    ______ ____
ROOT
ATOM      1  N   UNL     1      33.012 -21.634 -19.210  0.00  0.00    -0.315 N 
ATOM      2  N   UNL     1      34.914 -22.375 -18.332  0.00  0.00    -0.315 N 
ATOM      3  C   UNL     1      35.209 -20.002 -21.718  0.00  0.00    +0.016 C 
ATOM      4  C   UNL     1      34.004 -21.131 -20.010  0.00  0.00    +0.059 C 
ATOM      5  C   UNL     1      33.975 -20.325 -21.149  0.00  0.00    +0.017 C 
ATOM      6  C   UNL     1      35.182 -21.609 -19.442  0.00  0.00    +0.059 C 
ATOM      7  C   UNL     1      36.407 -20.463 -21.175  0.00  0.00    +0.003 C 
ATOM      8  C   UNL     1      36.412 -21.271 -20.031  0.00  0.00    +0.016 C 
ATOM      9  C   UNL     1      33.605 -22.369 -18.222  0.00  0.00    +0.168 C 
ATOM     10  H   UNL     1      32.044 -21.489 -19.325  0.00  0.00    +0.149 HD
ATOM     11  H   UNL     1      35.562 -22.830 -17.747  0.00  0.00    +0.149 HD
ENDROOT
BRANCH   3  16
ATOM     12  O   UNL     1      35.043 -16.547 -26.014  0.00  0.00    -0.273 OA
ATOM     13  N   UNL     1      35.862 -17.999 -22.885  0.00  0.00    -0.184 NA
ATOM     14  N   UNL     1      35.861 -17.194 -23.972  0.00  0.00    -0.206 N 
ATOM     15  C   UNL     1      34.589 -19.631 -24.229  0.00  0.00    +0.051 C 
ATOM     16  C   UNL     1      35.243 -19.139 -22.945  0.00  0.00    +0.076 C 
ATOM     17  C   UNL     1      34.014 -18.430 -24.963  0.00  0.00    +0.093 C 
ATOM     18  C   UNL     1      35.610 -20.381 -25.087  0.00  0.00    +0.007 C 
ATOM     19  C   UNL     1      35.024 -17.320 -25.056  0.00  0.00    +0.241 C 
ATOM     20  H   UNL     1      36.513 -16.457 -23.988  0.00  0.00    +0.177 HD
ENDBRANCH   3  16
BRANCH   9  21
ATOM     21  C   UNL     1      32.835 -23.042 -17.203  0.00  0.00    +0.015 C 
ATOM     22  C   UNL     1      31.442 -23.003 -17.243  0.00  0.00    +0.002 C 
ATOM     23  C   UNL     1      33.485 -23.728 -16.177  0.00  0.00    +0.002 C 
ATOM     24  C   UNL     1      30.697 -23.653 -16.258  0.00  0.00    +0.037 C 
ATOM     25  C   UNL     1      32.741 -24.377 -15.192  0.00  0.00    +0.037 C 
ATOM     26  C   UNL     1      31.347 -24.340 -15.233  0.00  0.00    +0.139 C 
BRANCH  26  27
ATOM     27  O   UNL     1      30.621 -24.974 -14.272  0.00  0.00    -0.471 OA
ATOM     28  C   UNL     1      29.344 -25.486 -14.654  0.00  0.00    +0.252 C 
ENDBRANCH  26  27
ENDBRANCH   9  21
TORSDOF 3
ENDMDL
MODEL 4
REMARK VINA RESULT:     -10.8      2.380      3.146
REMARK  Name = 4823
REMARK  3 active torsions:
REMARK  status: ('A' for Active; 'I' for Inactive)
REMARK    1  A    between atoms: C_3  and  C_16
REMARK    2  A    between atoms: C_9  and  C_21
REMARK    3  A    between atoms: C_26  and  O_27
REMARK                            x       y       z     vdW  Elec       q    Type
REMARK                         _______ _______ _______ _____ _____    ______ ____
ROOT
ATOM      1  N   UNL     1      33.909 -20.161 -21.169  0.00  0.00    -0.315 N 
ATOM      2  N   UNL     1      36.130 -20.192 -21.217  0.00  0.00    -0.315 N 
ATOM      3  C   UNL     1      34.286 -22.393 -18.227  0.00  0.00    +0.016 C 
ATOM      4  C   UNL     1      34.286 -20.963 -20.123  0.00  0.00    +0.059 C 
ATOM      5  C   UNL     1      33.553 -21.663 -19.165  0.00  0.00    +0.017 C 
ATOM      6  C   UNL     1      35.677 -20.966 -20.173  0.00  0.00    +0.059 C 
ATOM      7  C   UNL     1      35.679 -22.419 -18.248  0.00  0.00    +0.003 C 
ATOM      8  C   UNL     1      36.395 -21.707 -19.220  0.00  0.00    +0.016 C 
ATOM      9  C   UNL     1      35.045 -19.726 -21.791  0.00  0.00    +0.168 C 
ATOM     10  H   UNL     1      32.984 -19.940 -21.426  0.00  0.00    +0.149 HD
ATOM     11  H   UNL     1      37.066 -20.024 -21.476  0.00  0.00    +0.149 HD
ENDROOT
BRANCH   3  16
ATOM     12  O   UNL     1      31.306 -24.883 -14.311  0.00  0.00    -0.273 OA
ATOM     13  N   UNL     1      32.387 -23.659 -17.457  0.00  0.00    -0.184 NA
ATOM     14  N   UNL     1      31.700 -24.321 -16.498  0.00  0.00    -0.206 N 
ATOM     15  C   UNL     1      34.205 -23.386 -15.812  0.00  0.00    +0.051 C 
ATOM     16  C   UNL     1      33.554 -23.167 -17.171  0.00  0.00    +0.076 C 
ATOM     17  C   UNL     1      33.115 -23.386 -14.753  0.00  0.00    +0.093 C 
ATOM     18  C   UNL     1      34.994 -24.697 -15.809  0.00  0.00    +0.007 C 
ATOM     19  C   UNL     1      31.975 -24.283 -15.151  0.00  0.00    +0.241 C 
ATOM     20  H   UNL     1      30.940 -24.875 -16.788  0.00  0.00    +0.177 HD
ENDBRANCH   3  16
BRANCH   9  21
ATOM     21  C   UNL     1      35.001 -18.854 -22.942  0.00  0.00    +0.015 C 
ATOM     22  C   UNL     1      35.443 -17.536 -22.834  0.00  0.00    +0.002 C 
ATOM     23  C   UNL     1      34.514 -19.331 -24.159  0.00  0.00    +0.002 C 
ATOM     24  C   UNL     1      35.400 -16.694 -23.946  0.00  0.00    +0.037 C 
ATOM     25  C   UNL     1      34.472 -18.489 -25.270  0.00  0.00    +0.037 C 
ATOM     26  C   UNL     1      34.915 -17.171 -25.163  0.00  0.00    +0.139 C 
BRANCH  26  27
ATOM     27  O   UNL     1      34.873 -16.349 -26.247  0.00  0.00    -0.471 OA
ATOM     28  C   UNL     1      33.923 -15.284 -26.220  0.00  0.00    +0.252 C 
ENDBRANCH  26  27
ENDBRANCH   9  21
TORSDOF 3
ENDMDL
MODEL 5
REMARK VINA RESULT:     -10.2      8.371     14.343
REMARK  Name = 4823
REMARK  3 active torsions:
REMARK  status: ('A' for Active; 'I' for Inactive)
REMARK    1  A    between atoms: C_3  and  C_16
REMARK    2  A    between atoms: C_9  and  C_21
REMARK    3  A    between atoms: C_26  and  O_27
REMARK                            x       y       z     vdW  Elec       q    Type
REMARK                         _______ _______ _______ _____ _____    ______ ____
ROOT
ATOM      1  N   UNL     1      33.799 -11.577 -24.283  0.00  0.00    -0.315 N 
ATOM      2  N   UNL     1      32.792 -12.478 -22.518  0.00  0.00    -0.315 N 
ATOM      3  C   UNL     1      32.603  -8.353 -22.884  0.00  0.00    +0.016 C 
ATOM      4  C   UNL     1      33.261 -10.523 -23.591  0.00  0.00    +0.059 C 
ATOM      5  C   UNL     1      33.266  -9.147 -23.822  0.00  0.00    +0.017 C 
ATOM      6  C   UNL     1      32.639 -11.111 -22.493  0.00  0.00    +0.059 C 
ATOM      7  C   UNL     1      31.968  -8.908 -21.774  0.00  0.00    +0.003 C 
ATOM      8  C   UNL     1      31.976 -10.293 -21.562  0.00  0.00    +0.016 C 
ATOM      9  C   UNL     1      33.492 -12.722 -23.603  0.00  0.00    +0.168 C 
ATOM     10  H   UNL     1      34.313 -11.519 -25.120  0.00  0.00    +0.149 HD
ATOM     11  H   UNL     1      32.452 -13.131 -21.864  0.00  0.00    +0.149 HD
ENDROOT
BRANCH   3  16
ATOM     12  O   UNL     1      32.037  -2.910 -23.576  0.00  0.00    -0.273 OA
ATOM     13  N   UNL     1      32.234  -6.115 -22.073  0.00  0.00    -0.184 NA
ATOM     14  N   UNL     1      32.162  -4.776 -22.250  0.00  0.00    -0.206 N 
ATOM     15  C   UNL     1      32.973  -6.273 -24.422  0.00  0.00    +0.051 C 
ATOM     16  C   UNL     1      32.574  -6.865 -23.077  0.00  0.00    +0.076 C 
ATOM     17  C   UNL     1      32.128  -5.033 -24.669  0.00  0.00    +0.093 C 
ATOM     18  C   UNL     1      34.468  -5.950 -24.434  0.00  0.00    +0.007 C 
ATOM     19  C   UNL     1      32.128  -4.133 -23.464  0.00  0.00    +0.241 C 
ATOM     20  H   UNL     1      32.131  -4.215 -21.441  0.00  0.00    +0.177 HD
ENDBRANCH   3  16
BRANCH   9  21
ATOM     21  C   UNL     1      33.913 -14.023 -24.066  0.00  0.00    +0.015 C 
ATOM     22  C   UNL     1      33.534 -14.468 -25.332  0.00  0.00    +0.002 C 
ATOM     23  C   UNL     1      34.698 -14.835 -23.247  0.00  0.00    +0.002 C 
ATOM     24  C   UNL     1      33.942 -15.725 -25.781  0.00  0.00    +0.037 C 
ATOM     25  C   UNL     1      35.105 -16.091 -23.695  0.00  0.00    +0.037 C 
ATOM     26  C   UNL     1      34.727 -16.536 -24.962  0.00  0.00    +0.139 C 
BRANCH  26  27
ATOM     27  O   UNL     1      35.124 -17.761 -25.399  0.00  0.00    -0.471 OA
ATOM     28  C   UNL     1      34.572 -18.899 -24.736  0.00  0.00    +0.252 C 
ENDBRANCH  26  27
ENDBRANCH   9  21
TORSDOF 3
ENDMDL
MODEL 6
REMARK VINA RESULT:     -10.0      7.708     13.715
REMARK  Name = 4823
REMARK  3 active torsions:
REMARK  status: ('A' for Active; 'I' for Inactive)
REMARK    1  A    between atoms: C_3  and  C_16
REMARK    2  A    between atoms: C_9  and  C_21
REMARK    3  A    between atoms: C_26  and  O_27
REMARK                            x       y       z     vdW  Elec       q    Type
REMARK                         _______ _______ _______ _____ _____    ______ ____
ROOT
ATOM      1  N   UNL     1      34.390 -12.574 -23.596  0.00  0.00    -0.315 N 
ATOM      2  N   UNL     1      32.780 -13.397 -22.304  0.00  0.00    -0.315 N 
ATOM      3  C   UNL     1      32.552  -9.368 -23.251  0.00  0.00    +0.016 C 
ATOM      4  C   UNL     1      33.558 -11.518 -23.332  0.00  0.00    +0.059 C 
ATOM      5  C   UNL     1      33.589 -10.178 -23.719  0.00  0.00    +0.017 C 
ATOM      6  C   UNL     1      32.561 -12.056 -22.523  0.00  0.00    +0.059 C 
ATOM      7  C   UNL     1      31.538  -9.874 -22.440  0.00  0.00    +0.003 C 
ATOM      8  C   UNL     1      31.527 -11.223 -22.064  0.00  0.00    +0.016 C 
ATOM      9  C   UNL     1      33.884 -13.673 -22.961  0.00  0.00    +0.168 C 
ATOM     10  H   UNL     1      35.206 -12.546 -24.147  0.00  0.00    +0.149 HD
ATOM     11  H   UNL     1      32.230 -14.014 -21.769  0.00  0.00    +0.149 HD
ENDROOT
BRANCH   3  16
ATOM     12  O   UNL     1      32.623  -4.160 -25.067  0.00  0.00    -0.273 OA
ATOM     13  N   UNL     1      31.614  -7.503 -24.453  0.00  0.00    -0.184 NA
ATOM     14  N   UNL     1      31.614  -6.206 -24.837  0.00  0.00    -0.206 N 
ATOM     15  C   UNL     1      33.554  -6.965 -23.025  0.00  0.00    +0.051 C 
ATOM     16  C   UNL     1      32.531  -7.916 -23.632  0.00  0.00    +0.076 C 
ATOM     17  C   UNL     1      33.902  -5.911 -24.064  0.00  0.00    +0.093 C 
ATOM     18  C   UNL     1      32.996  -6.334 -21.748  0.00  0.00    +0.007 C 
ATOM     19  C   UNL     1      32.660  -5.327 -24.679  0.00  0.00    +0.241 C 
ATOM     20  H   UNL     1      30.796  -5.862 -25.265  0.00  0.00    +0.177 HD
ENDBRANCH   3  16
BRANCH   9  21
ATOM     21  C   UNL     1      34.527 -14.963 -23.034  0.00  0.00    +0.015 C 
ATOM     22  C   UNL     1      34.920 -15.614 -21.865  0.00  0.00    +0.002 C 
ATOM     23  C   UNL     1      34.758 -15.557 -24.275  0.00  0.00    +0.002 C 
ATOM     24  C   UNL     1      35.542 -16.861 -21.937  0.00  0.00    +0.037 C 
ATOM     25  C   UNL     1      35.380 -16.803 -24.347  0.00  0.00    +0.037 C 
ATOM     26  C   UNL     1      35.772 -17.455 -23.177  0.00  0.00    +0.139 C 
BRANCH  26  27
ATOM     27  O   UNL     1      36.379 -18.671 -23.246  0.00  0.00    -0.471 OA
ATOM     28  C   UNL     1      37.290 -19.004 -22.199  0.00  0.00    +0.252 C 
ENDBRANCH  26  27
ENDBRANCH   9  21
TORSDOF 3
ENDMDL
MODEL 7
REMARK VINA RESULT:      -9.8      6.826      7.579
REMARK  Name = 4823
REMARK  3 active torsions:
REMARK  status: ('A' for Active; 'I' for Inactive)
REMARK    1  A    between atoms: C_3  and  C_16
REMARK    2  A    between atoms: C_9  and  C_21
REMARK    3  A    between atoms: C_26  and  O_27
REMARK                            x       y       z     vdW  Elec       q    Type
REMARK                         _______ _______ _______ _____ _____    ______ ____
ROOT
ATOM      1  N   UNL     1      32.609 -23.688 -15.884  0.00  0.00    -0.315 N 
ATOM      2  N   UNL     1      31.768 -23.886 -13.837  0.00  0.00    -0.315 N 
ATOM      3  C   UNL     1      35.853 -24.459 -14.253  0.00  0.00    +0.016 C 
ATOM      4  C   UNL     1      33.677 -23.985 -15.078  0.00  0.00    +0.059 C 
ATOM      5  C   UNL     1      35.036 -24.155 -15.344  0.00  0.00    +0.017 C 
ATOM      6  C   UNL     1      33.127 -24.104 -13.805  0.00  0.00    +0.059 C 
ATOM      7  C   UNL     1      35.336 -24.586 -12.965  0.00  0.00    +0.003 C 
ATOM      8  C   UNL     1      33.967 -24.411 -12.721  0.00  0.00    +0.016 C 
ATOM      9  C   UNL     1      31.493 -23.639 -15.097  0.00  0.00    +0.168 C 
ATOM     10  H   UNL     1      32.641 -23.535 -16.857  0.00  0.00    +0.149 HD
ATOM     11  H   UNL     1      31.140 -23.910 -13.079  0.00  0.00    +0.149 HD
ENDROOT
BRANCH   3  16
ATOM     12  O   UNL     1      41.151 -25.479 -15.400  0.00  0.00    -0.273 OA
ATOM     13  N   UNL     1      37.859 -24.170 -15.555  0.00  0.00    -0.184 NA
ATOM     14  N   UNL     1      39.175 -24.380 -15.785  0.00  0.00    -0.206 N 
ATOM     15  C   UNL     1      38.154 -25.379 -13.423  0.00  0.00    +0.051 C 
ATOM     16  C   UNL     1      37.324 -24.655 -14.475  0.00  0.00    +0.076 C 
ATOM     17  C   UNL     1      39.245 -26.164 -14.133  0.00  0.00    +0.093 C 
ATOM     18  C   UNL     1      38.737 -24.375 -12.427  0.00  0.00    +0.007 C 
ATOM     19  C   UNL     1      39.960 -25.306 -15.139  0.00  0.00    +0.241 C 
ATOM     20  H   UNL     1      39.608 -23.823 -16.473  0.00  0.00    +0.177 HD
ENDBRANCH   3  16
BRANCH   9  21
ATOM     21  C   UNL     1      30.187 -23.349 -15.640  0.00  0.00    +0.015 C 
ATOM     22  C   UNL     1      29.353 -22.435 -14.996  0.00  0.00    +0.002 C 
ATOM     23  C   UNL     1      29.759 -23.983 -16.806  0.00  0.00    +0.002 C 
ATOM     24  C   UNL     1      28.091 -22.154 -15.520  0.00  0.00    +0.037 C 
ATOM     25  C   UNL     1      28.498 -23.702 -17.330  0.00  0.00    +0.037 C 
ATOM     26  C   UNL     1      27.664 -22.788 -16.687  0.00  0.00    +0.139 C 
BRANCH  26  27
ATOM     27  O   UNL     1      26.433 -22.514 -17.198  0.00  0.00    -0.471 OA
ATOM     28  C   UNL     1      26.307 -21.336 -17.994  0.00  0.00    +0.252 C 
ENDBRANCH  26  27
ENDBRANCH   9  21
TORSDOF 3
ENDMDL
MODEL 8
REMARK VINA RESULT:      -9.7      6.093      9.982
REMARK  Name = 4823
REMARK  3 active torsions:
REMARK  status: ('A' for Active; 'I' for Inactive)
REMARK    1  A    between atoms: C_3  and  C_16
REMARK    2  A    between atoms: C_9  and  C_21
REMARK    3  A    between atoms: C_26  and  O_27
REMARK                            x       y       z     vdW  Elec       q    Type
REMARK                         _______ _______ _______ _____ _____    ______ ____
ROOT
ATOM      1  N   UNL     1      34.362 -11.938 -23.008  0.00  0.00    -0.315 N 
ATOM      2  N   UNL     1      33.734 -11.888 -25.139  0.00  0.00    -0.315 N 
ATOM      3  C   UNL     1      34.869 -15.567 -23.602  0.00  0.00    +0.016 C 
ATOM      4  C   UNL     1      34.475 -13.230 -23.453  0.00  0.00    +0.059 C 
ATOM      5  C   UNL     1      34.878 -14.408 -22.824  0.00  0.00    +0.017 C 
ATOM      6  C   UNL     1      34.078 -13.173 -24.786  0.00  0.00    +0.059 C 
ATOM      7  C   UNL     1      34.478 -15.546 -24.940  0.00  0.00    +0.003 C 
ATOM      8  C   UNL     1      34.077 -14.352 -25.551  0.00  0.00    +0.016 C 
ATOM      9  C   UNL     1      33.917 -11.175 -24.051  0.00  0.00    +0.168 C 
ATOM     10  H   UNL     1      34.566 -11.618 -22.099  0.00  0.00    +0.149 HD
ATOM     11  H   UNL     1      33.421 -11.572 -26.018  0.00  0.00    +0.149 HD
ENDROOT
BRANCH   3  16
ATOM     12  O   UNL     1      36.795 -20.120 -21.155  0.00  0.00    -0.273 OA
ATOM     13  N   UNL     1      35.201 -16.999 -21.694  0.00  0.00    -0.184 NA
ATOM     14  N   UNL     1      35.622 -18.150 -21.121  0.00  0.00    -0.206 N 
ATOM     15  C   UNL     1      35.785 -17.999 -23.873  0.00  0.00    +0.051 C 
ATOM     16  C   UNL     1      35.294 -16.866 -22.983  0.00  0.00    +0.076 C 
ATOM     17  C   UNL     1      36.863 -18.765 -23.122  0.00  0.00    +0.093 C 
ATOM     18  C   UNL     1      34.618 -18.907 -24.265  0.00  0.00    +0.007 C 
ATOM     19  C   UNL     1      36.415 -19.097 -21.726  0.00  0.00    +0.241 C 
ATOM     20  H   UNL     1      35.338 -18.324 -20.195  0.00  0.00    +0.177 HD
ENDBRANCH   3  16
BRANCH   9  21
ATOM     21  C   UNL     1      33.691  -9.756 -23.918  0.00  0.00    +0.015 C 
ATOM     22  C   UNL     1      34.754  -8.865 -24.061  0.00  0.00    +0.002 C 
ATOM     23  C   UNL     1      32.410  -9.276 -23.644  0.00  0.00    +0.002 C 
ATOM     24  C   UNL     1      34.536  -7.493 -23.933  0.00  0.00    +0.037 C 
ATOM     25  C   UNL     1      32.192  -7.905 -23.516  0.00  0.00    +0.037 C 
ATOM     26  C   UNL     1      33.255  -7.013 -23.661  0.00  0.00    +0.139 C 
BRANCH  26  27
ATOM     27  O   UNL     1      33.042  -5.675 -23.535  0.00  0.00    -0.471 OA
ATOM     28  C   UNL     1      31.782  -5.264 -23.005  0.00  0.00    +0.252 C 
ENDBRANCH  26  27
ENDBRANCH   9  21
TORSDOF 3
ENDMDL
MODEL 9
REMARK VINA RESULT:      -9.7      2.374      3.183
REMARK  Name = 4823
REMARK  3 active torsions:
REMARK  status: ('A' for Active; 'I' for Inactive)
REMARK    1  A    between atoms: C_3  and  C_16
REMARK    2  A    between atoms: C_9  and  C_21
REMARK    3  A    between atoms: C_26  and  O_27
REMARK                            x       y       z     vdW  Elec       q    Type
REMARK                         _______ _______ _______ _____ _____    ______ ____
ROOT
ATOM      1  N   UNL     1      33.730 -20.482 -20.811  0.00  0.00    -0.315 N 
ATOM      2  N   UNL     1      35.951 -20.564 -20.776  0.00  0.00    -0.315 N 
ATOM      3  C   UNL     1      33.949 -22.633 -17.794  0.00  0.00    +0.016 C 
ATOM      4  C   UNL     1      34.050 -21.260 -19.729  0.00  0.00    +0.059 C 
ATOM      5  C   UNL     1      33.267 -21.915 -18.779  0.00  0.00    +0.017 C 
ATOM      6  C   UNL     1      35.442 -21.296 -19.728  0.00  0.00    +0.059 C 
ATOM      7  C   UNL     1      35.341 -22.690 -17.763  0.00  0.00    +0.003 C 
ATOM      8  C   UNL     1      36.108 -22.024 -18.728  0.00  0.00    +0.016 C 
ATOM      9  C   UNL     1      34.898 -20.091 -21.404  0.00  0.00    +0.168 C 
ATOM     10  H   UNL     1      32.821 -20.248 -21.108  0.00  0.00    +0.149 HD
ATOM     11  H   UNL     1      36.898 -20.425 -21.006  0.00  0.00    +0.149 HD
ENDROOT
BRANCH   3  16
ATOM     12  O   UNL     1      31.245 -25.690 -14.084  0.00  0.00    -0.273 OA
ATOM     13  N   UNL     1      33.795 -23.851 -15.721  0.00  0.00    -0.184 NA
ATOM     14  N   UNL     1      33.101 -24.545 -14.791  0.00  0.00    -0.206 N 
ATOM     15  C   UNL     1      31.649 -23.470 -16.878  0.00  0.00    +0.051 C 
ATOM     16  C   UNL     1      33.162 -23.359 -16.742  0.00  0.00    +0.076 C 
ATOM     17  C   UNL     1      31.215 -24.809 -16.304  0.00  0.00    +0.093 C 
ATOM     18  C   UNL     1      30.967 -22.302 -16.163  0.00  0.00    +0.007 C 
ATOM     19  C   UNL     1      31.829 -25.042 -14.952  0.00  0.00    +0.241 C 
ATOM     20  H   UNL     1      33.543 -24.708 -13.926  0.00  0.00    +0.177 HD
ENDBRANCH   3  16
BRANCH   9  21
ATOM     21  C   UNL     1      34.916 -19.254 -22.580  0.00  0.00    +0.015 C 
ATOM     22  C   UNL     1      35.450 -17.968 -22.511  0.00  0.00    +0.002 C 
ATOM     23  C   UNL     1      34.395 -19.731 -23.783  0.00  0.00    +0.002 C 
ATOM     24  C   UNL     1      35.467 -17.159 -23.648  0.00  0.00    +0.037 C 
ATOM     25  C   UNL     1      34.412 -18.922 -24.919  0.00  0.00    +0.037 C 
ATOM     26  C   UNL     1      34.949 -17.636 -24.851  0.00  0.00    +0.139 C 
BRANCH  26  27
ATOM     27  O   UNL     1      34.965 -16.846 -25.959  0.00  0.00    -0.471 OA
ATOM     28  C   UNL     1      34.142 -15.680 -25.939  0.00  0.00    +0.252 C 
ENDBRANCH  26  27
ENDBRANCH   9  21
TORSDOF 3
ENDMDL
