MODEL 1
REMARK VINA RESULT:     -12.3      0.000      0.000
REMARK  Name = 44141871
REMARK  6 active torsions:
REMARK  status: ('A' for Active; 'I' for Inactive)
REMARK    1  A    between atoms: C_1  and  C_10
REMARK    2  A    between atoms: C_4  and  O_20
REMARK    3  A    between atoms: C_9  and  C_13
REMARK    4  A    between atoms: C_13  and  C_15
REMARK    5  A    between atoms: O_20  and  C_21
REMARK    6  A    between atoms: C_21  and  C_23
REMARK                            x       y       z     vdW  Elec       q    Type
REMARK                         _______ _______ _______ _____ _____    ______ ____
ROOT
ATOM      1  C   UNL     1      35.394 -18.335 -23.083  0.00  0.00    +0.015 C 
ATOM      2  C   UNL     1      36.691 -18.212 -22.584  0.00  0.00    +0.004 C 
ATOM      3  C   UNL     1      34.509 -19.246 -22.507  0.00  0.00    +0.004 C 
ATOM      4  C   UNL     1      36.217 -19.911 -20.933  0.00  0.00    +0.139 C 
ATOM      5  C   UNL     1      37.102 -19.000 -21.509  0.00  0.00    +0.037 C 
ATOM      6  C   UNL     1      34.920 -20.033 -21.432  0.00  0.00    +0.037 C 
ENDROOT
BRANCH   1  10
ATOM      7  N   UNL     1      34.465 -18.050 -25.344  0.00  0.00    -0.236 N 
ATOM      8  N   UNL     1      34.126 -17.130 -26.265  0.00  0.00    -0.180 NA
ATOM      9  C   UNL     1      34.961 -16.157 -24.373  0.00  0.00    +0.018 C 
ATOM     10  C   UNL     1      34.969 -17.519 -24.194  0.00  0.00    +0.063 C 
ATOM     11  C   UNL     1      34.432 -15.976 -25.666  0.00  0.00    +0.115 C 
ATOM     12  H   UNL     1      34.357 -19.018 -25.488  0.00  0.00    +0.174 HD
BRANCH   9  13
ATOM     13  C   UNL     1      35.404 -15.112 -23.435  0.00  0.00    +0.056 C 
BRANCH  13  15
ATOM     14  N   UNL     1      32.227 -13.310 -21.130  0.00  0.00    -0.242 NA
ATOM     15  C   UNL     1      34.284 -14.476 -22.622  0.00  0.00    -0.015 C 
ATOM     16  C   UNL     1      34.106 -14.825 -21.287  0.00  0.00    +0.017 C 
ATOM     17  C   UNL     1      33.436 -13.546 -23.211  0.00  0.00    +0.017 C 
ATOM     18  C   UNL     1      33.072 -14.219 -20.592  0.00  0.00    +0.099 C 
ATOM     19  C   UNL     1      32.432 -12.996 -22.429  0.00  0.00    +0.099 C 
ENDBRANCH  13  15
ENDBRANCH   9  13
ENDBRANCH   1  10
BRANCH   4  20
ATOM     20  O   UNL     1      36.619 -20.683 -19.875  0.00  0.00    -0.468 OA
BRANCH  20  21
ATOM     21  C   UNL     1      35.782 -21.777 -19.525  0.00  0.00    +0.264 C 
BRANCH  21  23
ATOM     22  N   UNL     1      35.082 -22.863 -17.478  0.00  0.00    -0.406 NA
ATOM     23  C   UNL     1      36.062 -22.185 -18.117  0.00  0.00    +0.152 C 
ATOM     24  C   UNL     1      36.506 -22.962 -15.538  0.00  0.00    +0.026 C 
ATOM     25  C   UNL     1      35.298 -23.248 -16.207  0.00  0.00    +0.113 C 
ATOM     26  C   UNL     1      37.275 -21.858 -17.546  0.00  0.00    +0.031 C 
ATOM     27  C   UNL     1      37.495 -22.256 -16.235  0.00  0.00    +0.005 C 
ATOM     28  C   UNL     1      36.698 -23.379 -14.210  0.00  0.00    +0.002 C 
ATOM     29  C   UNL     1      34.315 -23.949 -15.513  0.00  0.00    +0.085 C 
ATOM     30  C   UNL     1      35.698 -24.079 -13.539  0.00  0.00    -0.004 C 
ATOM     31  C   UNL     1      34.506 -24.365 -14.192  0.00  0.00    -0.019 C 
ENDBRANCH  21  23
ENDBRANCH  20  21
ENDBRANCH   4  20
TORSDOF 6
ENDMDL
MODEL 2
REMARK VINA RESULT:     -12.2      0.885      1.596
REMARK  Name = 44141871
REMARK  6 active torsions:
REMARK  status: ('A' for Active; 'I' for Inactive)
REMARK    1  A    between atoms: C_1  and  C_10
REMARK    2  A    between atoms: C_4  and  O_20
REMARK    3  A    between atoms: C_9  and  C_13
REMARK    4  A    between atoms: C_13  and  C_15
REMARK    5  A    between atoms: O_20  and  C_21
REMARK    6  A    between atoms: C_21  and  C_23
REMARK                            x       y       z     vdW  Elec       q    Type
REMARK                         _______ _______ _______ _____ _____    ______ ____
ROOT
ATOM      1  C   UNL     1      35.349 -18.303 -23.068  0.00  0.00    +0.015 C 
ATOM      2  C   UNL     1      36.634 -18.169 -22.542  0.00  0.00    +0.004 C 
ATOM      3  C   UNL     1      34.451 -19.202 -22.493  0.00  0.00    +0.004 C 
ATOM      4  C   UNL     1      36.121 -19.832 -20.866  0.00  0.00    +0.139 C 
ATOM      5  C   UNL     1      37.020 -18.933 -21.441  0.00  0.00    +0.037 C 
ATOM      6  C   UNL     1      34.837 -19.966 -21.392  0.00  0.00    +0.037 C 
ENDROOT
BRANCH   1  10
ATOM      7  N   UNL     1      34.454 -18.067 -25.349  0.00  0.00    -0.236 N 
ATOM      8  N   UNL     1      34.141 -17.168 -26.298  0.00  0.00    -0.180 NA
ATOM      9  C   UNL     1      34.964 -16.156 -24.422  0.00  0.00    +0.018 C 
ATOM     10  C   UNL     1      34.950 -17.512 -24.207  0.00  0.00    +0.063 C 
ATOM     11  C   UNL     1      34.454 -16.002 -25.726  0.00  0.00    +0.115 C 
ATOM     12  H   UNL     1      34.336 -19.037 -25.468  0.00  0.00    +0.174 HD
BRANCH   9  13
ATOM     13  C   UNL     1      35.408 -15.092 -23.505  0.00  0.00    +0.056 C 
BRANCH  13  15
ATOM     14  N   UNL     1      32.263 -13.372 -21.097  0.00  0.00    -0.242 NA
ATOM     15  C   UNL     1      34.299 -14.485 -22.656  0.00  0.00    -0.015 C 
ATOM     16  C   UNL     1      34.153 -14.862 -21.325  0.00  0.00    +0.017 C 
ATOM     17  C   UNL     1      33.428 -13.552 -23.207  0.00  0.00    +0.017 C 
ATOM     18  C   UNL     1      33.129 -14.282 -20.596  0.00  0.00    +0.099 C 
ATOM     19  C   UNL     1      32.436 -13.030 -22.393  0.00  0.00    +0.099 C 
ENDBRANCH  13  15
ENDBRANCH   9  13
ENDBRANCH   1  10
BRANCH   4  20
ATOM     20  O   UNL     1      36.499 -20.580 -19.782  0.00  0.00    -0.468 OA
BRANCH  20  21
ATOM     21  C   UNL     1      36.277 -21.982 -19.863  0.00  0.00    +0.264 C 
BRANCH  21  23
ATOM     22  N   UNL     1      35.831 -22.746 -17.609  0.00  0.00    -0.406 NA
ATOM     23  C   UNL     1      35.307 -22.392 -18.805  0.00  0.00    +0.152 C 
ATOM     24  C   UNL     1      33.590 -23.154 -16.824  0.00  0.00    +0.026 C 
ATOM     25  C   UNL     1      34.987 -23.122 -16.631  0.00  0.00    +0.113 C 
ATOM     26  C   UNL     1      33.957 -22.393 -19.089  0.00  0.00    +0.031 C 
ATOM     27  C   UNL     1      33.089 -22.781 -18.078  0.00  0.00    +0.005 C 
ATOM     28  C   UNL     1      32.738 -23.552 -15.779  0.00  0.00    +0.002 C 
ATOM     29  C   UNL     1      35.484 -23.493 -15.384  0.00  0.00    +0.085 C 
ATOM     30  C   UNL     1      33.263 -23.918 -14.543  0.00  0.00    -0.004 C 
ATOM     31  C   UNL     1      34.637 -23.888 -14.345  0.00  0.00    -0.019 C 
ENDBRANCH  21  23
ENDBRANCH  20  21
ENDBRANCH   4  20
TORSDOF 6
ENDMDL
MODEL 3
REMARK VINA RESULT:     -12.1      3.174      6.354
REMARK  Name = 44141871
REMARK  6 active torsions:
REMARK  status: ('A' for Active; 'I' for Inactive)
REMARK    1  A    between atoms: C_1  and  C_10
REMARK    2  A    between atoms: C_4  and  O_20
REMARK    3  A    between atoms: C_9  and  C_13
REMARK    4  A    between atoms: C_13  and  C_15
REMARK    5  A    between atoms: O_20  and  C_21
REMARK    6  A    between atoms: C_21  and  C_23
REMARK                            x       y       z     vdW  Elec       q    Type
REMARK                         _______ _______ _______ _____ _____    ______ ____
ROOT
ATOM      1  C   UNL     1      33.216 -13.357 -21.497  0.00  0.00    +0.015 C 
ATOM      2  C   UNL     1      33.234 -13.332 -22.892  0.00  0.00    +0.004 C 
ATOM      3  C   UNL     1      34.031 -14.254 -20.806  0.00  0.00    +0.004 C 
ATOM      4  C   UNL     1      34.882 -15.099 -22.903  0.00  0.00    +0.139 C 
ATOM      5  C   UNL     1      34.067 -14.203 -23.594  0.00  0.00    +0.037 C 
ATOM      6  C   UNL     1      34.863 -15.124 -21.508  0.00  0.00    +0.037 C 
ENDROOT
BRANCH   1  10
ATOM      7  N   UNL     1      32.071 -12.618 -19.448  0.00  0.00    -0.236 N 
ATOM      8  N   UNL     1      31.249 -11.678 -18.949  0.00  0.00    -0.180 NA
ATOM      9  C   UNL     1      31.673 -11.332 -21.168  0.00  0.00    +0.018 C 
ATOM     10  C   UNL     1      32.355 -12.456 -20.771  0.00  0.00    +0.063 C 
ATOM     11  C   UNL     1      31.009 -10.895 -20.005  0.00  0.00    +0.115 C 
ATOM     12  H   UNL     1      32.434 -13.356 -18.906  0.00  0.00    +0.174 HD
BRANCH   9  13
ATOM     13  C   UNL     1      31.634 -10.713 -22.504  0.00  0.00    +0.056 C 
BRANCH  13  15
ATOM     14  N   UNL     1      34.439  -7.477 -23.062  0.00  0.00    -0.242 NA
ATOM     15  C   UNL     1      32.623  -9.572 -22.701  0.00  0.00    -0.015 C 
ATOM     16  C   UNL     1      33.597  -9.656 -23.690  0.00  0.00    +0.017 C 
ATOM     17  C   UNL     1      32.556  -8.443 -21.893  0.00  0.00    +0.017 C 
ATOM     18  C   UNL     1      34.473  -8.591 -23.828  0.00  0.00    +0.099 C 
ATOM     19  C   UNL     1      33.479  -7.432 -22.112  0.00  0.00    +0.099 C 
ENDBRANCH  13  15
ENDBRANCH   9  13
ENDBRANCH   1  10
BRANCH   4  20
ATOM     20  O   UNL     1      35.702 -15.952 -23.592  0.00  0.00    -0.468 OA
BRANCH  20  21
ATOM     21  C   UNL     1      35.165 -17.224 -23.931  0.00  0.00    +0.264 C 
BRANCH  21  23
ATOM     22  N   UNL     1      34.535 -18.946 -22.351  0.00  0.00    -0.406 NA
ATOM     23  C   UNL     1      35.542 -18.217 -22.883  0.00  0.00    +0.152 C 
ATOM     24  C   UNL     1      36.160 -20.053 -20.959  0.00  0.00    +0.026 C 
ATOM     25  C   UNL     1      34.836 -19.852 -21.402  0.00  0.00    +0.113 C 
ATOM     26  C   UNL     1      36.866 -18.342 -22.514  0.00  0.00    +0.031 C 
ATOM     27  C   UNL     1      37.174 -19.277 -21.536  0.00  0.00    +0.005 C 
ATOM     28  C   UNL     1      36.439 -21.009 -19.967  0.00  0.00    +0.002 C 
ATOM     29  C   UNL     1      33.829 -20.624 -20.828  0.00  0.00    +0.085 C 
ATOM     30  C   UNL     1      35.412 -21.766 -19.410  0.00  0.00    -0.004 C 
ATOM     31  C   UNL     1      34.106 -21.574 -19.842  0.00  0.00    -0.019 C 
ENDBRANCH  21  23
ENDBRANCH  20  21
ENDBRANCH   4  20
TORSDOF 6
ENDMDL
MODEL 4
REMARK VINA RESULT:     -12.0      2.672     10.010
REMARK  Name = 44141871
REMARK  6 active torsions:
REMARK  status: ('A' for Active; 'I' for Inactive)
REMARK    1  A    between atoms: C_1  and  C_10
REMARK    2  A    between atoms: C_4  and  O_20
REMARK    3  A    between atoms: C_9  and  C_13
REMARK    4  A    between atoms: C_13  and  C_15
REMARK    5  A    between atoms: O_20  and  C_21
REMARK    6  A    between atoms: C_21  and  C_23
REMARK                            x       y       z     vdW  Elec       q    Type
REMARK                         _______ _______ _______ _____ _____    ______ ____
ROOT
ATOM      1  C   UNL     1      34.746 -22.874 -17.427  0.00  0.00    +0.015 C 
ATOM      2  C   UNL     1      33.691 -22.737 -18.329  0.00  0.00    +0.004 C 
ATOM      3  C   UNL     1      35.990 -22.318 -17.720  0.00  0.00    +0.004 C 
ATOM      4  C   UNL     1      35.125 -21.486 -19.817  0.00  0.00    +0.139 C 
ATOM      5  C   UNL     1      33.880 -22.042 -19.523  0.00  0.00    +0.037 C 
ATOM      6  C   UNL     1      36.180 -21.623 -18.915  0.00  0.00    +0.037 C 
ENDROOT
BRANCH   1  10
ATOM      7  N   UNL     1      35.413 -24.552 -15.754  0.00  0.00    -0.236 N 
ATOM      8  N   UNL     1      35.058 -25.108 -14.582  0.00  0.00    -0.180 NA
ATOM      9  C   UNL     1      33.559 -23.514 -15.242  0.00  0.00    +0.018 C 
ATOM     10  C   UNL     1      34.549 -23.592 -16.191  0.00  0.00    +0.063 C 
ATOM     11  C   UNL     1      33.926 -24.470 -14.274  0.00  0.00    +0.115 C 
ATOM     12  H   UNL     1      36.222 -24.813 -16.249  0.00  0.00    +0.174 HD
BRANCH   9  13
ATOM     13  C   UNL     1      32.378 -22.635 -15.226  0.00  0.00    +0.056 C 
BRANCH  13  15
ATOM     14  N   UNL     1      28.709 -24.540 -16.474  0.00  0.00    -0.242 NA
ATOM     15  C   UNL     1      31.084 -23.307 -15.666  0.00  0.00    -0.015 C 
ATOM     16  C   UNL     1      30.249 -22.679 -16.585  0.00  0.00    +0.017 C 
ATOM     17  C   UNL     1      30.732 -24.550 -15.152  0.00  0.00    +0.017 C 
ATOM     18  C   UNL     1      29.084 -23.332 -16.953  0.00  0.00    +0.099 C 
ATOM     19  C   UNL     1      29.545 -25.119 -15.584  0.00  0.00    +0.099 C 
ENDBRANCH  13  15
ENDBRANCH   9  13
ENDBRANCH   1  10
BRANCH   4  20
ATOM     20  O   UNL     1      35.311 -20.801 -20.988  0.00  0.00    -0.468 OA
BRANCH  20  21
ATOM     21  C   UNL     1      36.382 -19.867 -21.022  0.00  0.00    +0.264 C 
BRANCH  21  23
ATOM     22  N   UNL     1      35.605 -17.580 -21.182  0.00  0.00    -0.406 NA
ATOM     23  C   UNL     1      35.988 -18.690 -21.852  0.00  0.00    +0.152 C 
ATOM     24  C   UNL     1      35.254 -16.500 -23.307  0.00  0.00    +0.026 C 
ATOM     25  C   UNL     1      35.242 -16.498 -21.897  0.00  0.00    +0.113 C 
ATOM     26  C   UNL     1      36.031 -18.788 -23.227  0.00  0.00    +0.031 C 
ATOM     27  C   UNL     1      35.657 -17.672 -23.962  0.00  0.00    +0.005 C 
ATOM     28  C   UNL     1      34.869 -15.353 -24.021  0.00  0.00    +0.002 C 
ATOM     29  C   UNL     1      34.842 -15.334 -21.247  0.00  0.00    +0.085 C 
ATOM     30  C   UNL     1      34.472 -14.202 -23.346  0.00  0.00    -0.004 C 
ATOM     31  C   UNL     1      34.459 -14.193 -21.957  0.00  0.00    -0.019 C 
ENDBRANCH  21  23
ENDBRANCH  20  21
ENDBRANCH   4  20
TORSDOF 6
ENDMDL
MODEL 5
REMARK VINA RESULT:     -12.0      1.818      2.384
REMARK  Name = 44141871
REMARK  6 active torsions:
REMARK  status: ('A' for Active; 'I' for Inactive)
REMARK    1  A    between atoms: C_1  and  C_10
REMARK    2  A    between atoms: C_4  and  O_20
REMARK    3  A    between atoms: C_9  and  C_13
REMARK    4  A    between atoms: C_13  and  C_15
REMARK    5  A    between atoms: O_20  and  C_21
REMARK    6  A    between atoms: C_21  and  C_23
REMARK                            x       y       z     vdW  Elec       q    Type
REMARK                         _______ _______ _______ _____ _____    ______ ____
ROOT
ATOM      1  C   UNL     1      35.107 -19.033 -22.580  0.00  0.00    +0.015 C 
ATOM      2  C   UNL     1      36.351 -19.214 -21.977  0.00  0.00    +0.004 C 
ATOM      3  C   UNL     1      33.987 -19.699 -22.081  0.00  0.00    +0.004 C 
ATOM      4  C   UNL     1      35.357 -20.727 -20.377  0.00  0.00    +0.139 C 
ATOM      5  C   UNL     1      36.476 -20.061 -20.876  0.00  0.00    +0.037 C 
ATOM      6  C   UNL     1      34.112 -20.545 -20.980  0.00  0.00    +0.037 C 
ENDROOT
BRANCH   1  10
ATOM      7  N   UNL     1      34.610 -18.605 -24.953  0.00  0.00    -0.236 N 
ATOM      8  N   UNL     1      34.547 -17.639 -25.886  0.00  0.00    -0.180 NA
ATOM      9  C   UNL     1      35.170 -16.803 -23.852  0.00  0.00    +0.018 C 
ATOM     10  C   UNL     1      34.978 -18.157 -23.719  0.00  0.00    +0.063 C 
ATOM     11  C   UNL     1      34.890 -16.540 -25.207  0.00  0.00    +0.115 C 
ATOM     12  H   UNL     1      34.409 -19.550 -25.144  0.00  0.00    +0.174 HD
BRANCH   9  13
ATOM     13  C   UNL     1      35.576 -15.834 -22.820  0.00  0.00    +0.056 C 
BRANCH  13  15
ATOM     14  N   UNL     1      32.411 -13.229 -21.461  0.00  0.00    -0.242 NA
ATOM     15  C   UNL     1      34.460 -14.915 -22.341  0.00  0.00    -0.015 C 
ATOM     16  C   UNL     1      34.008 -14.993 -21.027  0.00  0.00    +0.017 C 
ATOM     17  C   UNL     1      33.889 -13.997 -23.213  0.00  0.00    +0.017 C 
ATOM     18  C   UNL     1      32.991 -14.135 -20.641  0.00  0.00    +0.099 C 
ATOM     19  C   UNL     1      32.877 -13.184 -22.729  0.00  0.00    +0.099 C 
ENDBRANCH  13  15
ENDBRANCH   9  13
ENDBRANCH   1  10
BRANCH   4  20
ATOM     20  O   UNL     1      35.478 -21.555 -19.293  0.00  0.00    -0.468 OA
BRANCH  20  21
ATOM     21  C   UNL     1      34.711 -22.752 -19.312  0.00  0.00    +0.264 C 
BRANCH  21  23
ATOM     22  N   UNL     1      32.653 -22.852 -18.042  0.00  0.00    -0.406 NA
ATOM     23  C   UNL     1      34.004 -22.909 -18.008  0.00  0.00    +0.152 C 
ATOM     24  C   UNL     1      32.644 -23.187 -15.657  0.00  0.00    +0.026 C 
ATOM     25  C   UNL     1      31.980 -22.989 -16.885  0.00  0.00    +0.113 C 
ATOM     26  C   UNL     1      34.741 -23.099 -16.857  0.00  0.00    +0.031 C 
ATOM     27  C   UNL     1      34.045 -23.240 -15.665  0.00  0.00    +0.005 C 
ATOM     28  C   UNL     1      31.909 -23.327 -14.467  0.00  0.00    +0.002 C 
ATOM     29  C   UNL     1      30.588 -22.936 -16.876  0.00  0.00    +0.085 C 
ATOM     30  C   UNL     1      30.519 -23.270 -14.487  0.00  0.00    -0.004 C 
ATOM     31  C   UNL     1      29.858 -23.075 -15.693  0.00  0.00    -0.019 C 
ENDBRANCH  21  23
ENDBRANCH  20  21
ENDBRANCH   4  20
TORSDOF 6
ENDMDL
MODEL 6
REMARK VINA RESULT:     -11.8      2.210     10.621
REMARK  Name = 44141871
REMARK  6 active torsions:
REMARK  status: ('A' for Active; 'I' for Inactive)
REMARK    1  A    between atoms: C_1  and  C_10
REMARK    2  A    between atoms: C_4  and  O_20
REMARK    3  A    between atoms: C_9  and  C_13
REMARK    4  A    between atoms: C_13  and  C_15
REMARK    5  A    between atoms: O_20  and  C_21
REMARK    6  A    between atoms: C_21  and  C_23
REMARK                            x       y       z     vdW  Elec       q    Type
REMARK                         _______ _______ _______ _____ _____    ______ ____
ROOT
ATOM      1  C   UNL     1      34.359 -22.834 -17.537  0.00  0.00    +0.015 C 
ATOM      2  C   UNL     1      33.427 -22.607 -18.550  0.00  0.00    +0.004 C 
ATOM      3  C   UNL     1      35.680 -22.417 -17.699  0.00  0.00    +0.004 C 
ATOM      4  C   UNL     1      35.139 -21.547 -19.887  0.00  0.00    +0.139 C 
ATOM      5  C   UNL     1      33.817 -21.964 -19.725  0.00  0.00    +0.037 C 
ATOM      6  C   UNL     1      36.070 -21.774 -18.873  0.00  0.00    +0.037 C 
ENDROOT
BRANCH   1  10
ATOM      7  N   UNL     1      32.671 -23.474 -15.863  0.00  0.00    -0.236 N 
ATOM      8  N   UNL     1      32.493 -24.150 -14.715  0.00  0.00    -0.180 NA
ATOM      9  C   UNL     1      34.667 -24.241 -15.411  0.00  0.00    +0.018 C 
ATOM     10  C   UNL     1      33.955 -23.498 -16.322  0.00  0.00    +0.063 C 
ATOM     11  C   UNL     1      33.715 -24.616 -14.444  0.00  0.00    +0.115 C 
ATOM     12  H   UNL     1      31.942 -23.005 -16.330  0.00  0.00    +0.174 HD
BRANCH   9  13
ATOM     13  C   UNL     1      36.101 -24.576 -15.430  0.00  0.00    +0.056 C 
BRANCH  13  15
ATOM     14  N   UNL     1      37.988 -24.600 -11.546  0.00  0.00    -0.242 NA
ATOM     15  C   UNL     1      36.766 -24.584 -14.060  0.00  0.00    -0.015 C 
ATOM     16  C   UNL     1      37.272 -25.770 -13.538  0.00  0.00    +0.017 C 
ATOM     17  C   UNL     1      36.871 -23.407 -13.327  0.00  0.00    +0.017 C 
ATOM     18  C   UNL     1      37.868 -25.724 -12.288  0.00  0.00    +0.099 C 
ATOM     19  C   UNL     1      37.484 -23.468 -12.087  0.00  0.00    +0.099 C 
ENDBRANCH  13  15
ENDBRANCH   9  13
ENDBRANCH   1  10
BRANCH   4  20
ATOM     20  O   UNL     1      35.521 -20.913 -21.039  0.00  0.00    -0.468 OA
BRANCH  20  21
ATOM     21  C   UNL     1      36.464 -19.857 -20.906  0.00  0.00    +0.264 C 
BRANCH  21  23
ATOM     22  N   UNL     1      35.661 -17.585 -21.139  0.00  0.00    -0.406 NA
ATOM     23  C   UNL     1      36.053 -18.714 -21.773  0.00  0.00    +0.152 C 
ATOM     24  C   UNL     1      35.288 -16.582 -23.297  0.00  0.00    +0.026 C 
ATOM     25  C   UNL     1      35.283 -16.532 -21.887  0.00  0.00    +0.113 C 
ATOM     26  C   UNL     1      36.091 -18.857 -23.145  0.00  0.00    +0.031 C 
ATOM     27  C   UNL     1      35.700 -17.770 -23.914  0.00  0.00    +0.005 C 
ATOM     28  C   UNL     1      34.887 -15.463 -24.047  0.00  0.00    +0.002 C 
ATOM     29  C   UNL     1      34.872 -15.351 -21.275  0.00  0.00    +0.085 C 
ATOM     30  C   UNL     1      34.480 -14.295 -23.408  0.00  0.00    -0.004 C 
ATOM     31  C   UNL     1      34.474 -14.239 -22.020  0.00  0.00    -0.019 C 
ENDBRANCH  21  23
ENDBRANCH  20  21
ENDBRANCH   4  20
TORSDOF 6
ENDMDL
MODEL 7
REMARK VINA RESULT:     -11.8      1.966     10.568
REMARK  Name = 44141871
REMARK  6 active torsions:
REMARK  status: ('A' for Active; 'I' for Inactive)
REMARK    1  A    between atoms: C_1  and  C_10
REMARK    2  A    between atoms: C_4  and  O_20
REMARK    3  A    between atoms: C_9  and  C_13
REMARK    4  A    between atoms: C_13  and  C_15
REMARK    5  A    between atoms: O_20  and  C_21
REMARK    6  A    between atoms: C_21  and  C_23
REMARK                            x       y       z     vdW  Elec       q    Type
REMARK                         _______ _______ _______ _____ _____    ______ ____
ROOT
ATOM      1  C   UNL     1      34.397 -21.818 -19.096  0.00  0.00    +0.015 C 
ATOM      2  C   UNL     1      35.776 -21.717 -19.280  0.00  0.00    +0.004 C 
ATOM      3  C   UNL     1      33.529 -21.153 -19.962  0.00  0.00    +0.004 C 
ATOM      4  C   UNL     1      35.418 -20.289 -21.196  0.00  0.00    +0.139 C 
ATOM      5  C   UNL     1      36.286 -20.953 -20.330  0.00  0.00    +0.037 C 
ATOM      6  C   UNL     1      34.039 -20.389 -21.012  0.00  0.00    +0.037 C 
ENDROOT
BRANCH   1  10
ATOM      7  N   UNL     1      32.560 -22.979 -17.941  0.00  0.00    -0.236 N 
ATOM      8  N   UNL     1      32.261 -23.712 -16.854  0.00  0.00    -0.180 NA
ATOM      9  C   UNL     1      34.471 -23.133 -16.892  0.00  0.00    +0.018 C 
ATOM     10  C   UNL     1      33.870 -22.608 -18.011  0.00  0.00    +0.063 C 
ATOM     11  C   UNL     1      33.432 -23.803 -16.217  0.00  0.00    +0.115 C 
ATOM     12  H   UNL     1      31.895 -22.735 -18.624  0.00  0.00    +0.174 HD
BRANCH   9  13
ATOM     13  C   UNL     1      35.881 -23.026 -16.480  0.00  0.00    +0.056 C 
BRANCH  13  15
ATOM     14  N   UNL     1      36.939 -25.455 -13.069  0.00  0.00    -0.242 NA
ATOM     15  C   UNL     1      36.254 -23.883 -15.277  0.00  0.00    -0.015 C 
ATOM     16  C   UNL     1      36.284 -23.323 -14.004  0.00  0.00    +0.017 C 
ATOM     17  C   UNL     1      36.566 -25.227 -15.447  0.00  0.00    +0.017 C 
ATOM     18  C   UNL     1      36.630 -24.145 -12.944  0.00  0.00    +0.099 C 
ATOM     19  C   UNL     1      36.899 -25.963 -14.321  0.00  0.00    +0.099 C 
ENDBRANCH  13  15
ENDBRANCH   9  13
ENDBRANCH   1  10
BRANCH   4  20
ATOM     20  O   UNL     1      35.918 -19.541 -22.228  0.00  0.00    -0.468 OA
BRANCH  20  21
ATOM     21  C   UNL     1      36.100 -18.153 -21.985  0.00  0.00    +0.264 C 
BRANCH  21  23
ATOM     22  N   UNL     1      35.309 -16.050 -22.887  0.00  0.00    -0.406 NA
ATOM     23  C   UNL     1      35.507 -17.370 -23.108  0.00  0.00    +0.152 C 
ATOM     24  C   UNL     1      34.423 -15.876 -25.120  0.00  0.00    +0.026 C 
ATOM     25  C   UNL     1      34.775 -15.311 -23.877  0.00  0.00    +0.113 C 
ATOM     26  C   UNL     1      35.194 -18.011 -24.289  0.00  0.00    +0.031 C 
ATOM     27  C   UNL     1      34.643 -17.247 -25.308  0.00  0.00    +0.005 C 
ATOM     28  C   UNL     1      33.867 -15.074 -26.132  0.00  0.00    +0.002 C 
ATOM     29  C   UNL     1      34.555 -13.949 -23.691  0.00  0.00    +0.085 C 
ATOM     30  C   UNL     1      33.658 -13.715 -25.919  0.00  0.00    -0.004 C 
ATOM     31  C   UNL     1      34.004 -13.151 -24.697  0.00  0.00    -0.019 C 
ENDBRANCH  21  23
ENDBRANCH  20  21
ENDBRANCH   4  20
TORSDOF 6
ENDMDL
MODEL 8
REMARK VINA RESULT:     -11.6      3.320      6.024
REMARK  Name = 44141871
REMARK  6 active torsions:
REMARK  status: ('A' for Active; 'I' for Inactive)
REMARK    1  A    between atoms: C_1  and  C_10
REMARK    2  A    between atoms: C_4  and  O_20
REMARK    3  A    between atoms: C_9  and  C_13
REMARK    4  A    between atoms: C_13  and  C_15
REMARK    5  A    between atoms: O_20  and  C_21
REMARK    6  A    between atoms: C_21  and  C_23
REMARK                            x       y       z     vdW  Elec       q    Type
REMARK                         _______ _______ _______ _____ _____    ______ ____
ROOT
ATOM      1  C   UNL     1      34.232 -12.655 -24.004  0.00  0.00    +0.015 C 
ATOM      2  C   UNL     1      33.899 -13.317 -25.186  0.00  0.00    +0.004 C 
ATOM      3  C   UNL     1      34.622 -13.386 -22.882  0.00  0.00    +0.004 C 
ATOM      4  C   UNL     1      34.346 -15.440 -24.124  0.00  0.00    +0.139 C 
ATOM      5  C   UNL     1      33.956 -14.709 -25.246  0.00  0.00    +0.037 C 
ATOM      6  C   UNL     1      34.680 -14.778 -22.942  0.00  0.00    +0.037 C 
ENDROOT
BRANCH   1  10
ATOM      7  N   UNL     1      35.190 -10.419 -24.381  0.00  0.00    -0.236 N 
ATOM      8  N   UNL     1      34.950  -9.104 -24.240  0.00  0.00    -0.180 NA
ATOM      9  C   UNL     1      33.200 -10.363 -23.483  0.00  0.00    +0.018 C 
ATOM     10  C   UNL     1      34.174 -11.215 -23.943  0.00  0.00    +0.063 C 
ATOM     11  C   UNL     1      33.733  -9.075 -23.691  0.00  0.00    +0.115 C 
ATOM     12  H   UNL     1      36.024 -10.774 -24.766  0.00  0.00    +0.174 HD
BRANCH   9  13
ATOM     13  C   UNL     1      31.891 -10.704 -22.900  0.00  0.00    +0.056 C 
BRANCH  13  15
ATOM     14  N   UNL     1      31.910 -11.196 -18.610  0.00  0.00    -0.242 NA
ATOM     15  C   UNL     1      31.898 -10.878 -21.387  0.00  0.00    -0.015 C 
ATOM     16  C   UNL     1      31.911  -9.762 -20.557  0.00  0.00    +0.017 C 
ATOM     17  C   UNL     1      31.890 -12.151 -20.830  0.00  0.00    +0.017 C 
ATOM     18  C   UNL     1      31.918  -9.973 -19.188  0.00  0.00    +0.099 C 
ATOM     19  C   UNL     1      31.897 -12.256 -19.449  0.00  0.00    +0.099 C 
ENDBRANCH  13  15
ENDBRANCH   9  13
ENDBRANCH   1  10
BRANCH   4  20
ATOM     20  O   UNL     1      34.405 -16.807 -24.183  0.00  0.00    -0.468 OA
BRANCH  20  21
ATOM     21  C   UNL     1      35.701 -17.391 -24.228  0.00  0.00    +0.264 C 
BRANCH  21  23
ATOM     22  N   UNL     1      34.731 -18.940 -22.641  0.00  0.00    -0.406 NA
ATOM     23  C   UNL     1      35.858 -18.339 -23.086  0.00  0.00    +0.152 C 
ATOM     24  C   UNL     1      36.070 -20.084 -20.997  0.00  0.00    +0.026 C 
ATOM     25  C   UNL     1      34.833 -19.801 -21.611  0.00  0.00    +0.113 C 
ATOM     26  C   UNL     1      37.111 -18.551 -22.549  0.00  0.00    +0.031 C 
ATOM     27  C   UNL     1      37.213 -19.439 -21.488  0.00  0.00    +0.005 C 
ATOM     28  C   UNL     1      36.140 -20.989 -19.924  0.00  0.00    +0.002 C 
ATOM     29  C   UNL     1      33.697 -20.443 -21.122  0.00  0.00    +0.085 C 
ATOM     30  C   UNL     1      34.989 -21.616 -19.455  0.00  0.00    -0.004 C 
ATOM     31  C   UNL     1      33.766 -21.343 -20.056  0.00  0.00    -0.019 C 
ENDBRANCH  21  23
ENDBRANCH  20  21
ENDBRANCH   4  20
TORSDOF 6
ENDMDL
MODEL 9
REMARK VINA RESULT:     -11.4      1.579      2.536
REMARK  Name = 44141871
REMARK  6 active torsions:
REMARK  status: ('A' for Active; 'I' for Inactive)
REMARK    1  A    between atoms: C_1  and  C_10
REMARK    2  A    between atoms: C_4  and  O_20
REMARK    3  A    between atoms: C_9  and  C_13
REMARK    4  A    between atoms: C_13  and  C_15
REMARK    5  A    between atoms: O_20  and  C_21
REMARK    6  A    between atoms: C_21  and  C_23
REMARK                            x       y       z     vdW  Elec       q    Type
REMARK                         _______ _______ _______ _____ _____    ______ ____
ROOT
ATOM      1  C   UNL     1      35.280 -19.928 -21.581  0.00  0.00    +0.015 C 
ATOM      2  C   UNL     1      36.539 -20.177 -21.036  0.00  0.00    +0.004 C 
ATOM      3  C   UNL     1      34.145 -20.501 -21.005  0.00  0.00    +0.004 C 
ATOM      4  C   UNL     1      35.530 -21.570 -19.338  0.00  0.00    +0.139 C 
ATOM      5  C   UNL     1      36.664 -20.997 -19.915  0.00  0.00    +0.037 C 
ATOM      6  C   UNL     1      34.271 -21.321 -19.883  0.00  0.00    +0.037 C 
ENDROOT
BRANCH   1  10
ATOM      7  N   UNL     1      34.845 -19.567 -23.976  0.00  0.00    -0.236 N 
ATOM      8  N   UNL     1      34.771 -18.621 -24.929  0.00  0.00    -0.180 NA
ATOM      9  C   UNL     1      35.286 -17.721 -22.893  0.00  0.00    +0.018 C 
ATOM     10  C   UNL     1      35.150 -19.080 -22.740  0.00  0.00    +0.063 C 
ATOM     11  C   UNL     1      35.040 -17.496 -24.261  0.00  0.00    +0.115 C 
ATOM     12  H   UNL     1      34.693 -20.523 -24.156  0.00  0.00    +0.174 HD
BRANCH   9  13
ATOM     13  C   UNL     1      35.613 -16.717 -21.867  0.00  0.00    +0.056 C 
BRANCH  13  15
ATOM     14  N   UNL     1      33.237 -13.116 -22.061  0.00  0.00    -0.242 NA
ATOM     15  C   UNL     1      34.775 -15.447 -21.935  0.00  0.00    -0.015 C 
ATOM     16  C   UNL     1      34.096 -14.998 -20.808  0.00  0.00    +0.017 C 
ATOM     17  C   UNL     1      34.687 -14.732 -23.124  0.00  0.00    +0.017 C 
ATOM     18  C   UNL     1      33.347 -13.837 -20.923  0.00  0.00    +0.099 C 
ATOM     19  C   UNL     1      33.912 -13.583 -23.135  0.00  0.00    +0.099 C 
ENDBRANCH  13  15
ENDBRANCH   9  13
ENDBRANCH   1  10
BRANCH   4  20
ATOM     20  O   UNL     1      35.653 -22.372 -18.235  0.00  0.00    -0.468 OA
BRANCH  20  21
ATOM     21  C   UNL     1      36.769 -22.131 -17.388  0.00  0.00    +0.264 C 
BRANCH  21  23
ATOM     22  N   UNL     1      37.787 -23.637 -15.789  0.00  0.00    -0.406 NA
ATOM     23  C   UNL     1      36.662 -22.990 -16.172  0.00  0.00    +0.152 C 
ATOM     24  C   UNL     1      36.541 -24.579 -13.956  0.00  0.00    +0.026 C 
ATOM     25  C   UNL     1      37.730 -24.421 -14.697  0.00  0.00    +0.113 C 
ATOM     26  C   UNL     1      35.454 -23.083 -15.513  0.00  0.00    +0.031 C 
ATOM     27  C   UNL     1      35.398 -23.892 -14.387  0.00  0.00    +0.005 C 
ATOM     28  C   UNL     1      36.518 -25.406 -12.819  0.00  0.00    +0.002 C 
ATOM     29  C   UNL     1      38.865 -25.104 -14.267  0.00  0.00    +0.085 C 
ATOM     30  C   UNL     1      37.667 -26.078 -12.413  0.00  0.00    -0.004 C 
ATOM     31  C   UNL     1      38.842 -25.926 -13.138  0.00  0.00    -0.019 C 
ENDBRANCH  21  23
ENDBRANCH  20  21
ENDBRANCH   4  20
TORSDOF 6
ENDMDL
