MODEL 1
REMARK VINA RESULT:     -11.6      0.000      0.000
REMARK  Name = 24878044
REMARK  6 active torsions:
REMARK  status: ('A' for Active; 'I' for Inactive)
REMARK    1  A    between atoms: N_2  and  C_6
REMARK    2  A    between atoms: C_3  and  C_18
REMARK    3  A    between atoms: C_7  and  S_12
REMARK    4  A    between atoms: S_12  and  N_15
REMARK    5  A    between atoms: C_18  and  S_19
REMARK    6  A    between atoms: S_19  and  C_31
REMARK                            x       y       z     vdW  Elec       q    Type
REMARK                         _______ _______ _______ _____ _____    ______ ____
ROOT
ATOM      1  O   UNL     1      34.685 -19.110 -24.514  0.00  0.00    -0.274 OA
ATOM      2  N   UNL     1      35.403 -18.375 -22.401  0.00  0.00    -0.283 N 
ATOM      3  C   UNL     1      35.200 -18.277 -23.772  0.00  0.00    +0.238 C 
ATOM      4  H   UNL     1      35.846 -17.609 -21.970  0.00  0.00    +0.155 HD
ENDROOT
BRANCH   2   6
ATOM      5 CL   UNL     1      37.668 -19.687 -20.840  0.00  0.00    -0.081 Cl
ATOM      6  C   UNL     1      35.045 -19.450 -21.552  0.00  0.00    +0.061 C 
ATOM      7  C   UNL     1      34.271 -21.559 -19.898  0.00  0.00    +0.123 C 
ATOM      8  C   UNL     1      35.998 -20.124 -20.790  0.00  0.00    +0.072 C 
ATOM      9  C   UNL     1      33.704 -19.830 -21.487  0.00  0.00    +0.017 C 
ATOM     10  C   UNL     1      35.611 -21.178 -19.963  0.00  0.00    +0.033 C 
ATOM     11  C   UNL     1      33.316 -20.884 -20.660  0.00  0.00    +0.021 C 
BRANCH   7  12
ATOM     12  S   UNL     1      33.786 -22.879 -18.863  0.00  0.00    +0.057 S 
ATOM     13  O   UNL     1      32.485 -22.561 -18.291  0.00  0.00    -0.153 OA
ATOM     14  O   UNL     1      33.972 -24.128 -19.588  0.00  0.00    -0.153 OA
BRANCH  12  15
ATOM     15  N   UNL     1      34.968 -22.778 -17.632  0.00  0.00    -0.203 NA
ATOM     16  H   UNL     1      35.006 -21.823 -17.276  0.00  0.00    +0.144 HD
ATOM     17  H   UNL     1      35.878 -23.036 -18.013  0.00  0.00    +0.144 HD
ENDBRANCH  12  15
ENDBRANCH   7  12
ENDBRANCH   2   6
BRANCH   3  18
ATOM     18  C   UNL     1      35.721 -16.970 -24.331  0.00  0.00    +0.152 C 
BRANCH  18  19
ATOM     19  S   UNL     1      34.318 -15.898 -24.713  0.00  0.00    -0.047 S 
BRANCH  19  31
ATOM     20  O   UNL     1      34.688 -15.309 -22.203  0.00  0.00    -0.262 OA
ATOM     21  N   UNL     1      33.765 -13.556 -23.468  0.00  0.00    -0.250 N 
ATOM     22  C   UNL     1      34.234 -11.373 -24.568  0.00  0.00    +0.027 C 
ATOM     23  C   UNL     1      33.123 -10.692 -23.798  0.00  0.00    +0.029 C 
ATOM     24  C   UNL     1      33.896 -12.842 -24.756  0.00  0.00    +0.099 C 
ATOM     25  C   UNL     1      32.768 -11.467 -22.557  0.00  0.00    -0.009 C 
ATOM     26  C   UNL     1      33.073 -12.840 -22.411  0.00  0.00    +0.051 C 
ATOM     27  C   UNL     1      32.073 -10.781 -21.543  0.00  0.00    -0.007 C 
ATOM     28  C   UNL     1      32.641 -13.481 -21.234  0.00  0.00    +0.014 C 
ATOM     29  C   UNL     1      31.681 -11.434 -20.380  0.00  0.00    -0.022 C 
ATOM     30  C   UNL     1      31.961 -12.785 -20.229  0.00  0.00    -0.003 C 
ATOM     31  C   UNL     1      34.285 -14.857 -23.270  0.00  0.00    +0.280 C 
ATOM     32  C   UNL     1      30.979 -10.686 -19.299  0.00  0.00    +0.031 C 
ENDBRANCH  19  31
ENDBRANCH  18  19
ENDBRANCH   3  18
TORSDOF 6
ENDMDL
MODEL 2
REMARK VINA RESULT:     -11.5      1.205      2.372
REMARK  Name = 24878044
REMARK  6 active torsions:
REMARK  status: ('A' for Active; 'I' for Inactive)
REMARK    1  A    between atoms: N_2  and  C_6
REMARK    2  A    between atoms: C_3  and  C_18
REMARK    3  A    between atoms: C_7  and  S_12
REMARK    4  A    between atoms: S_12  and  N_15
REMARK    5  A    between atoms: C_18  and  S_19
REMARK    6  A    between atoms: S_19  and  C_31
REMARK                            x       y       z     vdW  Elec       q    Type
REMARK                         _______ _______ _______ _____ _____    ______ ____
ROOT
ATOM      1  O   UNL     1      35.019 -19.755 -24.380  0.00  0.00    -0.274 OA
ATOM      2  N   UNL     1      34.965 -18.666 -22.299  0.00  0.00    -0.283 N 
ATOM      3  C   UNL     1      35.072 -18.746 -23.683  0.00  0.00    +0.238 C 
ATOM      4  H   UNL     1      35.045 -17.766 -21.908  0.00  0.00    +0.155 HD
ENDROOT
BRANCH   2   6
ATOM      5 CL   UNL     1      37.439 -19.791 -20.922  0.00  0.00    -0.081 Cl
ATOM      6  C   UNL     1      34.752 -19.729 -21.389  0.00  0.00    +0.061 C 
ATOM      7  C   UNL     1      34.262 -21.819 -19.608  0.00  0.00    +0.123 C 
ATOM      8  C   UNL     1      35.810 -20.321 -20.701  0.00  0.00    +0.072 C 
ATOM      9  C   UNL     1      33.448 -20.182 -21.186  0.00  0.00    +0.017 C 
ATOM     10  C   UNL     1      35.565 -21.366 -19.810  0.00  0.00    +0.033 C 
ATOM     11  C   UNL     1      33.203 -21.227 -20.296  0.00  0.00    +0.021 C 
BRANCH   7  12
ATOM     12  S   UNL     1      33.955 -23.127 -18.493  0.00  0.00    +0.057 S 
ATOM     13  O   UNL     1      33.891 -24.370 -19.249  0.00  0.00    -0.153 OA
ATOM     14  O   UNL     1      34.878 -23.008 -17.374  0.00  0.00    -0.153 OA
BRANCH  12  15
ATOM     15  N   UNL     1      32.383 -22.731 -17.952  0.00  0.00    -0.203 NA
ATOM     16  H   UNL     1      31.750 -22.688 -18.751  0.00  0.00    +0.144 HD
ATOM     17  H   UNL     1      32.402 -21.826 -17.484  0.00  0.00    +0.144 HD
ENDBRANCH  12  15
ENDBRANCH   7  12
ENDBRANCH   2   6
BRANCH   3  18
ATOM     18  C   UNL     1      35.298 -17.388 -24.313  0.00  0.00    +0.152 C 
BRANCH  18  19
ATOM     19  S   UNL     1      35.480 -16.159 -23.002  0.00  0.00    -0.047 S 
BRANCH  19  31
ATOM     20  O   UNL     1      34.074 -14.824 -24.741  0.00  0.00    -0.262 OA
ATOM     21  N   UNL     1      33.798 -14.089 -22.526  0.00  0.00    -0.250 N 
ATOM     22  C   UNL     1      32.279 -14.095 -20.553  0.00  0.00    +0.027 C 
ATOM     23  C   UNL     1      32.274 -12.582 -20.493  0.00  0.00    +0.029 C 
ATOM     24  C   UNL     1      33.593 -14.576 -21.145  0.00  0.00    +0.099 C 
ATOM     25  C   UNL     1      32.678 -11.984 -21.814  0.00  0.00    -0.009 C 
ATOM     26  C   UNL     1      33.414 -12.712 -22.778  0.00  0.00    +0.051 C 
ATOM     27  C   UNL     1      32.331 -10.640 -22.050  0.00  0.00    -0.007 C 
ATOM     28  C   UNL     1      33.792 -12.035 -23.954  0.00  0.00    +0.014 C 
ATOM     29  C   UNL     1      32.696 -10.006 -23.231  0.00  0.00    -0.022 C 
ATOM     30  C   UNL     1      33.431 -10.703 -24.180  0.00  0.00    -0.003 C 
ATOM     31  C   UNL     1      34.330 -14.913 -23.545  0.00  0.00    +0.280 C 
ATOM     32  C   UNL     1      32.290  -8.595 -23.483  0.00  0.00    +0.031 C 
ENDBRANCH  19  31
ENDBRANCH  18  19
ENDBRANCH   3  18
TORSDOF 6
ENDMDL
MODEL 3
REMARK VINA RESULT:     -10.9      5.504     11.685
REMARK  Name = 24878044
REMARK  6 active torsions:
REMARK  status: ('A' for Active; 'I' for Inactive)
REMARK    1  A    between atoms: N_2  and  C_6
REMARK    2  A    between atoms: C_3  and  C_18
REMARK    3  A    between atoms: C_7  and  S_12
REMARK    4  A    between atoms: S_12  and  N_15
REMARK    5  A    between atoms: C_18  and  S_19
REMARK    6  A    between atoms: S_19  and  C_31
REMARK                            x       y       z     vdW  Elec       q    Type
REMARK                         _______ _______ _______ _____ _____    ______ ____
ROOT
ATOM      1  O   UNL     1      32.129 -22.151 -18.180  0.00  0.00    -0.274 OA
ATOM      2  N   UNL     1      34.390 -22.604 -18.632  0.00  0.00    -0.283 N 
ATOM      3  C   UNL     1      33.156 -22.806 -18.024  0.00  0.00    +0.238 C 
ATOM      4  H   UNL     1      35.109 -23.226 -18.374  0.00  0.00    +0.155 HD
ENDROOT
BRANCH   2   6
ATOM      5 CL   UNL     1      37.317 -21.761 -18.722  0.00  0.00    -0.081 Cl
ATOM      6  C   UNL     1      34.731 -21.610 -19.579  0.00  0.00    +0.061 C 
ATOM      7  C   UNL     1      35.334 -19.648 -21.468  0.00  0.00    +0.123 C 
ATOM      8  C   UNL     1      36.040 -21.147 -19.709  0.00  0.00    +0.072 C 
ATOM      9  C   UNL     1      33.723 -21.091 -20.393  0.00  0.00    +0.017 C 
ATOM     10  C   UNL     1      36.341 -20.166 -20.654  0.00  0.00    +0.033 C 
ATOM     11  C   UNL     1      34.025 -20.110 -21.338  0.00  0.00    +0.021 C 
BRANCH   7  12
ATOM     12  S   UNL     1      35.712 -18.420 -22.650  0.00  0.00    +0.057 S 
ATOM     13  O   UNL     1      35.059 -18.772 -23.903  0.00  0.00    -0.153 OA
ATOM     14  O   UNL     1      35.475 -17.113 -22.052  0.00  0.00    -0.153 OA
BRANCH  12  15
ATOM     15  N   UNL     1      37.397 -18.644 -22.826  0.00  0.00    -0.203 NA
ATOM     16  H   UNL     1      37.791 -17.864 -23.352  0.00  0.00    +0.144 HD
ATOM     17  H   UNL     1      37.574 -19.516 -23.324  0.00  0.00    +0.144 HD
ENDBRANCH  12  15
ENDBRANCH   7  12
ENDBRANCH   2   6
BRANCH   3  18
ATOM     18  C   UNL     1      33.182 -23.976 -17.063  0.00  0.00    +0.152 C 
BRANCH  18  19
ATOM     19  S   UNL     1      33.237 -23.341 -15.373  0.00  0.00    -0.047 S 
BRANCH  19  31
ATOM     20  O   UNL     1      35.632 -22.427 -15.834  0.00  0.00    -0.262 OA
ATOM     21  N   UNL     1      35.535 -24.018 -14.107  0.00  0.00    -0.250 N 
ATOM     22  C   UNL     1      35.593 -24.352 -11.640  0.00  0.00    +0.027 C 
ATOM     23  C   UNL     1      36.746 -25.327 -11.752  0.00  0.00    +0.029 C 
ATOM     24  C   UNL     1      34.759 -24.405 -12.909  0.00  0.00    +0.099 C 
ATOM     25  C   UNL     1      37.484 -25.150 -13.053  0.00  0.00    -0.009 C 
ATOM     26  C   UNL     1      36.893 -24.528 -14.177  0.00  0.00    +0.051 C 
ATOM     27  C   UNL     1      38.791 -25.668 -13.132  0.00  0.00    -0.007 C 
ATOM     28  C   UNL     1      37.651 -24.470 -15.361  0.00  0.00    +0.014 C 
ATOM     29  C   UNL     1      39.525 -25.574 -14.307  0.00  0.00    -0.022 C 
ATOM     30  C   UNL     1      38.953 -24.979 -15.423  0.00  0.00    -0.003 C 
ATOM     31  C   UNL     1      34.994 -23.197 -15.123  0.00  0.00    +0.280 C 
ATOM     32  C   UNL     1      40.921 -26.094 -14.365  0.00  0.00    +0.031 C 
ENDBRANCH  19  31
ENDBRANCH  18  19
ENDBRANCH   3  18
TORSDOF 6
ENDMDL
MODEL 4
REMARK VINA RESULT:     -10.5      3.432      5.140
REMARK  Name = 24878044
REMARK  6 active torsions:
REMARK  status: ('A' for Active; 'I' for Inactive)
REMARK    1  A    between atoms: N_2  and  C_6
REMARK    2  A    between atoms: C_3  and  C_18
REMARK    3  A    between atoms: C_7  and  S_12
REMARK    4  A    between atoms: S_12  and  N_15
REMARK    5  A    between atoms: C_18  and  S_19
REMARK    6  A    between atoms: S_19  and  C_31
REMARK                            x       y       z     vdW  Elec       q    Type
REMARK                         _______ _______ _______ _____ _____    ______ ____
ROOT
ATOM      1  O   UNL     1      37.192 -19.807 -19.825  0.00  0.00    -0.274 OA
ATOM      2  N   UNL     1      35.595 -21.522 -19.634  0.00  0.00    -0.283 N 
ATOM      3  C   UNL     1      36.251 -20.467 -20.259  0.00  0.00    +0.238 C 
ATOM      4  H   UNL     1      34.849 -21.926 -20.132  0.00  0.00    +0.155 HD
ENDROOT
BRANCH   2   6
ATOM      5 CL   UNL     1      33.293 -22.942 -18.231  0.00  0.00    -0.081 Cl
ATOM      6  C   UNL     1      35.878 -22.080 -18.365  0.00  0.00    +0.061 C 
ATOM      7  C   UNL     1      36.504 -23.159 -15.870  0.00  0.00    +0.123 C 
ATOM      8  C   UNL     1      34.902 -22.753 -17.632  0.00  0.00    +0.072 C 
ATOM      9  C   UNL     1      37.169 -21.946 -17.850  0.00  0.00    +0.017 C 
ATOM     10  C   UNL     1      35.215 -23.293 -16.384  0.00  0.00    +0.033 C 
ATOM     11  C   UNL     1      37.481 -22.486 -16.602  0.00  0.00    +0.021 C 
BRANCH   7  12
ATOM     12  S   UNL     1      36.896 -23.834 -14.308  0.00  0.00    +0.057 S 
ATOM     13  O   UNL     1      37.063 -25.273 -14.458  0.00  0.00    -0.153 OA
ATOM     14  O   UNL     1      37.962 -23.039 -13.714  0.00  0.00    -0.153 OA
BRANCH  12  15
ATOM     15  N   UNL     1      35.447 -23.535 -13.451  0.00  0.00    -0.203 NA
ATOM     16  H   UNL     1      34.655 -23.879 -13.994  0.00  0.00    +0.144 HD
ATOM     17  H   UNL     1      35.345 -22.532 -13.296  0.00  0.00    +0.144 HD
ENDBRANCH  12  15
ENDBRANCH   7  12
ENDBRANCH   2   6
BRANCH   3  18
ATOM     18  C   UNL     1      35.657 -20.155 -21.617  0.00  0.00    +0.152 C 
BRANCH  18  19
ATOM     19  S   UNL     1      36.538 -18.749 -22.330  0.00  0.00    -0.047 S 
BRANCH  19  31
ATOM     20  O   UNL     1      34.606 -18.699 -24.076  0.00  0.00    -0.262 OA
ATOM     21  N   UNL     1      35.069 -16.608 -23.106  0.00  0.00    -0.250 N 
ATOM     22  C   UNL     1      34.295 -14.914 -21.455  0.00  0.00    +0.027 C 
ATOM     23  C   UNL     1      34.280 -13.826 -22.508  0.00  0.00    +0.029 C 
ATOM     24  C   UNL     1      35.346 -15.951 -21.811  0.00  0.00    +0.099 C 
ATOM     25  C   UNL     1      34.208 -14.411 -23.893  0.00  0.00    -0.009 C 
ATOM     26  C   UNL     1      34.595 -15.743 -24.171  0.00  0.00    +0.051 C 
ATOM     27  C   UNL     1      33.775 -13.565 -24.931  0.00  0.00    -0.007 C 
ATOM     28  C   UNL     1      34.546 -16.167 -25.512  0.00  0.00    +0.014 C 
ATOM     29  C   UNL     1      33.713 -14.020 -26.243  0.00  0.00    -0.022 C 
ATOM     30  C   UNL     1      34.103 -15.320 -26.532  0.00  0.00    -0.003 C 
ATOM     31  C   UNL     1      35.248 -17.998 -23.299  0.00  0.00    +0.280 C 
ATOM     32  C   UNL     1      33.217 -13.125 -27.326  0.00  0.00    +0.031 C 
ENDBRANCH  19  31
ENDBRANCH  18  19
ENDBRANCH   3  18
TORSDOF 6
ENDMDL
MODEL 5
REMARK VINA RESULT:     -10.2      4.099     10.722
REMARK  Name = 24878044
REMARK  6 active torsions:
REMARK  status: ('A' for Active; 'I' for Inactive)
REMARK    1  A    between atoms: N_2  and  C_6
REMARK    2  A    between atoms: C_3  and  C_18
REMARK    3  A    between atoms: C_7  and  S_12
REMARK    4  A    between atoms: S_12  and  N_15
REMARK    5  A    between atoms: C_18  and  S_19
REMARK    6  A    between atoms: S_19  and  C_31
REMARK                            x       y       z     vdW  Elec       q    Type
REMARK                         _______ _______ _______ _____ _____    ______ ____
ROOT
ATOM      1  O   UNL     1      34.335 -20.062 -21.178  0.00  0.00    -0.274 OA
ATOM      2  N   UNL     1      36.135 -18.556 -21.289  0.00  0.00    -0.283 N 
ATOM      3  C   UNL     1      35.504 -19.752 -20.968  0.00  0.00    +0.238 C 
ATOM      4  H   UNL     1      37.082 -18.480 -21.030  0.00  0.00    +0.155 HD
ENDROOT
BRANCH   2   6
ATOM      5 CL   UNL     1      35.825 -18.770 -24.312  0.00  0.00    -0.081 Cl
ATOM      6  C   UNL     1      35.573 -17.435 -21.946  0.00  0.00    +0.061 C 
ATOM      7  C   UNL     1      34.458 -15.195 -23.178  0.00  0.00    +0.123 C 
ATOM      8  C   UNL     1      35.384 -17.421 -23.327  0.00  0.00    +0.072 C 
ATOM      9  C   UNL     1      35.205 -16.328 -21.180  0.00  0.00    +0.017 C 
ATOM     10  C   UNL     1      34.826 -16.301 -23.943  0.00  0.00    +0.033 C 
ATOM     11  C   UNL     1      34.648 -15.208 -21.796  0.00  0.00    +0.021 C 
BRANCH   7  12
ATOM     12  S   UNL     1      33.761 -13.792 -23.949  0.00  0.00    +0.057 S 
ATOM     13  O   UNL     1      32.594 -13.378 -23.182  0.00  0.00    -0.153 OA
ATOM     14  O   UNL     1      34.825 -12.836 -24.221  0.00  0.00    -0.153 OA
BRANCH  12  15
ATOM     15  N   UNL     1      33.235 -14.463 -25.431  0.00  0.00    -0.203 NA
ATOM     16  H   UNL     1      33.001 -13.711 -26.080  0.00  0.00    +0.144 HD
ATOM     17  H   UNL     1      32.412 -15.042 -25.269  0.00  0.00    +0.144 HD
ENDBRANCH  12  15
ENDBRANCH   7  12
ENDBRANCH   2   6
BRANCH   3  18
ATOM     18  C   UNL     1      36.438 -20.714 -20.264  0.00  0.00    +0.152 C 
BRANCH  18  19
ATOM     19  S   UNL     1      35.462 -22.050 -19.540  0.00  0.00    -0.047 S 
BRANCH  19  31
ATOM     20  O   UNL     1      37.095 -21.399 -17.618  0.00  0.00    -0.262 OA
ATOM     21  N   UNL     1      35.434 -22.934 -16.979  0.00  0.00    -0.250 N 
ATOM     22  C   UNL     1      33.293 -23.219 -15.741  0.00  0.00    +0.027 C 
ATOM     23  C   UNL     1      33.884 -24.310 -14.874  0.00  0.00    +0.029 C 
ATOM     24  C   UNL     1      33.986 -23.212 -17.092  0.00  0.00    +0.099 C 
ATOM     25  C   UNL     1      35.388 -24.238 -14.860  0.00  0.00    -0.009 C 
ATOM     26  C   UNL     1      36.122 -23.583 -15.877  0.00  0.00    +0.051 C 
ATOM     27  C   UNL     1      36.058 -24.890 -13.807  0.00  0.00    -0.007 C 
ATOM     28  C   UNL     1      37.526 -23.629 -15.797  0.00  0.00    +0.014 C 
ATOM     29  C   UNL     1      37.446 -24.897 -13.742  0.00  0.00    -0.022 C 
ATOM     30  C   UNL     1      38.179 -24.271 -14.740  0.00  0.00    -0.003 C 
ATOM     31  C   UNL     1      36.111 -22.083 -17.883  0.00  0.00    +0.280 C 
ATOM     32  C   UNL     1      38.141 -25.559 -12.602  0.00  0.00    +0.031 C 
ENDBRANCH  19  31
ENDBRANCH  18  19
ENDBRANCH   3  18
TORSDOF 6
ENDMDL
MODEL 6
REMARK VINA RESULT:     -10.1      5.176      8.149
REMARK  Name = 24878044
REMARK  6 active torsions:
REMARK  status: ('A' for Active; 'I' for Inactive)
REMARK    1  A    between atoms: N_2  and  C_6
REMARK    2  A    between atoms: C_3  and  C_18
REMARK    3  A    between atoms: C_7  and  S_12
REMARK    4  A    between atoms: S_12  and  N_15
REMARK    5  A    between atoms: C_18  and  S_19
REMARK    6  A    between atoms: S_19  and  C_31
REMARK                            x       y       z     vdW  Elec       q    Type
REMARK                         _______ _______ _______ _____ _____    ______ ____
ROOT
ATOM      1  O   UNL     1      32.489 -23.495 -15.944  0.00  0.00    -0.274 OA
ATOM      2  N   UNL     1      34.681 -23.124 -16.705  0.00  0.00    -0.283 N 
ATOM      3  C   UNL     1      33.295 -23.168 -16.811  0.00  0.00    +0.238 C 
ATOM      4  H   UNL     1      35.170 -22.848 -17.513  0.00  0.00    +0.155 HD
ENDROOT
BRANCH   2   6
ATOM      5 CL   UNL     1      37.630 -22.372 -16.855  0.00  0.00    -0.081 Cl
ATOM      6  C   UNL     1      35.468 -23.429 -15.569  0.00  0.00    +0.061 C 
ATOM      7  C   UNL     1      36.961 -24.057 -13.298  0.00  0.00    +0.123 C 
ATOM      8  C   UNL     1      36.829 -23.131 -15.526  0.00  0.00    +0.072 C 
ATOM      9  C   UNL     1      34.853 -24.043 -14.477  0.00  0.00    +0.017 C 
ATOM     10  C   UNL     1      37.576 -23.444 -14.390  0.00  0.00    +0.033 C 
ATOM     11  C   UNL     1      35.600 -24.357 -13.341  0.00  0.00    +0.021 C 
BRANCH   7  12
ATOM     12  S   UNL     1      37.896 -24.451 -11.877  0.00  0.00    +0.057 S 
ATOM     13  O   UNL     1      38.295 -25.848 -11.961  0.00  0.00    -0.153 OA
ATOM     14  O   UNL     1      38.906 -23.419 -11.687  0.00  0.00    -0.153 OA
BRANCH  12  15
ATOM     15  N   UNL     1      36.712 -24.290 -10.655  0.00  0.00    -0.203 NA
ATOM     16  H   UNL     1      36.388 -23.323 -10.620  0.00  0.00    +0.144 HD
ATOM     17  H   UNL     1      37.115 -24.546  -9.754  0.00  0.00    +0.144 HD
ENDBRANCH  12  15
ENDBRANCH   7  12
ENDBRANCH   2   6
BRANCH   3  18
ATOM     18  C   UNL     1      32.819 -22.769 -18.191  0.00  0.00    +0.152 C 
BRANCH  18  19
ATOM     19  S   UNL     1      34.230 -22.775 -19.319  0.00  0.00    -0.047 S 
BRANCH  19  31
ATOM     20  O   UNL     1      32.891 -20.736 -20.232  0.00  0.00    -0.262 OA
ATOM     21  N   UNL     1      35.204 -20.610 -20.626  0.00  0.00    -0.250 N 
ATOM     22  C   UNL     1      37.335 -19.533 -19.919  0.00  0.00    +0.027 C 
ATOM     23  C   UNL     1      37.607 -19.041 -21.325  0.00  0.00    +0.029 C 
ATOM     24  C   UNL     1      36.518 -20.813 -19.979  0.00  0.00    +0.099 C 
ATOM     25  C   UNL     1      36.342 -18.996 -22.140  0.00  0.00    -0.009 C 
ATOM     26  C   UNL     1      35.199 -19.758 -21.801  0.00  0.00    +0.051 C 
ATOM     27  C   UNL     1      36.344 -18.192 -23.295  0.00  0.00    -0.007 C 
ATOM     28  C   UNL     1      34.092 -19.688 -22.668  0.00  0.00    +0.014 C 
ATOM     29  C   UNL     1      35.226 -18.123 -24.118  0.00  0.00    -0.022 C 
ATOM     30  C   UNL     1      34.103 -18.875 -23.806  0.00  0.00    -0.003 C 
ATOM     31  C   UNL     1      34.020 -21.204 -20.131  0.00  0.00    +0.280 C 
ATOM     32  C   UNL     1      35.230 -17.238 -25.317  0.00  0.00    +0.031 C 
ENDBRANCH  19  31
ENDBRANCH  18  19
ENDBRANCH   3  18
TORSDOF 6
ENDMDL
MODEL 7
REMARK VINA RESULT:     -10.0      2.865      4.609
REMARK  Name = 24878044
REMARK  6 active torsions:
REMARK  status: ('A' for Active; 'I' for Inactive)
REMARK    1  A    between atoms: N_2  and  C_6
REMARK    2  A    between atoms: C_3  and  C_18
REMARK    3  A    between atoms: C_7  and  S_12
REMARK    4  A    between atoms: S_12  and  N_15
REMARK    5  A    between atoms: C_18  and  S_19
REMARK    6  A    between atoms: S_19  and  C_31
REMARK                            x       y       z     vdW  Elec       q    Type
REMARK                         _______ _______ _______ _____ _____    ______ ____
ROOT
ATOM      1  O   UNL     1      34.211 -20.012 -20.547  0.00  0.00    -0.274 OA
ATOM      2  N   UNL     1      35.668 -21.706 -19.820  0.00  0.00    -0.283 N 
ATOM      3  C   UNL     1      35.249 -20.661 -20.636  0.00  0.00    +0.238 C 
ATOM      4  H   UNL     1      36.530 -22.121 -20.052  0.00  0.00    +0.155 HD
ENDROOT
BRANCH   2   6
ATOM      5 CL   UNL     1      37.353 -22.134 -17.317  0.00  0.00    -0.081 Cl
ATOM      6  C   UNL     1      34.999 -22.240 -18.692  0.00  0.00    +0.061 C 
ATOM      7  C   UNL     1      33.619 -23.292 -16.509  0.00  0.00    +0.123 C 
ATOM      8  C   UNL     1      35.669 -22.477 -17.493  0.00  0.00    +0.072 C 
ATOM      9  C   UNL     1      33.638 -22.529 -18.800  0.00  0.00    +0.017 C 
ATOM     10  C   UNL     1      34.979 -23.003 -16.401  0.00  0.00    +0.033 C 
ATOM     11  C   UNL     1      32.948 -23.055 -17.708  0.00  0.00    +0.021 C 
BRANCH   7  12
ATOM     12  S   UNL     1      32.755 -23.951 -15.142  0.00  0.00    +0.057 S 
ATOM     13  O   UNL     1      31.518 -24.548 -15.625  0.00  0.00    -0.153 OA
ATOM     14  O   UNL     1      33.681 -24.747 -14.349  0.00  0.00    -0.153 OA
BRANCH  12  15
ATOM     15  N   UNL     1      32.378 -22.526 -14.278  0.00  0.00    -0.203 NA
ATOM     16  H   UNL     1      32.608 -21.712 -14.848  0.00  0.00    +0.144 HD
ATOM     17  H   UNL     1      32.917 -22.499 -13.413  0.00  0.00    +0.144 HD
ENDBRANCH  12  15
ENDBRANCH   7  12
ENDBRANCH   2   6
BRANCH   3  18
ATOM     18  C   UNL     1      36.240 -20.376 -21.745  0.00  0.00    +0.152 C 
BRANCH  18  19
ATOM     19  S   UNL     1      36.626 -18.612 -21.743  0.00  0.00    -0.047 S 
BRANCH  19  31
ATOM     20  O   UNL     1      34.836 -18.762 -23.628  0.00  0.00    -0.262 OA
ATOM     21  N   UNL     1      35.088 -16.608 -22.722  0.00  0.00    -0.250 N 
ATOM     22  C   UNL     1      34.082 -14.904 -21.212  0.00  0.00    +0.027 C 
ATOM     23  C   UNL     1      34.079 -13.863 -22.311  0.00  0.00    +0.029 C 
ATOM     24  C   UNL     1      35.222 -15.881 -21.441  0.00  0.00    +0.099 C 
ATOM     25  C   UNL     1      34.152 -14.507 -23.670  0.00  0.00    -0.009 C 
ATOM     26  C   UNL     1      34.644 -15.819 -23.858  0.00  0.00    +0.051 C 
ATOM     27  C   UNL     1      33.747 -13.734 -24.775  0.00  0.00    -0.007 C 
ATOM     28  C   UNL     1      34.725 -16.300 -25.178  0.00  0.00    +0.014 C 
ATOM     29  C   UNL     1      33.816 -14.244 -26.065  0.00  0.00    -0.022 C 
ATOM     30  C   UNL     1      34.310 -15.526 -26.266  0.00  0.00    -0.003 C 
ATOM     31  C   UNL     1      35.369 -17.989 -22.839  0.00  0.00    +0.280 C 
ATOM     32  C   UNL     1      33.349 -13.428 -27.222  0.00  0.00    +0.031 C 
ENDBRANCH  19  31
ENDBRANCH  18  19
ENDBRANCH   3  18
TORSDOF 6
ENDMDL
MODEL 8
REMARK VINA RESULT:      -9.9      3.461      9.468
REMARK  Name = 24878044
REMARK  6 active torsions:
REMARK  status: ('A' for Active; 'I' for Inactive)
REMARK    1  A    between atoms: N_2  and  C_6
REMARK    2  A    between atoms: C_3  and  C_18
REMARK    3  A    between atoms: C_7  and  S_12
REMARK    4  A    between atoms: S_12  and  N_15
REMARK    5  A    between atoms: C_18  and  S_19
REMARK    6  A    between atoms: S_19  and  C_31
REMARK                            x       y       z     vdW  Elec       q    Type
REMARK                         _______ _______ _______ _____ _____    ______ ____
ROOT
ATOM      1  O   UNL     1      33.032 -14.362 -26.506  0.00  0.00    -0.274 OA
ATOM      2  N   UNL     1      34.001 -14.190 -24.372  0.00  0.00    -0.283 N 
ATOM      3  C   UNL     1      33.654 -14.830 -25.556  0.00  0.00    +0.238 C 
ATOM      4  H   UNL     1      34.493 -14.731 -23.713  0.00  0.00    +0.155 HD
ENDROOT
BRANCH   2   6
ATOM      5 CL   UNL     1      32.422 -13.781 -21.798  0.00  0.00    -0.081 Cl
ATOM      6  C   UNL     1      33.728 -12.850 -24.005  0.00  0.00    +0.061 C 
ATOM      7  C   UNL     1      33.227 -10.188 -23.341  0.00  0.00    +0.123 C 
ATOM      8  C   UNL     1      33.014 -12.544 -22.848  0.00  0.00    +0.072 C 
ATOM      9  C   UNL     1      34.192 -11.825 -24.832  0.00  0.00    +0.017 C 
ATOM     10  C   UNL     1      32.764 -11.212 -22.516  0.00  0.00    +0.033 C 
ATOM     11  C   UNL     1      33.941 -10.494 -24.499  0.00  0.00    +0.021 C 
BRANCH   7  12
ATOM     12  S   UNL     1      32.913  -8.521 -22.926  0.00  0.00    +0.057 S 
ATOM     13  O   UNL     1      34.142  -7.763 -23.109  0.00  0.00    -0.153 OA
ATOM     14  O   UNL     1      31.693  -8.098 -23.600  0.00  0.00    -0.153 OA
BRANCH  12  15
ATOM     15  N   UNL     1      32.595  -8.658 -21.252  0.00  0.00    -0.203 NA
ATOM     16  H   UNL     1      32.256  -7.763 -20.897  0.00  0.00    +0.144 HD
ATOM     17  H   UNL     1      33.452  -8.916 -20.763  0.00  0.00    +0.144 HD
ENDBRANCH  12  15
ENDBRANCH   7  12
ENDBRANCH   2   6
BRANCH   3  18
ATOM     18  C   UNL     1      34.123 -16.270 -25.581  0.00  0.00    +0.152 C 
BRANCH  18  19
ATOM     19  S   UNL     1      35.355 -16.504 -24.281  0.00  0.00    -0.047 S 
BRANCH  19  31
ATOM     20  O   UNL     1      34.180 -18.825 -24.412  0.00  0.00    -0.262 OA
ATOM     21  N   UNL     1      35.678 -18.615 -22.614  0.00  0.00    -0.250 N 
ATOM     22  C   UNL     1      37.929 -19.243 -21.755  0.00  0.00    +0.027 C 
ATOM     23  C   UNL     1      37.335 -19.841 -20.498  0.00  0.00    +0.029 C 
ATOM     24  C   UNL     1      37.029 -18.129 -22.262  0.00  0.00    +0.099 C 
ATOM     25  C   UNL     1      35.882 -20.183 -20.693  0.00  0.00    -0.009 C 
ATOM     26  C   UNL     1      35.095 -19.585 -21.704  0.00  0.00    +0.051 C 
ATOM     27  C   UNL     1      35.307 -21.103 -19.795  0.00  0.00    -0.007 C 
ATOM     28  C   UNL     1      33.732 -19.933 -21.758  0.00  0.00    +0.014 C 
ATOM     29  C   UNL     1      33.964 -21.446 -19.888  0.00  0.00    -0.022 C 
ATOM     30  C   UNL     1      33.176 -20.857 -20.867  0.00  0.00    -0.003 C 
ATOM     31  C   UNL     1      34.993 -18.170 -23.768  0.00  0.00    +0.280 C 
ATOM     32  C   UNL     1      33.378 -22.449 -18.955  0.00  0.00    +0.031 C 
ENDBRANCH  19  31
ENDBRANCH  18  19
ENDBRANCH   3  18
TORSDOF 6
ENDMDL
MODEL 9
REMARK VINA RESULT:      -9.9      3.217      5.545
REMARK  Name = 24878044
REMARK  6 active torsions:
REMARK  status: ('A' for Active; 'I' for Inactive)
REMARK    1  A    between atoms: N_2  and  C_6
REMARK    2  A    between atoms: C_3  and  C_18
REMARK    3  A    between atoms: C_7  and  S_12
REMARK    4  A    between atoms: S_12  and  N_15
REMARK    5  A    between atoms: C_18  and  S_19
REMARK    6  A    between atoms: S_19  and  C_31
REMARK                            x       y       z     vdW  Elec       q    Type
REMARK                         _______ _______ _______ _____ _____    ______ ____
ROOT
ATOM      1  O   UNL     1      32.379 -20.678 -19.527  0.00  0.00    -0.274 OA
ATOM      2  N   UNL     1      34.184 -22.110 -19.065  0.00  0.00    -0.283 N 
ATOM      3  C   UNL     1      33.466 -21.178 -19.805  0.00  0.00    +0.238 C 
ATOM      4  H   UNL     1      35.037 -22.410 -19.454  0.00  0.00    +0.155 HD
ENDROOT
BRANCH   2   6
ATOM      5 CL   UNL     1      36.452 -22.530 -17.073  0.00  0.00    -0.081 Cl
ATOM      6  C   UNL     1      33.830 -22.675 -17.816  0.00  0.00    +0.061 C 
ATOM      7  C   UNL     1      33.065 -23.792 -15.378  0.00  0.00    +0.123 C 
ATOM      8  C   UNL     1      34.785 -22.913 -16.829  0.00  0.00    +0.072 C 
ATOM      9  C   UNL     1      32.492 -22.997 -17.585  0.00  0.00    +0.017 C 
ATOM     10  C   UNL     1      34.402 -23.470 -15.609  0.00  0.00    +0.033 C 
ATOM     11  C   UNL     1      32.109 -23.555 -16.366  0.00  0.00    +0.021 C 
BRANCH   7  12
ATOM     12  S   UNL     1      32.585 -24.490 -13.851  0.00  0.00    +0.057 S 
ATOM     13  O   UNL     1      31.962 -23.451 -13.045  0.00  0.00    -0.153 OA
ATOM     14  O   UNL     1      31.867 -25.730 -14.115  0.00  0.00    -0.153 OA
BRANCH  12  15
ATOM     15  N   UNL     1      34.108 -24.872 -13.176  0.00  0.00    -0.203 NA
ATOM     16  H   UNL     1      34.379 -25.814 -13.460  0.00  0.00    +0.144 HD
ATOM     17  H   UNL     1      34.051 -24.827 -12.159  0.00  0.00    +0.144 HD
ENDBRANCH  12  15
ENDBRANCH   7  12
ENDBRANCH   2   6
BRANCH   3  18
ATOM     18  C   UNL     1      34.171 -20.812 -21.094  0.00  0.00    +0.152 C 
BRANCH  18  19
ATOM     19  S   UNL     1      35.950 -20.743 -20.785  0.00  0.00    -0.047 S 
BRANCH  19  31
ATOM     20  O   UNL     1      37.125 -18.419 -20.732  0.00  0.00    -0.262 OA
ATOM     21  N   UNL     1      35.654 -18.702 -22.543  0.00  0.00    -0.250 N 
ATOM     22  C   UNL     1      35.496 -19.126 -24.990  0.00  0.00    +0.027 C 
ATOM     23  C   UNL     1      34.669 -17.875 -25.202  0.00  0.00    +0.029 C 
ATOM     24  C   UNL     1      35.254 -19.664 -23.591  0.00  0.00    +0.099 C 
ATOM     25  C   UNL     1      34.850 -16.905 -24.065  0.00  0.00    -0.009 C 
ATOM     26  C   UNL     1      35.315 -17.312 -22.792  0.00  0.00    +0.051 C 
ATOM     27  C   UNL     1      34.497 -15.562 -24.297  0.00  0.00    -0.007 C 
ATOM     28  C   UNL     1      35.389 -16.333 -21.784  0.00  0.00    +0.014 C 
ATOM     29  C   UNL     1      34.604 -14.612 -23.288  0.00  0.00    -0.022 C 
ATOM     30  C   UNL     1      35.045 -15.000 -22.031  0.00  0.00    -0.003 C 
ATOM     31  C   UNL     1      36.331 -19.104 -21.367  0.00  0.00    +0.280 C 
ATOM     32  C   UNL     1      34.261 -13.188 -23.559  0.00  0.00    +0.031 C 
ENDBRANCH  19  31
ENDBRANCH  18  19
ENDBRANCH   3  18
TORSDOF 6
ENDMDL
