MODEL 1
REMARK VINA RESULT:     -11.8      0.000      0.000
REMARK  Name = 11610553
REMARK  5 active torsions:
REMARK  status: ('A' for Active; 'I' for Inactive)
REMARK    1  A    between atoms: C_1  and  C_9
REMARK    2  A    between atoms: C_4  and  O_19
REMARK    3  A    between atoms: C_10  and  C_14
REMARK    4  A    between atoms: O_19  and  C_20
REMARK    5  A    between atoms: C_20  and  C_22
REMARK                            x       y       z     vdW  Elec       q    Type
REMARK                         _______ _______ _______ _____ _____    ______ ____
ROOT
ATOM      1  C   UNL     1      34.036 -22.812 -17.631  0.00  0.00    +0.015 C 
ATOM      2  C   UNL     1      35.410 -22.571 -17.655  0.00  0.00    +0.004 C 
ATOM      3  C   UNL     1      33.247 -22.456 -18.724  0.00  0.00    +0.004 C 
ATOM      4  C   UNL     1      35.200 -21.621 -19.858  0.00  0.00    +0.139 C 
ATOM      5  C   UNL     1      35.994 -21.973 -18.772  0.00  0.00    +0.037 C 
ATOM      6  C   UNL     1      33.830 -21.859 -19.841  0.00  0.00    +0.037 C 
ENDROOT
BRANCH   1   9
ATOM      7  N   UNL     1      32.081 -23.469 -16.297  0.00  0.00    -0.236 N 
ATOM      8  N   UNL     1      31.700 -24.084 -15.164  0.00  0.00    -0.180 NA
ATOM      9  C   UNL     1      33.433 -23.430 -16.476  0.00  0.00    +0.067 C 
ATOM     10  C   UNL     1      33.974 -24.064 -15.383  0.00  0.00    +0.036 C 
ATOM     11  C   UNL     1      32.861 -24.445 -14.611  0.00  0.00    +0.119 C 
ATOM     12  H   UNL     1      31.443 -23.083 -16.939  0.00  0.00    +0.174 HD
BRANCH  10  14
ATOM     13  N   UNL     1      38.113 -24.627 -14.706  0.00  0.00    -0.242 NA
ATOM     14  C   UNL     1      35.374 -24.254 -15.153  0.00  0.00    +0.006 C 
ATOM     15  C   UNL     1      35.978 -25.470 -15.465  0.00  0.00    +0.021 C 
ATOM     16  C   UNL     1      36.145 -23.226 -14.618  0.00  0.00    +0.021 C 
ATOM     17  C   UNL     1      37.335 -25.605 -15.225  0.00  0.00    +0.099 C 
ATOM     18  C   UNL     1      37.495 -23.461 -14.414  0.00  0.00    +0.099 C 
ENDBRANCH  10  14
ENDBRANCH   1   9
BRANCH   4  19
ATOM     19  O   UNL     1      35.774 -21.034 -20.955  0.00  0.00    -0.468 OA
BRANCH  19  20
ATOM     20  C   UNL     1      36.546 -19.863 -20.725  0.00  0.00    +0.264 C 
BRANCH  20  22
ATOM     21  N   UNL     1      35.719 -17.624 -21.128  0.00  0.00    -0.406 NA
ATOM     22  C   UNL     1      36.120 -18.794 -21.675  0.00  0.00    +0.152 C 
ATOM     23  C   UNL     1      35.324 -16.795 -23.355  0.00  0.00    +0.026 C 
ATOM     24  C   UNL     1      35.326 -16.636 -21.954  0.00  0.00    +0.113 C 
ATOM     25  C   UNL     1      36.152 -19.042 -23.033  0.00  0.00    +0.031 C 
ATOM     26  C   UNL     1      35.746 -18.023 -23.881  0.00  0.00    +0.005 C 
ATOM     27  C   UNL     1      34.907 -15.742 -24.188  0.00  0.00    +0.002 C 
ATOM     28  C   UNL     1      34.906 -15.415 -21.433  0.00  0.00    +0.085 C 
ATOM     29  C   UNL     1      34.491 -14.532 -23.640  0.00  0.00    -0.004 C 
ATOM     30  C   UNL     1      34.491 -14.369 -22.260  0.00  0.00    -0.019 C 
ENDBRANCH  20  22
ENDBRANCH  19  20
ENDBRANCH   4  19
TORSDOF 5
ENDMDL
MODEL 2
REMARK VINA RESULT:     -11.8      0.804      1.623
REMARK  Name = 11610553
REMARK  5 active torsions:
REMARK  status: ('A' for Active; 'I' for Inactive)
REMARK    1  A    between atoms: C_1  and  C_9
REMARK    2  A    between atoms: C_4  and  O_19
REMARK    3  A    between atoms: C_10  and  C_14
REMARK    4  A    between atoms: O_19  and  C_20
REMARK    5  A    between atoms: C_20  and  C_22
REMARK                            x       y       z     vdW  Elec       q    Type
REMARK                         _______ _______ _______ _____ _____    ______ ____
ROOT
ATOM      1  C   UNL     1      34.232 -22.970 -17.254  0.00  0.00    +0.015 C 
ATOM      2  C   UNL     1      33.457 -22.795 -18.401  0.00  0.00    +0.004 C 
ATOM      3  C   UNL     1      35.573 -22.588 -17.253  0.00  0.00    +0.004 C 
ATOM      4  C   UNL     1      35.363 -21.863 -19.540  0.00  0.00    +0.139 C 
ATOM      5  C   UNL     1      34.026 -22.240 -19.548  0.00  0.00    +0.037 C 
ATOM      6  C   UNL     1      36.141 -22.033 -18.399  0.00  0.00    +0.037 C 
ENDROOT
BRANCH   1   9
ATOM      7  N   UNL     1      32.313 -23.433 -15.791  0.00  0.00    -0.236 N 
ATOM      8  N   UNL     1      31.945 -24.031 -14.645  0.00  0.00    -0.180 NA
ATOM      9  C   UNL     1      33.644 -23.544 -16.069  0.00  0.00    +0.067 C 
ATOM     10  C   UNL     1      34.185 -24.265 -15.031  0.00  0.00    +0.036 C 
ATOM     11  C   UNL     1      33.093 -24.537 -14.185  0.00  0.00    +0.119 C 
ATOM     12  H   UNL     1      31.680 -22.960 -16.377  0.00  0.00    +0.174 HD
BRANCH  10  14
ATOM     13  N   UNL     1      38.266 -25.318 -14.666  0.00  0.00    -0.242 NA
ATOM     14  C   UNL     1      35.566 -24.621 -14.908  0.00  0.00    +0.006 C 
ATOM     15  C   UNL     1      36.457 -23.766 -14.265  0.00  0.00    +0.021 C 
ATOM     16  C   UNL     1      36.030 -25.826 -15.429  0.00  0.00    +0.021 C 
ATOM     17  C   UNL     1      37.783 -24.156 -14.171  0.00  0.00    +0.099 C 
ATOM     18  C   UNL     1      37.375 -26.124 -15.284  0.00  0.00    +0.099 C 
ENDBRANCH  10  14
ENDBRANCH   1   9
BRANCH   4  19
ATOM     19  O   UNL     1      35.922 -21.317 -20.666  0.00  0.00    -0.468 OA
BRANCH  19  20
ATOM     20  C   UNL     1      36.232 -19.931 -20.620  0.00  0.00    +0.264 C 
BRANCH  20  22
ATOM     21  N   UNL     1      35.774 -17.931 -21.905  0.00  0.00    -0.406 NA
ATOM     22  C   UNL     1      35.798 -19.283 -21.893  0.00  0.00    +0.152 C 
ATOM     23  C   UNL     1      35.010 -18.032 -24.188  0.00  0.00    +0.026 C 
ATOM     24  C   UNL     1      35.386 -17.311 -23.035  0.00  0.00    +0.113 C 
ATOM     25  C   UNL     1      35.449 -20.073 -22.970  0.00  0.00    +0.031 C 
ATOM     26  C   UNL     1      35.049 -19.431 -24.133  0.00  0.00    +0.005 C 
ATOM     27  C   UNL     1      34.610 -17.352 -25.351  0.00  0.00    +0.002 C 
ATOM     28  C   UNL     1      35.347 -15.920 -23.091  0.00  0.00    +0.085 C 
ATOM     29  C   UNL     1      34.580 -15.961 -25.379  0.00  0.00    -0.004 C 
ATOM     30  C   UNL     1      34.949 -15.245 -24.248  0.00  0.00    -0.019 C 
ENDBRANCH  20  22
ENDBRANCH  19  20
ENDBRANCH   4  19
TORSDOF 5
ENDMDL
MODEL 3
REMARK VINA RESULT:     -11.8      2.631      4.345
REMARK  Name = 11610553
REMARK  5 active torsions:
REMARK  status: ('A' for Active; 'I' for Inactive)
REMARK    1  A    between atoms: C_1  and  C_9
REMARK    2  A    between atoms: C_4  and  O_19
REMARK    3  A    between atoms: C_10  and  C_14
REMARK    4  A    between atoms: O_19  and  C_20
REMARK    5  A    between atoms: C_20  and  C_22
REMARK                            x       y       z     vdW  Elec       q    Type
REMARK                         _______ _______ _______ _____ _____    ______ ____
ROOT
ATOM      1  C   UNL     1      34.978 -23.940 -13.932  0.00  0.00    +0.015 C 
ATOM      2  C   UNL     1      33.668 -24.325 -14.214  0.00  0.00    +0.004 C 
ATOM      3  C   UNL     1      35.711 -23.218 -14.874  0.00  0.00    +0.004 C 
ATOM      4  C   UNL     1      33.827 -23.269 -16.373  0.00  0.00    +0.139 C 
ATOM      5  C   UNL     1      33.091 -23.988 -15.439  0.00  0.00    +0.037 C 
ATOM      6  C   UNL     1      35.134 -22.881 -16.098  0.00  0.00    +0.037 C 
ENDROOT
BRANCH   1   9
ATOM      7  N   UNL     1      35.019 -23.922 -11.475  0.00  0.00    -0.236 N 
ATOM      8  N   UNL     1      35.713 -24.335 -10.401  0.00  0.00    -0.180 NA
ATOM      9  C   UNL     1      35.575 -24.289 -12.666  0.00  0.00    +0.067 C 
ATOM     10  C   UNL     1      36.713 -24.991 -12.348  0.00  0.00    +0.036 C 
ATOM     11  C   UNL     1      36.746 -24.987 -10.940  0.00  0.00    +0.119 C 
ATOM     12  H   UNL     1      34.185 -23.403 -11.410  0.00  0.00    +0.174 HD
BRANCH  10  14
ATOM     13  N   UNL     1      39.380 -26.696 -15.155  0.00  0.00    -0.242 NA
ATOM     14  C   UNL     1      37.616 -25.568 -13.297  0.00  0.00    +0.006 C 
ATOM     15  C   UNL     1      37.165 -26.526 -14.202  0.00  0.00    +0.021 C 
ATOM     16  C   UNL     1      38.952 -25.176 -13.325  0.00  0.00    +0.021 C 
ATOM     17  C   UNL     1      38.077 -27.054 -15.101  0.00  0.00    +0.099 C 
ATOM     18  C   UNL     1      39.784 -25.765 -14.263  0.00  0.00    +0.099 C 
ENDBRANCH  10  14
ENDBRANCH   1   9
BRANCH   4  19
ATOM     19  O   UNL     1      33.260 -22.938 -17.575  0.00  0.00    -0.468 OA
BRANCH  19  20
ATOM     20  C   UNL     1      33.975 -23.313 -18.745  0.00  0.00    +0.264 C 
BRANCH  20  22
ATOM     21  N   UNL     1      35.503 -21.702 -19.710  0.00  0.00    -0.406 NA
ATOM     22  C   UNL     1      34.217 -22.104 -19.587  0.00  0.00    +0.152 C 
ATOM     23  C   UNL     1      34.733 -19.897 -21.108  0.00  0.00    +0.026 C 
ATOM     24  C   UNL     1      35.761 -20.614 -20.460  0.00  0.00    +0.113 C 
ATOM     25  C   UNL     1      33.147 -21.468 -20.182  0.00  0.00    +0.031 C 
ATOM     26  C   UNL     1      33.416 -20.347 -20.954  0.00  0.00    +0.005 C 
ATOM     27  C   UNL     1      35.038 -18.765 -21.883  0.00  0.00    +0.002 C 
ATOM     28  C   UNL     1      37.070 -20.166 -20.615  0.00  0.00    +0.085 C 
ATOM     29  C   UNL     1      36.356 -18.339 -22.021  0.00  0.00    -0.004 C 
ATOM     30  C   UNL     1      37.373 -19.041 -21.385  0.00  0.00    -0.019 C 
ENDBRANCH  20  22
ENDBRANCH  19  20
ENDBRANCH   4  19
TORSDOF 5
ENDMDL
MODEL 4
REMARK VINA RESULT:     -11.6      8.347     15.790
REMARK  Name = 11610553
REMARK  5 active torsions:
REMARK  status: ('A' for Active; 'I' for Inactive)
REMARK    1  A    between atoms: C_1  and  C_9
REMARK    2  A    between atoms: C_4  and  O_19
REMARK    3  A    between atoms: C_10  and  C_14
REMARK    4  A    between atoms: O_19  and  C_20
REMARK    5  A    between atoms: C_20  and  C_22
REMARK                            x       y       z     vdW  Elec       q    Type
REMARK                         _______ _______ _______ _____ _____    ______ ____
ROOT
ATOM      1  C   UNL     1      31.646  -6.254 -22.578  0.00  0.00    +0.015 C 
ATOM      2  C   UNL     1      32.303  -6.497 -21.371  0.00  0.00    +0.004 C 
ATOM      3  C   UNL     1      31.190  -7.322 -23.351  0.00  0.00    +0.004 C 
ATOM      4  C   UNL     1      32.046  -8.867 -21.715  0.00  0.00    +0.139 C 
ATOM      5  C   UNL     1      32.503  -7.808 -20.939  0.00  0.00    +0.037 C 
ATOM      6  C   UNL     1      31.390  -8.632 -22.919  0.00  0.00    +0.037 C 
ENDROOT
BRANCH   1   9
ATOM      7  N   UNL     1      30.522  -4.074 -22.443  0.00  0.00    -0.236 N 
ATOM      8  N   UNL     1      30.468  -2.848 -22.991  0.00  0.00    -0.180 NA
ATOM      9  C   UNL     1      31.440  -4.899 -23.025  0.00  0.00    +0.067 C 
ATOM     10  C   UNL     1      32.027  -4.160 -24.025  0.00  0.00    +0.036 C 
ATOM     11  C   UNL     1      31.390  -2.907 -23.956  0.00  0.00    +0.119 C 
ATOM     12  H   UNL     1      29.952  -4.351 -21.690  0.00  0.00    +0.174 HD
BRANCH  10  14
ATOM     13  N   UNL     1      35.068  -5.555 -26.614  0.00  0.00    -0.242 NA
ATOM     14  C   UNL     1      33.055  -4.633 -24.901  0.00  0.00    +0.006 C 
ATOM     15  C   UNL     1      33.114  -4.188 -26.219  0.00  0.00    +0.021 C 
ATOM     16  C   UNL     1      34.007  -5.540 -24.442  0.00  0.00    +0.021 C 
ATOM     17  C   UNL     1      34.129  -4.674 -27.027  0.00  0.00    +0.099 C 
ATOM     18  C   UNL     1      34.982  -5.967 -25.330  0.00  0.00    +0.099 C 
ENDBRANCH  10  14
ENDBRANCH   1   9
BRANCH   4  19
ATOM     19  O   UNL     1      32.243 -10.155 -21.290  0.00  0.00    -0.468 OA
BRANCH  19  20
ATOM     20  C   UNL     1      31.699 -11.187 -22.101  0.00  0.00    +0.264 C 
BRANCH  20  22
ATOM     21  N   UNL     1      33.121 -12.897 -23.056  0.00  0.00    -0.406 NA
ATOM     22  C   UNL     1      32.516 -12.426 -21.942  0.00  0.00    +0.152 C 
ATOM     23  C   UNL     1      34.025 -14.691 -21.725  0.00  0.00    +0.026 C 
ATOM     24  C   UNL     1      33.866 -14.014 -22.952  0.00  0.00    +0.113 C 
ATOM     25  C   UNL     1      32.613 -13.019 -20.699  0.00  0.00    +0.031 C 
ATOM     26  C   UNL     1      33.381 -14.169 -20.595  0.00  0.00    +0.005 C 
ATOM     27  C   UNL     1      34.810 -15.854 -21.652  0.00  0.00    +0.002 C 
ATOM     28  C   UNL     1      34.507 -14.533 -24.073  0.00  0.00    +0.085 C 
ATOM     29  C   UNL     1      35.439 -16.352 -22.790  0.00  0.00    -0.004 C 
ATOM     30  C   UNL     1      35.287 -15.690 -24.002  0.00  0.00    -0.019 C 
ENDBRANCH  20  22
ENDBRANCH  19  20
ENDBRANCH   4  19
TORSDOF 5
ENDMDL
MODEL 5
REMARK VINA RESULT:     -11.5      1.612      2.514
REMARK  Name = 11610553
REMARK  5 active torsions:
REMARK  status: ('A' for Active; 'I' for Inactive)
REMARK    1  A    between atoms: C_1  and  C_9
REMARK    2  A    between atoms: C_4  and  O_19
REMARK    3  A    between atoms: C_10  and  C_14
REMARK    4  A    between atoms: O_19  and  C_20
REMARK    5  A    between atoms: C_20  and  C_22
REMARK                            x       y       z     vdW  Elec       q    Type
REMARK                         _______ _______ _______ _____ _____    ______ ____
ROOT
ATOM      1  C   UNL     1      35.041 -23.066 -16.321  0.00  0.00    +0.015 C 
ATOM      2  C   UNL     1      34.171 -23.086 -17.412  0.00  0.00    +0.004 C 
ATOM      3  C   UNL     1      36.312 -22.506 -16.452  0.00  0.00    +0.004 C 
ATOM      4  C   UNL     1      35.843 -21.992 -18.757  0.00  0.00    +0.139 C 
ATOM      5  C   UNL     1      34.574 -22.547 -18.634  0.00  0.00    +0.037 C 
ATOM      6  C   UNL     1      36.715 -21.968 -17.674  0.00  0.00    +0.037 C 
ENDROOT
BRANCH   1   9
ATOM      7  N   UNL     1      33.469 -23.241 -14.441  0.00  0.00    -0.236 N 
ATOM      8  N   UNL     1      33.244 -23.867 -13.273  0.00  0.00    -0.180 NA
ATOM      9  C   UNL     1      34.625 -23.623 -15.058  0.00  0.00    +0.067 C 
ATOM     10  C   UNL     1      35.195 -24.565 -14.235  0.00  0.00    +0.036 C 
ATOM     11  C   UNL     1      34.302 -24.674 -13.153  0.00  0.00    +0.119 C 
ATOM     12  H   UNL     1      32.856 -22.570 -14.817  0.00  0.00    +0.174 HD
BRANCH  10  14
ATOM     13  N   UNL     1      38.844 -26.567 -14.993  0.00  0.00    -0.242 NA
ATOM     14  C   UNL     1      36.430 -25.242 -14.493  0.00  0.00    +0.006 C 
ATOM     15  C   UNL     1      37.613 -24.789 -13.914  0.00  0.00    +0.021 C 
ATOM     16  C   UNL     1      36.458 -26.361 -15.321  0.00  0.00    +0.021 C 
ATOM     17  C   UNL     1      38.781 -25.478 -14.193  0.00  0.00    +0.099 C 
ATOM     18  C   UNL     1      37.679 -26.980 -15.538  0.00  0.00    +0.099 C 
ENDBRANCH  10  14
ENDBRANCH   1   9
BRANCH   4  19
ATOM     19  O   UNL     1      36.238 -21.462 -19.958  0.00  0.00    -0.468 OA
BRANCH  19  20
ATOM     20  C   UNL     1      35.249 -21.370 -20.975  0.00  0.00    +0.264 C 
BRANCH  20  22
ATOM     21  N   UNL     1      34.836 -19.983 -22.914  0.00  0.00    -0.406 NA
ATOM     22  C   UNL     1      35.384 -20.062 -21.680  0.00  0.00    +0.152 C 
ATOM     23  C   UNL     1      35.597 -17.700 -23.032  0.00  0.00    +0.026 C 
ATOM     24  C   UNL     1      34.939 -18.819 -23.584  0.00  0.00    +0.113 C 
ATOM     25  C   UNL     1      36.046 -19.023 -21.060  0.00  0.00    +0.031 C 
ATOM     26  C   UNL     1      36.151 -17.825 -21.751  0.00  0.00    +0.005 C 
ATOM     27  C   UNL     1      35.686 -16.500 -23.758  0.00  0.00    +0.002 C 
ATOM     28  C   UNL     1      34.389 -18.693 -24.856  0.00  0.00    +0.085 C 
ATOM     29  C   UNL     1      35.127 -16.402 -25.029  0.00  0.00    -0.004 C 
ATOM     30  C   UNL     1      34.478 -17.501 -25.578  0.00  0.00    -0.019 C 
ENDBRANCH  20  22
ENDBRANCH  19  20
ENDBRANCH   4  19
TORSDOF 5
ENDMDL
MODEL 6
REMARK VINA RESULT:     -11.4      2.716      4.883
REMARK  Name = 11610553
REMARK  5 active torsions:
REMARK  status: ('A' for Active; 'I' for Inactive)
REMARK    1  A    between atoms: C_1  and  C_9
REMARK    2  A    between atoms: C_4  and  O_19
REMARK    3  A    between atoms: C_10  and  C_14
REMARK    4  A    between atoms: O_19  and  C_20
REMARK    5  A    between atoms: C_20  and  C_22
REMARK                            x       y       z     vdW  Elec       q    Type
REMARK                         _______ _______ _______ _____ _____    ______ ____
ROOT
ATOM      1  C   UNL     1      37.282 -24.272 -15.552  0.00  0.00    +0.015 C 
ATOM      2  C   UNL     1      36.055 -24.935 -15.548  0.00  0.00    +0.004 C 
ATOM      3  C   UNL     1      37.400 -23.026 -16.166  0.00  0.00    +0.004 C 
ATOM      4  C   UNL     1      35.071 -23.108 -16.770  0.00  0.00    +0.139 C 
ATOM      5  C   UNL     1      34.946 -24.351 -16.160  0.00  0.00    +0.037 C 
ATOM      6  C   UNL     1      36.292 -22.441 -16.777  0.00  0.00    +0.037 C 
ENDROOT
BRANCH   1   9
ATOM      7  N   UNL     1      39.485 -25.359 -15.639  0.00  0.00    -0.236 N 
ATOM      8  N   UNL     1      40.462 -25.886 -14.882  0.00  0.00    -0.180 NA
ATOM      9  C   UNL     1      38.429 -24.877 -14.920  0.00  0.00    +0.067 C 
ATOM     10  C   UNL     1      38.739 -25.106 -13.601  0.00  0.00    +0.036 C 
ATOM     11  C   UNL     1      40.001 -25.728 -13.638  0.00  0.00    +0.119 C 
ATOM     12  H   UNL     1      39.526 -25.323 -16.621  0.00  0.00    +0.174 HD
BRANCH  10  14
ATOM     13  N   UNL     1      36.281 -24.075 -10.315  0.00  0.00    -0.242 NA
ATOM     14  C   UNL     1      37.908 -24.757 -12.488  0.00  0.00    +0.006 C 
ATOM     15  C   UNL     1      38.063 -23.527 -11.855  0.00  0.00    +0.021 C 
ATOM     16  C   UNL     1      36.937 -25.645 -12.032  0.00  0.00    +0.021 C 
ATOM     17  C   UNL     1      37.234 -23.237 -10.783  0.00  0.00    +0.099 C 
ATOM     18  C   UNL     1      36.158 -25.260 -10.953  0.00  0.00    +0.099 C 
ENDBRANCH  10  14
ENDBRANCH   1   9
BRANCH   4  19
ATOM     19  O   UNL     1      33.981 -22.534 -17.371  0.00  0.00    -0.468 OA
BRANCH  19  20
ATOM     20  C   UNL     1      33.700 -22.934 -18.705  0.00  0.00    +0.264 C 
BRANCH  20  22
ATOM     21  N   UNL     1      35.349 -21.495 -19.738  0.00  0.00    -0.406 NA
ATOM     22  C   UNL     1      34.040 -21.820 -19.639  0.00  0.00    +0.152 C 
ATOM     23  C   UNL     1      34.734 -19.788 -21.325  0.00  0.00    +0.026 C 
ATOM     24  C   UNL     1      35.695 -20.493 -20.569  0.00  0.00    +0.113 C 
ATOM     25  C   UNL     1      33.031 -21.189 -20.336  0.00  0.00    +0.031 C 
ATOM     26  C   UNL     1      33.389 -20.157 -21.191  0.00  0.00    +0.005 C 
ATOM     27  C   UNL     1      35.130 -18.748 -22.183  0.00  0.00    +0.002 C 
ATOM     28  C   UNL     1      37.031 -20.126 -20.704  0.00  0.00    +0.085 C 
ATOM     29  C   UNL     1      36.473 -18.401 -22.297  0.00  0.00    -0.004 C 
ATOM     30  C   UNL     1      37.425 -19.091 -21.556  0.00  0.00    -0.019 C 
ENDBRANCH  20  22
ENDBRANCH  19  20
ENDBRANCH   4  19
TORSDOF 5
ENDMDL
MODEL 7
REMARK VINA RESULT:     -11.2      4.004     11.264
REMARK  Name = 11610553
REMARK  5 active torsions:
REMARK  status: ('A' for Active; 'I' for Inactive)
REMARK    1  A    between atoms: C_1  and  C_9
REMARK    2  A    between atoms: C_4  and  O_19
REMARK    3  A    between atoms: C_10  and  C_14
REMARK    4  A    between atoms: O_19  and  C_20
REMARK    5  A    between atoms: C_20  and  C_22
REMARK                            x       y       z     vdW  Elec       q    Type
REMARK                         _______ _______ _______ _____ _____    ______ ____
ROOT
ATOM      1  C   UNL     1      33.236 -13.324 -22.523  0.00  0.00    +0.015 C 
ATOM      2  C   UNL     1      34.007 -13.902 -21.514  0.00  0.00    +0.004 C 
ATOM      3  C   UNL     1      33.329 -13.800 -23.830  0.00  0.00    +0.004 C 
ATOM      4  C   UNL     1      34.959 -15.424 -23.119  0.00  0.00    +0.139 C 
ATOM      5  C   UNL     1      34.871 -14.955 -21.814  0.00  0.00    +0.037 C 
ATOM      6  C   UNL     1      34.193 -14.853 -24.130  0.00  0.00    +0.037 C 
ENDROOT
BRANCH   1   9
ATOM      7  N   UNL     1      31.206 -12.414 -21.480  0.00  0.00    -0.236 N 
ATOM      8  N   UNL     1      30.498 -11.288 -21.291  0.00  0.00    -0.180 NA
ATOM      9  C   UNL     1      32.343 -12.235 -22.213  0.00  0.00    +0.067 C 
ATOM     10  C   UNL     1      32.381 -10.897 -22.524  0.00  0.00    +0.036 C 
ATOM     11  C   UNL     1      31.221 -10.364 -21.931  0.00  0.00    +0.119 C 
ATOM     12  H   UNL     1      30.930 -13.289 -21.123  0.00  0.00    +0.174 HD
BRANCH  10  14
ATOM     13  N   UNL     1      35.423  -9.013 -24.783  0.00  0.00    -0.242 NA
ATOM     14  C   UNL     1      33.410 -10.259 -23.289  0.00  0.00    +0.006 C 
ATOM     15  C   UNL     1      33.655  -8.897 -23.137  0.00  0.00    +0.021 C 
ATOM     16  C   UNL     1      34.174 -10.996 -24.190  0.00  0.00    +0.021 C 
ATOM     17  C   UNL     1      34.662  -8.327 -23.899  0.00  0.00    +0.099 C 
ATOM     18  C   UNL     1      35.158 -10.333 -24.906  0.00  0.00    +0.099 C 
ENDBRANCH  10  14
ENDBRANCH   1   9
BRANCH   4  19
ATOM     19  O   UNL     1      35.808 -16.458 -23.414  0.00  0.00    -0.468 OA
BRANCH  19  20
ATOM     20  C   UNL     1      35.210 -17.717 -23.695  0.00  0.00    +0.264 C 
BRANCH  20  22
ATOM     21  N   UNL     1      34.491 -19.383 -22.093  0.00  0.00    -0.406 NA
ATOM     22  C   UNL     1      35.527 -18.673 -22.593  0.00  0.00    +0.152 C 
ATOM     23  C   UNL     1      36.035 -20.438 -20.573  0.00  0.00    +0.026 C 
ATOM     24  C   UNL     1      34.738 -20.255 -21.097  0.00  0.00    +0.113 C 
ATOM     25  C   UNL     1      36.828 -18.784 -22.146  0.00  0.00    +0.031 C 
ATOM     26  C   UNL     1      37.080 -19.682 -21.120  0.00  0.00    +0.005 C 
ATOM     27  C   UNL     1      36.257 -21.357 -19.533  0.00  0.00    +0.002 C 
ATOM     28  C   UNL     1      33.700 -21.007 -20.553  0.00  0.00    +0.085 C 
ATOM     29  C   UNL     1      35.200 -22.095 -19.008  0.00  0.00    -0.004 C 
ATOM     30  C   UNL     1      33.921 -21.920 -19.519  0.00  0.00    -0.019 C 
ENDBRANCH  20  22
ENDBRANCH  19  20
ENDBRANCH   4  19
TORSDOF 5
ENDMDL
MODEL 8
REMARK VINA RESULT:     -11.1      1.544      3.334
REMARK  Name = 11610553
REMARK  5 active torsions:
REMARK  status: ('A' for Active; 'I' for Inactive)
REMARK    1  A    between atoms: C_1  and  C_9
REMARK    2  A    between atoms: C_4  and  O_19
REMARK    3  A    between atoms: C_10  and  C_14
REMARK    4  A    between atoms: O_19  and  C_20
REMARK    5  A    between atoms: C_20  and  C_22
REMARK                            x       y       z     vdW  Elec       q    Type
REMARK                         _______ _______ _______ _____ _____    ______ ____
ROOT
ATOM      1  C   UNL     1      34.866 -23.094 -16.764  0.00  0.00    +0.015 C 
ATOM      2  C   UNL     1      33.810 -23.151 -17.674  0.00  0.00    +0.004 C 
ATOM      3  C   UNL     1      36.055 -22.453 -17.113  0.00  0.00    +0.004 C 
ATOM      4  C   UNL     1      35.132 -21.930 -19.275  0.00  0.00    +0.139 C 
ATOM      5  C   UNL     1      33.945 -22.567 -18.934  0.00  0.00    +0.037 C 
ATOM      6  C   UNL     1      36.189 -21.869 -18.372  0.00  0.00    +0.037 C 
ENDROOT
BRANCH   1   9
ATOM      7  N   UNL     1      35.808 -24.070 -14.715  0.00  0.00    -0.236 N 
ATOM      8  N   UNL     1      35.487 -24.615 -13.529  0.00  0.00    -0.180 NA
ATOM      9  C   UNL     1      34.728 -23.698 -15.462  0.00  0.00    +0.067 C 
ATOM     10  C   UNL     1      33.623 -24.024 -14.711  0.00  0.00    +0.036 C 
ATOM     11  C   UNL     1      34.152 -24.584 -13.533  0.00  0.00    +0.119 C 
ATOM     12  H   UNL     1      36.736 -23.948 -15.017  0.00  0.00    +0.174 HD
BRANCH  10  14
ATOM     13  N   UNL     1      29.609 -23.389 -15.887  0.00  0.00    -0.242 NA
ATOM     14  C   UNL     1      32.265 -23.809 -15.110  0.00  0.00    +0.006 C 
ATOM     15  C   UNL     1      31.519 -24.853 -15.649  0.00  0.00    +0.021 C 
ATOM     16  C   UNL     1      31.679 -22.555 -14.959  0.00  0.00    +0.021 C 
ATOM     17  C   UNL     1      30.209 -24.595 -16.019  0.00  0.00    +0.099 C 
ATOM     18  C   UNL     1      30.362 -22.399 -15.360  0.00  0.00    +0.099 C 
ENDBRANCH  10  14
ENDBRANCH   1   9
BRANCH   4  19
ATOM     19  O   UNL     1      35.264 -21.356 -20.512  0.00  0.00    -0.468 OA
BRANCH  19  20
ATOM     20  C   UNL     1      36.031 -20.162 -20.587  0.00  0.00    +0.264 C 
BRANCH  20  22
ATOM     21  N   UNL     1      35.657 -18.072 -21.748  0.00  0.00    -0.406 NA
ATOM     22  C   UNL     1      35.677 -19.422 -21.833  0.00  0.00    +0.152 C 
ATOM     23  C   UNL     1      35.031 -18.003 -24.074  0.00  0.00    +0.026 C 
ATOM     24  C   UNL     1      35.339 -17.369 -22.852  0.00  0.00    +0.113 C 
ATOM     25  C   UNL     1      35.390 -20.129 -22.983  0.00  0.00    +0.031 C 
ATOM     26  C   UNL     1      35.063 -19.403 -24.118  0.00  0.00    +0.005 C 
ATOM     27  C   UNL     1      34.704 -17.238 -25.207  0.00  0.00    +0.002 C 
ATOM     28  C   UNL     1      35.307 -15.978 -22.810  0.00  0.00    +0.085 C 
ATOM     29  C   UNL     1      34.679 -15.848 -25.136  0.00  0.00    -0.004 C 
ATOM     30  C   UNL     1      34.981 -15.218 -23.936  0.00  0.00    -0.019 C 
ENDBRANCH  20  22
ENDBRANCH  19  20
ENDBRANCH   4  19
TORSDOF 5
ENDMDL
MODEL 9
REMARK VINA RESULT:     -11.0      8.372     15.821
REMARK  Name = 11610553
REMARK  5 active torsions:
REMARK  status: ('A' for Active; 'I' for Inactive)
REMARK    1  A    between atoms: C_1  and  C_9
REMARK    2  A    between atoms: C_4  and  O_19
REMARK    3  A    between atoms: C_10  and  C_14
REMARK    4  A    between atoms: O_19  and  C_20
REMARK    5  A    between atoms: C_20  and  C_22
REMARK                            x       y       z     vdW  Elec       q    Type
REMARK                         _______ _______ _______ _____ _____    ______ ____
ROOT
ATOM      1  C   UNL     1      31.740  -6.167 -22.567  0.00  0.00    +0.015 C 
ATOM      2  C   UNL     1      32.416  -6.339 -21.359  0.00  0.00    +0.004 C 
ATOM      3  C   UNL     1      31.314  -7.279 -23.293  0.00  0.00    +0.004 C 
ATOM      4  C   UNL     1      32.240  -8.728 -21.608  0.00  0.00    +0.139 C 
ATOM      5  C   UNL     1      32.667  -7.624 -20.878  0.00  0.00    +0.037 C 
ATOM      6  C   UNL     1      31.565  -8.563 -22.813  0.00  0.00    +0.037 C 
ENDROOT
BRANCH   1   9
ATOM      7  N   UNL     1      30.543  -4.021 -22.502  0.00  0.00    -0.236 N 
ATOM      8  N   UNL     1      30.440  -2.821 -23.097  0.00  0.00    -0.180 NA
ATOM      9  C   UNL     1      31.481  -4.838 -23.065  0.00  0.00    +0.067 C 
ATOM     10  C   UNL     1      32.029  -4.120 -24.101  0.00  0.00    +0.036 C 
ATOM     11  C   UNL     1      31.350  -2.887 -24.073  0.00  0.00    +0.119 C 
ATOM     12  H   UNL     1      29.994  -4.288 -21.730  0.00  0.00    +0.174 HD
BRANCH  10  14
ATOM     13  N   UNL     1      35.078  -5.519 -26.679  0.00  0.00    -0.242 NA
ATOM     14  C   UNL     1      33.061  -4.593 -24.973  0.00  0.00    +0.006 C 
ATOM     15  C   UNL     1      34.019  -5.488 -24.506  0.00  0.00    +0.021 C 
ATOM     16  C   UNL     1      33.114  -4.163 -26.297  0.00  0.00    +0.021 C 
ATOM     17  C   UNL     1      34.997  -5.916 -25.389  0.00  0.00    +0.099 C 
ATOM     18  C   UNL     1      34.132  -4.650 -27.100  0.00  0.00    +0.099 C 
ENDBRANCH  10  14
ENDBRANCH   1   9
BRANCH   4  19
ATOM     19  O   UNL     1      32.487  -9.990 -21.135  0.00  0.00    -0.468 OA
BRANCH  19  20
ATOM     20  C   UNL     1      31.683 -11.039 -21.660  0.00  0.00    +0.264 C 
BRANCH  20  22
ATOM     21  N   UNL     1      32.934 -13.081 -21.309  0.00  0.00    -0.406 NA
ATOM     22  C   UNL     1      32.563 -12.122 -22.188  0.00  0.00    +0.152 C 
ATOM     23  C   UNL     1      34.178 -14.132 -23.086  0.00  0.00    +0.026 C 
ATOM     24  C   UNL     1      33.730 -14.074 -21.749  0.00  0.00    +0.113 C 
ATOM     25  C   UNL     1      32.951 -12.094 -23.512  0.00  0.00    +0.031 C 
ATOM     26  C   UNL     1      33.771 -13.118 -23.963  0.00  0.00    +0.005 C 
ATOM     27  C   UNL     1      35.009 -15.183 -23.511  0.00  0.00    +0.002 C 
ATOM     28  C   UNL     1      34.135 -15.082 -20.879  0.00  0.00    +0.085 C 
ATOM     29  C   UNL     1      35.399 -16.178 -22.619  0.00  0.00    -0.004 C 
ATOM     30  C   UNL     1      34.961 -16.127 -21.301  0.00  0.00    -0.019 C 
ENDBRANCH  20  22
ENDBRANCH  19  20
ENDBRANCH   4  19
TORSDOF 5
ENDMDL
