MODEL 1
REMARK VINA RESULT:     -11.2      0.000      0.000
REMARK  Name = 10361208
REMARK  3 active torsions:
REMARK  status: ('A' for Active; 'I' for Inactive)
REMARK    1  A    between atoms: N_1  and  C_12
REMARK    2  A    between atoms: C_10  and  C_18
REMARK    3  A    between atoms: C_21  and  C_27
REMARK                            x       y       z     vdW  Elec       q    Type
REMARK                         _______ _______ _______ _____ _____    ______ ____
ROOT
ATOM      1  N   UNL     1      37.171 -23.019 -14.775  0.00  0.00    -0.318 N 
ATOM      2  N   UNL     1      35.245 -22.994 -16.027  0.00  0.00    -0.147 NA
ATOM      3  N   UNL     1      34.710 -22.722 -17.244  0.00  0.00    -0.190 N 
ATOM      4  N   UNL     1      34.496 -22.120 -19.344  0.00  0.00    -0.127 NA
ATOM      5  N   UNL     1      33.256 -22.496 -18.868  0.00  0.00    -0.127 NA
ATOM      6  C   UNL     1      36.537 -22.782 -15.935  0.00  0.00    +0.149 C 
ATOM      7  C   UNL     1      37.357 -22.278 -17.093  0.00  0.00    +0.039 C 
ATOM      8  C   UNL     1      35.361 -22.260 -18.362  0.00  0.00    +0.187 A 
ATOM      9  C   UNL     1      36.746 -22.035 -18.258  0.00  0.00    +0.044 C 
ATOM     10  C   UNL     1      33.403 -22.851 -17.612  0.00  0.00    +0.187 A 
ATOM     11  H   UNL     1      38.138 -22.839 -14.722  0.00  0.00    +0.148 HD
ENDROOT
BRANCH   1  12
ATOM     12  C   UNL     1      36.493 -23.526 -13.597  0.00  0.00    +0.070 C 
ATOM     13  C   UNL     1      36.128 -25.001 -13.795  0.00  0.00    +0.020 C 
ATOM     14  C   UNL     1      37.371 -23.324 -12.358  0.00  0.00    +0.020 C 
ATOM     15  C   UNL     1      37.350 -25.921 -13.769  0.00  0.00    +0.002 C 
ATOM     16  C   UNL     1      38.587 -24.250 -12.337  0.00  0.00    +0.002 C 
ATOM     17  C   UNL     1      38.186 -25.712 -12.511  0.00  0.00    +0.000 C 
ENDBRANCH   1  12
BRANCH  10  18
ATOM     18  C   UNL     1      32.359 -23.315 -16.730  0.00  0.00    +0.038 C 
ATOM     19  C   UNL     1      31.021 -23.161 -17.091  0.00  0.00    +0.007 C 
ATOM     20  C   UNL     1      32.689 -23.916 -15.516  0.00  0.00    +0.003 C 
ATOM     21  C   UNL     1      30.013 -23.609 -16.238  0.00  0.00    +0.072 C 
ATOM     22  C   UNL     1      31.681 -24.364 -14.662  0.00  0.00    +0.000 C 
ATOM     23  C   UNL     1      30.342 -24.210 -15.024  0.00  0.00    +0.004 C 
BRANCH  21  27
ATOM     24  F   UNL     1      27.754 -23.198 -15.565  0.00  0.00    -0.166 F 
ATOM     25  F   UNL     1      28.363 -22.418 -17.496  0.00  0.00    -0.166 F 
ATOM     26  F   UNL     1      28.072 -24.557 -17.233  0.00  0.00    -0.166 F 
ATOM     27  C   UNL     1      28.581 -23.446 -16.624  0.00  0.00    +0.419 C 
ENDBRANCH  21  27
ENDBRANCH  10  18
TORSDOF 3
ENDMDL
MODEL 2
REMARK VINA RESULT:     -10.5      1.802      2.364
REMARK  Name = 10361208
REMARK  3 active torsions:
REMARK  status: ('A' for Active; 'I' for Inactive)
REMARK    1  A    between atoms: N_1  and  C_12
REMARK    2  A    between atoms: C_10  and  C_18
REMARK    3  A    between atoms: C_21  and  C_27
REMARK                            x       y       z     vdW  Elec       q    Type
REMARK                         _______ _______ _______ _____ _____    ______ ____
ROOT
ATOM      1  N   UNL     1      36.996 -23.034 -15.114  0.00  0.00    -0.318 N 
ATOM      2  N   UNL     1      35.076 -22.857 -16.364  0.00  0.00    -0.147 NA
ATOM      3  N   UNL     1      34.563 -22.541 -17.579  0.00  0.00    -0.190 N 
ATOM      4  N   UNL     1      34.393 -21.920 -19.678  0.00  0.00    -0.127 NA
ATOM      5  N   UNL     1      33.129 -22.200 -19.201  0.00  0.00    -0.127 NA
ATOM      6  C   UNL     1      36.381 -22.747 -16.273  0.00  0.00    +0.149 C 
ATOM      7  C   UNL     1      37.236 -22.305 -17.431  0.00  0.00    +0.039 C 
ATOM      8  C   UNL     1      35.246 -22.129 -18.698  0.00  0.00    +0.187 A 
ATOM      9  C   UNL     1      36.645 -22.013 -18.595  0.00  0.00    +0.044 C 
ATOM     10  C   UNL     1      33.249 -22.568 -17.945  0.00  0.00    +0.187 A 
ATOM     11  H   UNL     1      37.974 -22.930 -15.062  0.00  0.00    +0.148 HD
ENDROOT
BRANCH   1  12
ATOM     12  C   UNL     1      36.282 -23.490 -13.937  0.00  0.00    +0.070 C 
ATOM     13  C   UNL     1      35.914 -24.970 -14.085  0.00  0.00    +0.020 C 
ATOM     14  C   UNL     1      37.126 -23.243 -12.682  0.00  0.00    +0.020 C 
ATOM     15  C   UNL     1      37.129 -25.894 -13.987  0.00  0.00    +0.002 C 
ATOM     16  C   UNL     1      38.336 -24.173 -12.590  0.00  0.00    +0.002 C 
ATOM     17  C   UNL     1      37.930 -25.638 -12.715  0.00  0.00    +0.000 C 
ENDBRANCH   1  12
BRANCH  10  18
ATOM     18  C   UNL     1      32.173 -22.951 -17.063  0.00  0.00    +0.038 C 
ATOM     19  C   UNL     1      32.457 -23.510 -15.817  0.00  0.00    +0.007 C 
ATOM     20  C   UNL     1      30.849 -22.763 -17.458  0.00  0.00    +0.003 C 
ATOM     21  C   UNL     1      31.416 -23.881 -14.966  0.00  0.00    +0.072 C 
ATOM     22  C   UNL     1      29.808 -23.134 -16.607  0.00  0.00    +0.000 C 
ATOM     23  C   UNL     1      30.092 -23.693 -15.361  0.00  0.00    +0.004 C 
BRANCH  21  27
ATOM     24  F   UNL     1      30.735 -24.273 -12.707  0.00  0.00    -0.166 F 
ATOM     25  F   UNL     1      31.900 -25.830 -13.668  0.00  0.00    -0.166 F 
ATOM     26  F   UNL     1      32.857 -23.969 -13.076  0.00  0.00    -0.166 F 
ATOM     27  C   UNL     1      31.718 -24.477 -13.633  0.00  0.00    +0.419 C 
ENDBRANCH  21  27
ENDBRANCH  10  18
TORSDOF 3
ENDMDL
MODEL 3
REMARK VINA RESULT:     -10.5     12.497     15.174
REMARK  Name = 10361208
REMARK  3 active torsions:
REMARK  status: ('A' for Active; 'I' for Inactive)
REMARK    1  A    between atoms: N_1  and  C_12
REMARK    2  A    between atoms: C_10  and  C_18
REMARK    3  A    between atoms: C_21  and  C_27
REMARK                            x       y       z     vdW  Elec       q    Type
REMARK                         _______ _______ _______ _____ _____    ______ ____
ROOT
ATOM      1  N   UNL     1      31.824  -8.679 -21.964  0.00  0.00    -0.318 N 
ATOM      2  N   UNL     1      32.406 -10.900 -22.034  0.00  0.00    -0.147 NA
ATOM      3  N   UNL     1      32.483 -12.055 -21.326  0.00  0.00    -0.190 N 
ATOM      4  N   UNL     1      32.357 -13.516 -19.692  0.00  0.00    -0.127 NA
ATOM      5  N   UNL     1      32.856 -14.152 -20.810  0.00  0.00    -0.127 NA
ATOM      6  C   UNL     1      31.942  -9.873 -21.361  0.00  0.00    +0.149 C 
ATOM      7  C   UNL     1      31.529  -9.974 -19.917  0.00  0.00    +0.039 C 
ATOM      8  C   UNL     1      32.136 -12.258 -20.012  0.00  0.00    +0.187 A 
ATOM      9  C   UNL     1      31.640 -11.153 -19.296  0.00  0.00    +0.044 C 
ATOM     10  C   UNL     1      32.925 -13.264 -21.776  0.00  0.00    +0.187 A 
ATOM     11  H   UNL     1      31.489  -7.917 -21.438  0.00  0.00    +0.148 HD
ENDROOT
BRANCH   1  12
ATOM     12  C   UNL     1      32.169  -8.463 -23.357  0.00  0.00    +0.070 C 
ATOM     13  C   UNL     1      31.211  -7.445 -23.984  0.00  0.00    +0.020 C 
ATOM     14  C   UNL     1      33.628  -8.010 -23.473  0.00  0.00    +0.020 C 
ATOM     15  C   UNL     1      31.440  -6.023 -23.469  0.00  0.00    +0.002 C 
ATOM     16  C   UNL     1      33.847  -6.586 -22.960  0.00  0.00    +0.002 C 
ATOM     17  C   UNL     1      32.895  -5.595 -23.624  0.00  0.00    +0.000 C 
ENDBRANCH   1  12
BRANCH  10  18
ATOM     18  C   UNL     1      33.392 -13.503 -23.121  0.00  0.00    +0.038 C 
ATOM     19  C   UNL     1      33.734 -14.794 -23.522  0.00  0.00    +0.007 C 
ATOM     20  C   UNL     1      33.502 -12.441 -24.018  0.00  0.00    +0.003 C 
ATOM     21  C   UNL     1      34.185 -15.023 -24.821  0.00  0.00    +0.072 C 
ATOM     22  C   UNL     1      33.954 -12.670 -25.318  0.00  0.00    +0.000 C 
ATOM     23  C   UNL     1      34.296 -13.962 -25.719  0.00  0.00    +0.004 C 
BRANCH  21  27
ATOM     24  F   UNL     1      34.819 -17.249 -24.213  0.00  0.00    -0.166 F 
ATOM     25  F   UNL     1      33.573 -17.027 -25.974  0.00  0.00    -0.166 F 
ATOM     26  F   UNL     1      35.663 -16.430 -26.043  0.00  0.00    -0.166 F 
ATOM     27  C   UNL     1      34.550 -16.404 -25.252  0.00  0.00    +0.419 C 
ENDBRANCH  21  27
ENDBRANCH  10  18
TORSDOF 3
ENDMDL
MODEL 4
REMARK VINA RESULT:     -10.3      2.616      6.196
REMARK  Name = 10361208
REMARK  3 active torsions:
REMARK  status: ('A' for Active; 'I' for Inactive)
REMARK    1  A    between atoms: N_1  and  C_12
REMARK    2  A    between atoms: C_10  and  C_18
REMARK    3  A    between atoms: C_21  and  C_27
REMARK                            x       y       z     vdW  Elec       q    Type
REMARK                         _______ _______ _______ _____ _____    ______ ____
ROOT
ATOM      1  N   UNL     1      32.380 -24.594 -14.429  0.00  0.00    -0.318 N 
ATOM      2  N   UNL     1      34.410 -23.704 -15.033  0.00  0.00    -0.147 NA
ATOM      3  N   UNL     1      35.680 -23.451 -14.629  0.00  0.00    -0.190 N 
ATOM      4  N   UNL     1      37.499 -23.335 -13.406  0.00  0.00    -0.127 NA
ATOM      5  N   UNL     1      37.765 -22.774 -14.638  0.00  0.00    -0.127 NA
ATOM      6  C   UNL     1      33.656 -24.296 -14.136  0.00  0.00    +0.149 C 
ATOM      7  C   UNL     1      34.165 -24.661 -12.767  0.00  0.00    +0.039 C 
ATOM      8  C   UNL     1      36.247 -23.739 -13.411  0.00  0.00    +0.187 A 
ATOM      9  C   UNL     1      35.433 -24.372 -12.453  0.00  0.00    +0.044 C 
ATOM     10  C   UNL     1      36.666 -22.850 -15.355  0.00  0.00    +0.187 A 
ATOM     11  H   UNL     1      31.826 -25.023 -13.737  0.00  0.00    +0.148 HD
ENDROOT
BRANCH   1  12
ATOM     12  C   UNL     1      31.782 -24.311 -15.720  0.00  0.00    +0.070 C 
ATOM     13  C   UNL     1      30.675 -25.326 -16.021  0.00  0.00    +0.020 C 
ATOM     14  C   UNL     1      31.252 -22.874 -15.751  0.00  0.00    +0.020 C 
ATOM     15  C   UNL     1      29.435 -25.125 -15.147  0.00  0.00    +0.002 C 
ATOM     16  C   UNL     1      30.011 -22.682 -14.878  0.00  0.00    +0.002 C 
ATOM     17  C   UNL     1      28.920 -23.692 -15.221  0.00  0.00    +0.000 C 
ENDBRANCH   1  12
BRANCH  10  18
ATOM     18  C   UNL     1      36.499 -22.381 -16.710  0.00  0.00    +0.038 C 
ATOM     19  C   UNL     1      35.348 -22.710 -17.426  0.00  0.00    +0.007 C 
ATOM     20  C   UNL     1      37.490 -21.600 -17.303  0.00  0.00    +0.003 C 
ATOM     21  C   UNL     1      35.187 -22.256 -18.734  0.00  0.00    +0.072 C 
ATOM     22  C   UNL     1      37.331 -21.147 -18.613  0.00  0.00    +0.000 C 
ATOM     23  C   UNL     1      36.178 -21.475 -19.329  0.00  0.00    +0.004 C 
BRANCH  21  27
ATOM     24  F   UNL     1      33.598 -21.662 -20.421  0.00  0.00    -0.166 F 
ATOM     25  F   UNL     1      34.063 -23.770 -20.206  0.00  0.00    -0.166 F 
ATOM     26  F   UNL     1      32.865 -22.764 -18.696  0.00  0.00    -0.166 F 
ATOM     27  C   UNL     1      33.956 -22.605 -19.501  0.00  0.00    +0.419 C 
ENDBRANCH  21  27
ENDBRANCH  10  18
TORSDOF 3
ENDMDL
MODEL 5
REMARK VINA RESULT:     -10.2     12.423     15.112
REMARK  Name = 10361208
REMARK  3 active torsions:
REMARK  status: ('A' for Active; 'I' for Inactive)
REMARK    1  A    between atoms: N_1  and  C_12
REMARK    2  A    between atoms: C_10  and  C_18
REMARK    3  A    between atoms: C_21  and  C_27
REMARK                            x       y       z     vdW  Elec       q    Type
REMARK                         _______ _______ _______ _____ _____    ______ ____
ROOT
ATOM      1  N   UNL     1      32.154  -9.219 -22.328  0.00  0.00    -0.318 N 
ATOM      2  N   UNL     1      32.650 -11.453 -22.130  0.00  0.00    -0.147 NA
ATOM      3  N   UNL     1      32.587 -12.541 -21.322  0.00  0.00    -0.190 N 
ATOM      4  N   UNL     1      32.190 -13.845 -19.601  0.00  0.00    -0.127 NA
ATOM      5  N   UNL     1      32.804 -14.594 -20.584  0.00  0.00    -0.127 NA
ATOM      6  C   UNL     1      32.144 -10.357 -21.615  0.00  0.00    +0.149 C 
ATOM      7  C   UNL     1      31.542 -10.316 -20.236  0.00  0.00    +0.039 C 
ATOM      8  C   UNL     1      32.063 -12.616 -20.054  0.00  0.00    +0.187 A 
ATOM      9  C   UNL     1      31.523 -11.438 -19.507  0.00  0.00    +0.044 C 
ATOM     10  C   UNL     1      33.035 -13.798 -21.605  0.00  0.00    +0.187 A 
ATOM     11  H   UNL     1      31.784  -8.403 -21.918  0.00  0.00    +0.148 HD
ENDROOT
BRANCH   1  12
ATOM     12  C   UNL     1      32.686  -9.139 -23.676  0.00  0.00    +0.070 C 
ATOM     13  C   UNL     1      31.915  -8.090 -24.484  0.00  0.00    +0.020 C 
ATOM     14  C   UNL     1      34.185  -8.826 -23.631  0.00  0.00    +0.020 C 
ATOM     15  C   UNL     1      32.216  -6.660 -24.035  0.00  0.00    +0.002 C 
ATOM     16  C   UNL     1      34.476  -7.392 -23.185  0.00  0.00    +0.002 C 
ATOM     17  C   UNL     1      33.713  -6.374 -24.027  0.00  0.00    +0.000 C 
ENDBRANCH   1  12
BRANCH  10  18
ATOM     18  C   UNL     1      33.663 -14.170 -22.850  0.00  0.00    +0.038 C 
ATOM     19  C   UNL     1      33.285 -13.544 -24.037  0.00  0.00    +0.007 C 
ATOM     20  C   UNL     1      34.648 -15.157 -22.864  0.00  0.00    +0.003 C 
ATOM     21  C   UNL     1      33.892 -13.905 -25.239  0.00  0.00    +0.072 C 
ATOM     22  C   UNL     1      35.256 -15.519 -24.067  0.00  0.00    +0.000 C 
ATOM     23  C   UNL     1      34.877 -14.892 -25.255  0.00  0.00    +0.004 C 
BRANCH  21  27
ATOM     24  F   UNL     1      34.363 -13.443 -27.539  0.00  0.00    -0.166 F 
ATOM     25  F   UNL     1      32.276 -13.646 -26.984  0.00  0.00    -0.166 F 
ATOM     26  F   UNL     1      33.392 -11.880 -26.380  0.00  0.00    -0.166 F 
ATOM     27  C   UNL     1      33.489 -13.235 -26.510  0.00  0.00    +0.419 C 
ENDBRANCH  21  27
ENDBRANCH  10  18
TORSDOF 3
ENDMDL
MODEL 6
REMARK VINA RESULT:     -10.2      4.027      6.682
REMARK  Name = 10361208
REMARK  3 active torsions:
REMARK  status: ('A' for Active; 'I' for Inactive)
REMARK    1  A    between atoms: N_1  and  C_12
REMARK    2  A    between atoms: C_10  and  C_18
REMARK    3  A    between atoms: C_21  and  C_27
REMARK                            x       y       z     vdW  Elec       q    Type
REMARK                         _______ _______ _______ _____ _____    ______ ____
ROOT
ATOM      1  N   UNL     1      32.918 -24.227 -15.340  0.00  0.00    -0.318 N 
ATOM      2  N   UNL     1      34.447 -23.163 -16.684  0.00  0.00    -0.147 NA
ATOM      3  N   UNL     1      35.756 -22.848 -16.849  0.00  0.00    -0.190 N 
ATOM      4  N   UNL     1      37.922 -22.684 -16.530  0.00  0.00    -0.127 NA
ATOM      5  N   UNL     1      37.602 -22.029 -17.702  0.00  0.00    -0.127 NA
ATOM      6  C   UNL     1      34.182 -23.860 -15.603  0.00  0.00    +0.149 C 
ATOM      7  C   UNL     1      35.252 -24.275 -14.628  0.00  0.00    +0.039 C 
ATOM      8  C   UNL     1      36.808 -23.173 -16.027  0.00  0.00    +0.187 A 
ATOM      9  C   UNL     1      36.518 -23.920 -14.870  0.00  0.00    +0.044 C 
ATOM     10  C   UNL     1      36.304 -22.136 -17.876  0.00  0.00    +0.187 A 
ATOM     11  H   UNL     1      32.737 -24.736 -14.516  0.00  0.00    +0.148 HD
ENDROOT
BRANCH   1  12
ATOM     12  C   UNL     1      31.806 -23.905 -16.215  0.00  0.00    +0.070 C 
ATOM     13  C   UNL     1      30.934 -25.145 -16.433  0.00  0.00    +0.020 C 
ATOM     14  C   UNL     1      30.997 -22.743 -15.631  0.00  0.00    +0.020 C 
ATOM     15  C   UNL     1      30.137 -25.535 -15.187  0.00  0.00    +0.002 C 
ATOM     16  C   UNL     1      30.201 -23.141 -14.388  0.00  0.00    +0.002 C 
ATOM     17  C   UNL     1      29.324 -24.363 -14.649  0.00  0.00    +0.000 C 
ENDBRANCH   1  12
BRANCH  10  18
ATOM     18  C   UNL     1      35.545 -21.596 -18.978  0.00  0.00    +0.038 C 
ATOM     19  C   UNL     1      36.151 -20.723 -19.882  0.00  0.00    +0.007 C 
ATOM     20  C   UNL     1      34.205 -21.946 -19.138  0.00  0.00    +0.003 C 
ATOM     21  C   UNL     1      35.417 -20.201 -20.946  0.00  0.00    +0.072 C 
ATOM     22  C   UNL     1      33.470 -21.423 -20.202  0.00  0.00    +0.000 C 
ATOM     23  C   UNL     1      34.077 -20.550 -21.107  0.00  0.00    +0.004 C 
BRANCH  21  27
ATOM     24  F   UNL     1      37.429 -19.281 -21.856  0.00  0.00    -0.166 F 
ATOM     25  F   UNL     1      35.760 -19.538 -23.218  0.00  0.00    -0.166 F 
ATOM     26  F   UNL     1      35.700 -17.969 -21.714  0.00  0.00    -0.166 F 
ATOM     27  C   UNL     1      36.065 -19.269 -21.914  0.00  0.00    +0.419 C 
ENDBRANCH  21  27
ENDBRANCH  10  18
TORSDOF 3
ENDMDL
MODEL 7
REMARK VINA RESULT:      -9.6     12.483     14.867
REMARK  Name = 10361208
REMARK  3 active torsions:
REMARK  status: ('A' for Active; 'I' for Inactive)
REMARK    1  A    between atoms: N_1  and  C_12
REMARK    2  A    between atoms: C_10  and  C_18
REMARK    3  A    between atoms: C_21  and  C_27
REMARK                            x       y       z     vdW  Elec       q    Type
REMARK                         _______ _______ _______ _____ _____    ______ ____
ROOT
ATOM      1  N   UNL     1      33.687  -9.083 -24.032  0.00  0.00    -0.318 N 
ATOM      2  N   UNL     1      33.522 -11.252 -23.293  0.00  0.00    -0.147 NA
ATOM      3  N   UNL     1      33.711 -12.556 -23.615  0.00  0.00    -0.190 N 
ATOM      4  N   UNL     1      34.222 -14.382 -24.721  0.00  0.00    -0.127 NA
ATOM      5  N   UNL     1      33.770 -14.742 -23.468  0.00  0.00    -0.127 NA
ATOM      6  C   UNL     1      33.835 -10.401 -24.243  0.00  0.00    +0.149 C 
ATOM      7  C   UNL     1      34.362 -10.843 -25.582  0.00  0.00    +0.039 C 
ATOM      8  C   UNL     1      34.183 -13.069 -24.799  0.00  0.00    +0.187 A 
ATOM      9  C   UNL     1      34.516 -12.152 -25.813  0.00  0.00    +0.044 C 
ATOM     10  C   UNL     1      33.469 -13.639 -22.821  0.00  0.00    +0.187 A 
ATOM     11  H   UNL     1      33.912  -8.462 -24.763  0.00  0.00    +0.148 HD
ENDROOT
BRANCH   1  12
ATOM     12  C   UNL     1      33.209  -8.535 -22.777  0.00  0.00    +0.070 C 
ATOM     13  C   UNL     1      33.894  -7.194 -22.494  0.00  0.00    +0.020 C 
ATOM     14  C   UNL     1      31.684  -8.392 -22.813  0.00  0.00    +0.020 C 
ATOM     15  C   UNL     1      33.418  -6.079 -23.426  0.00  0.00    +0.002 C 
ATOM     16  C   UNL     1      31.217  -7.272 -23.743  0.00  0.00    +0.002 C 
ATOM     17  C   UNL     1      31.899  -5.947 -23.417  0.00  0.00    +0.000 C 
ENDBRANCH   1  12
BRANCH  10  18
ATOM     18  C   UNL     1      32.959 -13.554 -21.474  0.00  0.00    +0.038 C 
ATOM     19  C   UNL     1      32.578 -12.319 -20.948  0.00  0.00    +0.007 C 
ATOM     20  C   UNL     1      32.848 -14.707 -20.698  0.00  0.00    +0.003 C 
ATOM     21  C   UNL     1      32.086 -12.238 -19.646  0.00  0.00    +0.072 C 
ATOM     22  C   UNL     1      32.357 -14.626 -19.394  0.00  0.00    +0.000 C 
ATOM     23  C   UNL     1      31.976 -13.391 -18.868  0.00  0.00    +0.004 C 
BRANCH  21  27
ATOM     24  F   UNL     1      32.346  -9.860 -19.627  0.00  0.00    -0.166 F 
ATOM     25  F   UNL     1      30.354 -10.635 -19.261  0.00  0.00    -0.166 F 
ATOM     26  F   UNL     1      31.891 -10.835 -17.736  0.00  0.00    -0.166 F 
ATOM     27  C   UNL     1      31.677 -10.919 -19.082  0.00  0.00    +0.419 C 
ENDBRANCH  21  27
ENDBRANCH  10  18
TORSDOF 3
ENDMDL
MODEL 8
REMARK VINA RESULT:      -9.2     13.294     15.846
REMARK  Name = 10361208
REMARK  3 active torsions:
REMARK  status: ('A' for Active; 'I' for Inactive)
REMARK    1  A    between atoms: N_1  and  C_12
REMARK    2  A    between atoms: C_10  and  C_18
REMARK    3  A    between atoms: C_21  and  C_27
REMARK                            x       y       z     vdW  Elec       q    Type
REMARK                         _______ _______ _______ _____ _____    ______ ____
ROOT
ATOM      1  N   UNL     1      32.369  -8.148 -20.714  0.00  0.00    -0.318 N 
ATOM      2  N   UNL     1      32.676 -10.229 -21.636  0.00  0.00    -0.147 NA
ATOM      3  N   UNL     1      32.526 -11.564 -21.448  0.00  0.00    -0.190 N 
ATOM      4  N   UNL     1      32.028 -13.505 -20.550  0.00  0.00    -0.127 NA
ATOM      5  N   UNL     1      32.573 -13.728 -21.798  0.00  0.00    -0.127 NA
ATOM      6  C   UNL     1      32.267  -9.484 -20.635  0.00  0.00    +0.149 C 
ATOM      7  C   UNL     1      31.677 -10.071 -19.381  0.00  0.00    +0.039 C 
ATOM      8  C   UNL     1      32.003 -12.204 -20.351  0.00  0.00    +0.187 A 
ATOM      9  C   UNL     1      31.566 -11.401 -19.281  0.00  0.00    +0.044 C 
ATOM     10  C   UNL     1      32.866 -12.557 -22.320  0.00  0.00    +0.187 A 
ATOM     11  H   UNL     1      32.071  -7.607 -19.946  0.00  0.00    +0.148 HD
ENDROOT
BRANCH   1  12
ATOM     12  C   UNL     1      32.900  -7.466 -21.879  0.00  0.00    +0.070 C 
ATOM     13  C   UNL     1      32.218  -7.986 -23.148  0.00  0.00    +0.020 C 
ATOM     14  C   UNL     1      32.726  -5.951 -21.726  0.00  0.00    +0.020 C 
ATOM     15  C   UNL     1      30.762  -7.535 -23.265  0.00  0.00    +0.002 C 
ATOM     16  C   UNL     1      31.268  -5.508 -21.848  0.00  0.00    +0.002 C 
ATOM     17  C   UNL     1      30.628  -6.022 -23.134  0.00  0.00    +0.000 C 
ENDBRANCH   1  12
BRANCH  10  18
ATOM     18  C   UNL     1      33.455 -12.326 -23.617  0.00  0.00    +0.038 C 
ATOM     19  C   UNL     1      33.246 -13.238 -24.651  0.00  0.00    +0.007 C 
ATOM     20  C   UNL     1      34.235 -11.191 -23.834  0.00  0.00    +0.003 C 
ATOM     21  C   UNL     1      33.816 -13.014 -25.904  0.00  0.00    +0.072 C 
ATOM     22  C   UNL     1      34.806 -10.966 -25.087  0.00  0.00    +0.000 C 
ATOM     23  C   UNL     1      34.597 -11.878 -26.122  0.00  0.00    +0.004 C 
BRANCH  21  27
ATOM     24  F   UNL     1      32.323 -13.961 -27.514  0.00  0.00    -0.166 F 
ATOM     25  F   UNL     1      34.406 -13.785 -28.089  0.00  0.00    -0.166 F 
ATOM     26  F   UNL     1      33.808 -15.279 -26.627  0.00  0.00    -0.166 F 
ATOM     27  C   UNL     1      33.592 -13.987 -27.012  0.00  0.00    +0.419 C 
ENDBRANCH  21  27
ENDBRANCH  10  18
TORSDOF 3
ENDMDL
MODEL 9
REMARK VINA RESULT:      -9.1      7.958     10.258
REMARK  Name = 10361208
REMARK  3 active torsions:
REMARK  status: ('A' for Active; 'I' for Inactive)
REMARK    1  A    between atoms: N_1  and  C_12
REMARK    2  A    between atoms: C_10  and  C_18
REMARK    3  A    between atoms: C_21  and  C_27
REMARK                            x       y       z     vdW  Elec       q    Type
REMARK                         _______ _______ _______ _____ _____    ______ ____
ROOT
ATOM      1  N   UNL     1      35.163 -20.206 -22.351  0.00  0.00    -0.318 N 
ATOM      2  N   UNL     1      34.812 -18.062 -23.100  0.00  0.00    -0.147 NA
ATOM      3  N   UNL     1      34.711 -17.267 -24.195  0.00  0.00    -0.190 N 
ATOM      4  N   UNL     1      34.666 -16.576 -26.278  0.00  0.00    -0.127 NA
ATOM      5  N   UNL     1      34.444 -15.492 -25.453  0.00  0.00    -0.127 NA
ATOM      6  C   UNL     1      35.044 -19.328 -23.360  0.00  0.00    +0.149 C 
ATOM      7  C   UNL     1      35.187 -19.851 -24.765  0.00  0.00    +0.039 C 
ATOM      8  C   UNL     1      34.824 -17.636 -25.513  0.00  0.00    +0.187 A 
ATOM      9  C   UNL     1      35.074 -18.993 -25.786  0.00  0.00    +0.044 C 
ATOM     10  C   UNL     1      34.476 -15.924 -24.212  0.00  0.00    +0.187 A 
ATOM     11  H   UNL     1      35.353 -21.148 -22.566  0.00  0.00    +0.148 HD
ENDROOT
BRANCH   1  12
ATOM     12  C   UNL     1      35.024 -19.826 -20.958  0.00  0.00    +0.070 C 
ATOM     13  C   UNL     1      33.673 -20.303 -20.415  0.00  0.00    +0.020 C 
ATOM     14  C   UNL     1      36.190 -20.391 -20.140  0.00  0.00    +0.020 C 
ATOM     15  C   UNL     1      33.607 -21.822 -20.245  0.00  0.00    +0.002 C 
ATOM     16  C   UNL     1      36.114 -21.908 -19.971  0.00  0.00    +0.002 C 
ATOM     17  C   UNL     1      34.767 -22.346 -19.406  0.00  0.00    +0.000 C 
ENDBRANCH   1  12
BRANCH  10  18
ATOM     18  C   UNL     1      34.290 -15.122 -23.026  0.00  0.00    +0.038 C 
ATOM     19  C   UNL     1      33.483 -13.985 -23.072  0.00  0.00    +0.007 C 
ATOM     20  C   UNL     1      34.920 -15.483 -21.836  0.00  0.00    +0.003 C 
ATOM     21  C   UNL     1      33.305 -13.211 -21.926  0.00  0.00    +0.072 C 
ATOM     22  C   UNL     1      34.742 -14.708 -20.689  0.00  0.00    +0.000 C 
ATOM     23  C   UNL     1      33.934 -13.571 -20.735  0.00  0.00    +0.004 C 
BRANCH  21  27
ATOM     24  F   UNL     1      32.833 -11.080 -22.906  0.00  0.00    -0.166 F 
ATOM     25  F   UNL     1      31.134 -12.265 -22.265  0.00  0.00    -0.166 F 
ATOM     26  F   UNL     1      32.418 -11.322 -20.785  0.00  0.00    -0.166 F 
ATOM     27  C   UNL     1      32.440 -11.996 -21.973  0.00  0.00    +0.419 C 
ENDBRANCH  21  27
ENDBRANCH  10  18
TORSDOF 3
ENDMDL
