MODEL 1
REMARK VINA RESULT:     -11.0      0.000      0.000
REMARK  Name = 23725625
REMARK  4 active torsions:
REMARK  status: ('A' for Active; 'I' for Inactive)
REMARK    1  A    between atoms: C_2  and  C_17
REMARK    2  A    between atoms: C_4  and  C_21
REMARK    3  A    between atoms: C_12  and  C_18
REMARK    4  A    between atoms: C_21  and  C_25
REMARK                            x       y       z     vdW  Elec       q    Type
REMARK                         _______ _______ _______ _____ _____    ______ ____
ROOT
ATOM      1  F   UNL     1      31.519 -12.603 -22.253  0.00  0.00    -0.204 F 
ATOM      2  C   UNL     1      32.915 -10.789 -22.885  0.00  0.00    +0.081 C 
ATOM      3  C   UNL     1      33.392  -9.503 -22.644  0.00  0.00    +0.003 C 
ATOM      4  C   UNL     1      32.935  -8.789 -21.537  0.00  0.00    -0.016 C 
ATOM      5  C   UNL     1      31.984 -11.366 -22.026  0.00  0.00    +0.144 C 
ATOM      6  C   UNL     1      32.002  -9.364 -20.673  0.00  0.00    -0.002 C 
ATOM      7  C   UNL     1      31.527 -10.652 -20.918  0.00  0.00    +0.029 C 
ENDROOT
BRANCH   2  17
ATOM      8  O   UNL     1      35.573 -17.396 -24.383  0.00  0.00    -0.275 OA
ATOM      9  O   UNL     1      33.104 -11.076 -25.154  0.00  0.00    -0.270 OA
ATOM     10  N   UNL     1      34.586 -15.476 -23.511  0.00  0.00    -0.276 N 
ATOM     11  N   UNL     1      34.133 -12.703 -23.829  0.00  0.00    -0.273 N 
ATOM     12  C   UNL     1      35.259 -16.698 -23.423  0.00  0.00    +0.225 C 
ATOM     13  C   UNL     1      34.128 -14.681 -22.363  0.00  0.00    +0.115 C 
ATOM     14  C   UNL     1      34.207 -14.945 -24.823  0.00  0.00    +0.115 C 
ATOM     15  C   UNL     1      34.545 -13.220 -22.516  0.00  0.00    +0.115 C 
ATOM     16  C   UNL     1      34.621 -13.484 -24.965  0.00  0.00    +0.115 C 
ATOM     17  C   UNL     1      33.398 -11.537 -24.052  0.00  0.00    +0.251 C 
BRANCH  12  18
ATOM     18  C   UNL     1      35.621 -17.183 -22.056  0.00  0.00    +0.077 C 
ATOM     19  C   UNL     1      36.622 -18.280 -21.937  0.00  0.00    +0.010 C 
ATOM     20  C   UNL     1      35.174 -18.544 -21.648  0.00  0.00    +0.010 C 
ENDBRANCH  12  18
ENDBRANCH   2  17
BRANCH   4  21
ATOM     21  C   UNL     1      33.442  -7.411 -21.276  0.00  0.00    +0.074 C 
BRANCH  21  25
ATOM     22  O   UNL     1      30.502  -3.638 -23.989  0.00  0.00    -0.266 OA
ATOM     23  N   UNL     1      31.572  -5.944 -21.515  0.00  0.00    -0.174 NA
ATOM     24  N   UNL     1      30.856  -5.016 -22.190  0.00  0.00    -0.242 N 
ATOM     25  C   UNL     1      32.670  -6.386 -22.042  0.00  0.00    +0.083 A 
ATOM     26  C   UNL     1      33.183  -5.928 -23.349  0.00  0.00    +0.020 A 
ATOM     27  C   UNL     1      32.432  -4.972 -24.027  0.00  0.00    +0.059 A 
ATOM     28  C   UNL     1      34.369  -6.409 -23.911  0.00  0.00    +0.001 C 
ATOM     29  C   UNL     1      31.187  -4.480 -23.416  0.00  0.00    +0.273 A 
ATOM     30  C   UNL     1      32.855  -4.490 -25.270  0.00  0.00    +0.005 C 
ATOM     31  C   UNL     1      34.793  -5.928 -25.152  0.00  0.00    +0.000 C 
ATOM     32  C   UNL     1      34.038  -4.971 -25.829  0.00  0.00    +0.000 C 
ATOM     33  H   UNL     1      30.026  -4.696 -21.769  0.00  0.00    +0.192 HD
ENDBRANCH  21  25
ENDBRANCH   4  21
TORSDOF 4
ENDMDL
MODEL 2
REMARK VINA RESULT:     -10.6     12.031     15.590
REMARK  Name = 23725625
REMARK  4 active torsions:
REMARK  status: ('A' for Active; 'I' for Inactive)
REMARK    1  A    between atoms: C_2  and  C_17
REMARK    2  A    between atoms: C_4  and  C_21
REMARK    3  A    between atoms: C_12  and  C_18
REMARK    4  A    between atoms: C_21  and  C_25
REMARK                            x       y       z     vdW  Elec       q    Type
REMARK                         _______ _______ _______ _____ _____    ______ ____
ROOT
ATOM      1  F   UNL     1      31.073 -25.521 -13.303  0.00  0.00    -0.204 F 
ATOM      2  C   UNL     1      32.327 -23.882 -14.479  0.00  0.00    +0.081 C 
ATOM      3  C   UNL     1      32.555 -23.156 -15.645  0.00  0.00    +0.003 C 
ATOM      4  C   UNL     1      31.747 -23.366 -16.762  0.00  0.00    -0.016 C 
ATOM      5  C   UNL     1      31.298 -24.816 -14.421  0.00  0.00    +0.144 C 
ATOM      6  C   UNL     1      30.714 -24.302 -16.709  0.00  0.00    -0.002 C 
ATOM      7  C   UNL     1      30.489 -25.027 -15.539  0.00  0.00    +0.029 C 
ENDROOT
BRANCH   2  17
ATOM      8  O   UNL     1      39.346 -24.517 -12.662  0.00  0.00    -0.275 OA
ATOM      9  O   UNL     1      32.700 -22.968 -12.407  0.00  0.00    -0.270 OA
ATOM     10  N   UNL     1      37.256 -24.344 -13.675  0.00  0.00    -0.276 N 
ATOM     11  N   UNL     1      34.456 -24.226 -13.300  0.00  0.00    -0.273 N 
ATOM     12  C   UNL     1      38.579 -24.787 -13.582  0.00  0.00    +0.225 C 
ATOM     13  C   UNL     1      36.363 -24.587 -14.815  0.00  0.00    +0.115 C 
ATOM     14  C   UNL     1      36.697 -23.494 -12.619  0.00  0.00    +0.115 C 
ATOM     15  C   UNL     1      35.008 -25.107 -14.339  0.00  0.00    +0.115 C 
ATOM     16  C   UNL     1      35.342 -24.016 -12.155  0.00  0.00    +0.115 C 
ATOM     17  C   UNL     1      33.180 -23.659 -13.305  0.00  0.00    +0.251 C 
BRANCH  12  18
ATOM     18  C   UNL     1      39.089 -25.653 -14.689  0.00  0.00    +0.077 C 
ATOM     19  C   UNL     1      40.470 -26.201 -14.579  0.00  0.00    +0.010 C 
ATOM     20  C   UNL     1      40.163 -25.116 -15.569  0.00  0.00    +0.010 C 
ENDBRANCH  12  18
ENDBRANCH   2  17
BRANCH   4  21
ATOM     21  C   UNL     1      31.989 -22.592 -18.014  0.00  0.00    +0.074 C 
BRANCH  21  25
ATOM     22  O   UNL     1      37.387 -21.905 -18.803  0.00  0.00    -0.266 OA
ATOM     23  N   UNL     1      34.280 -22.962 -17.453  0.00  0.00    -0.174 NA
ATOM     24  N   UNL     1      35.606 -22.786 -17.656  0.00  0.00    -0.242 N 
ATOM     25  C   UNL     1      33.448 -22.383 -18.260  0.00  0.00    +0.083 A 
ATOM     26  C   UNL     1      33.872 -21.537 -19.394  0.00  0.00    +0.020 A 
ATOM     27  C   UNL     1      35.241 -21.371 -19.585  0.00  0.00    +0.059 A 
ATOM     28  C   UNL     1      32.967 -20.916 -20.260  0.00  0.00    +0.001 C 
ATOM     29  C   UNL     1      36.175 -22.034 -18.661  0.00  0.00    +0.273 A 
ATOM     30  C   UNL     1      35.718 -20.584 -20.638  0.00  0.00    +0.005 C 
ATOM     31  C   UNL     1      33.442 -20.131 -21.312  0.00  0.00    +0.000 C 
ATOM     32  C   UNL     1      34.814 -19.966 -21.501  0.00  0.00    +0.000 C 
ATOM     33  H   UNL     1      36.219 -23.236 -17.030  0.00  0.00    +0.192 HD
ENDBRANCH  21  25
ENDBRANCH   4  21
TORSDOF 4
ENDMDL
MODEL 3
REMARK VINA RESULT:     -10.4      2.073      9.339
REMARK  Name = 23725625
REMARK  4 active torsions:
REMARK  status: ('A' for Active; 'I' for Inactive)
REMARK    1  A    between atoms: C_2  and  C_17
REMARK    2  A    between atoms: C_4  and  C_21
REMARK    3  A    between atoms: C_12  and  C_18
REMARK    4  A    between atoms: C_21  and  C_25
REMARK                            x       y       z     vdW  Elec       q    Type
REMARK                         _______ _______ _______ _____ _____    ______ ____
ROOT
ATOM      1  F   UNL     1      30.362 -10.296 -19.191  0.00  0.00    -0.204 F 
ATOM      2  C   UNL     1      32.061 -10.053 -20.832  0.00  0.00    +0.081 C 
ATOM      3  C   UNL     1      32.863 -10.619 -21.820  0.00  0.00    +0.003 C 
ATOM      4  C   UNL     1      32.737 -11.974 -22.124  0.00  0.00    -0.016 C 
ATOM      5  C   UNL     1      31.135 -10.833 -20.145  0.00  0.00    +0.144 C 
ATOM      6  C   UNL     1      31.811 -12.760 -21.438  0.00  0.00    -0.002 C 
ATOM      7  C   UNL     1      31.010 -12.189 -20.449  0.00  0.00    +0.029 C 
ENDROOT
BRANCH   2  17
ATOM      8  O   UNL     1      32.730  -3.737 -24.385  0.00  0.00    -0.275 OA
ATOM      9  O   UNL     1      31.905  -8.294 -19.366  0.00  0.00    -0.270 OA
ATOM     10  N   UNL     1      32.381  -5.921 -23.656  0.00  0.00    -0.276 N 
ATOM     11  N   UNL     1      32.626  -7.764 -21.526  0.00  0.00    -0.273 N 
ATOM     12  C   UNL     1      32.721  -4.946 -24.599  0.00  0.00    +0.225 C 
ATOM     13  C   UNL     1      32.279  -7.361 -23.930  0.00  0.00    +0.115 C 
ATOM     14  C   UNL     1      32.002  -5.520 -22.298  0.00  0.00    +0.115 C 
ATOM     15  C   UNL     1      33.040  -8.166 -22.878  0.00  0.00    +0.115 C 
ATOM     16  C   UNL     1      32.760  -6.333 -21.254  0.00  0.00    +0.115 C 
ATOM     17  C   UNL     1      32.196  -8.626 -20.515  0.00  0.00    +0.251 C 
BRANCH  12  18
ATOM     18  C   UNL     1      33.101  -5.419 -25.965  0.00  0.00    +0.077 C 
ATOM     19  C   UNL     1      34.541  -5.395 -26.347  0.00  0.00    +0.010 C 
ATOM     20  C   UNL     1      33.581  -4.413 -26.953  0.00  0.00    +0.010 C 
ENDBRANCH  12  18
ENDBRANCH   2  17
BRANCH   4  21
ATOM     21  C   UNL     1      33.595 -12.585 -23.180  0.00  0.00    +0.074 C 
BRANCH  21  25
ATOM     22  O   UNL     1      35.731 -17.331 -21.406  0.00  0.00    -0.266 OA
ATOM     23  N   UNL     1      34.467 -14.017 -21.480  0.00  0.00    -0.174 NA
ATOM     24  N   UNL     1      34.992 -15.188 -21.053  0.00  0.00    -0.242 N 
ATOM     25  C   UNL     1      34.173 -13.889 -22.735  0.00  0.00    +0.083 A 
ATOM     26  C   UNL     1      34.383 -14.960 -23.731  0.00  0.00    +0.020 A 
ATOM     27  C   UNL     1      34.923 -16.157 -23.271  0.00  0.00    +0.059 A 
ATOM     28  C   UNL     1      34.063 -14.813 -25.083  0.00  0.00    +0.001 C 
ATOM     29  C   UNL     1      35.253 -16.288 -21.842  0.00  0.00    +0.273 A 
ATOM     30  C   UNL     1      35.151 -17.217 -24.154  0.00  0.00    +0.005 C 
ATOM     31  C   UNL     1      34.290 -15.871 -25.967  0.00  0.00    +0.000 C 
ATOM     32  C   UNL     1      34.831 -17.070 -25.503  0.00  0.00    +0.000 C 
ATOM     33  H   UNL     1      35.207 -15.262 -20.096  0.00  0.00    +0.192 HD
ENDBRANCH  21  25
ENDBRANCH   4  21
TORSDOF 4
ENDMDL
MODEL 4
REMARK VINA RESULT:     -10.3      1.720      2.344
REMARK  Name = 23725625
REMARK  4 active torsions:
REMARK  status: ('A' for Active; 'I' for Inactive)
REMARK    1  A    between atoms: C_2  and  C_17
REMARK    2  A    between atoms: C_4  and  C_21
REMARK    3  A    between atoms: C_12  and  C_18
REMARK    4  A    between atoms: C_21  and  C_25
REMARK                            x       y       z     vdW  Elec       q    Type
REMARK                         _______ _______ _______ _____ _____    ______ ____
ROOT
ATOM      1  F   UNL     1      30.328 -11.846 -22.506  0.00  0.00    -0.204 F 
ATOM      2  C   UNL     1      32.032 -10.696 -21.315  0.00  0.00    +0.081 C 
ATOM      3  C   UNL     1      32.744  -9.524 -21.075  0.00  0.00    +0.003 C 
ATOM      4  C   UNL     1      32.439  -8.368 -21.793  0.00  0.00    -0.016 C 
ATOM      5  C   UNL     1      31.017 -10.721 -22.267  0.00  0.00    +0.144 C 
ATOM      6  C   UNL     1      31.423  -8.388 -22.749  0.00  0.00    -0.002 C 
ATOM      7  C   UNL     1      30.712  -9.563 -22.986  0.00  0.00    +0.029 C 
ENDROOT
BRANCH   2  17
ATOM      8  O   UNL     1      35.608 -16.950 -22.349  0.00  0.00    -0.275 OA
ATOM      9  O   UNL     1      32.212 -11.848 -19.338  0.00  0.00    -0.270 OA
ATOM     10  N   UNL     1      34.688 -14.811 -22.395  0.00  0.00    -0.276 N 
ATOM     11  N   UNL     1      32.806 -13.028 -21.266  0.00  0.00    -0.273 N 
ATOM     12  C   UNL     1      35.226 -15.964 -22.974  0.00  0.00    +0.225 C 
ATOM     13  C   UNL     1      34.313 -13.595 -23.129  0.00  0.00    +0.115 C 
ATOM     14  C   UNL     1      34.550 -14.724 -20.938  0.00  0.00    +0.115 C 
ATOM     15  C   UNL     1      32.914 -13.132 -22.728  0.00  0.00    +0.115 C 
ATOM     16  C   UNL     1      33.152 -14.255 -20.548  0.00  0.00    +0.115 C 
ATOM     17  C   UNL     1      32.356 -11.912 -20.558  0.00  0.00    +0.251 C 
BRANCH  12  18
ATOM     18  C   UNL     1      35.338 -15.993 -24.465  0.00  0.00    +0.077 C 
ATOM     19  C   UNL     1      34.085 -16.039 -25.268  0.00  0.00    +0.010 C 
ATOM     20  C   UNL     1      34.969 -17.248 -25.177  0.00  0.00    +0.010 C 
ENDBRANCH  12  18
ENDBRANCH   2  17
BRANCH   4  21
ATOM     21  C   UNL     1      33.201  -7.110 -21.541  0.00  0.00    +0.074 C 
BRANCH  21  25
ATOM     22  O   UNL     1      30.855  -2.803 -24.026  0.00  0.00    -0.266 OA
ATOM     23  N   UNL     1      31.599  -5.345 -21.665  0.00  0.00    -0.174 NA
ATOM     24  N   UNL     1      31.028  -4.286 -22.284  0.00  0.00    -0.242 N 
ATOM     25  C   UNL     1      32.589  -5.944 -22.246  0.00  0.00    +0.083 A 
ATOM     26  C   UNL     1      33.131  -5.531 -23.557  0.00  0.00    +0.020 A 
ATOM     27  C   UNL     1      32.530  -4.439 -24.176  0.00  0.00    +0.059 A 
ATOM     28  C   UNL     1      34.200  -6.183 -24.177  0.00  0.00    +0.001 C 
ATOM     29  C   UNL     1      31.405  -3.768 -23.504  0.00  0.00    +0.273 A 
ATOM     30  C   UNL     1      32.989  -3.989 -25.419  0.00  0.00    +0.005 C 
ATOM     31  C   UNL     1      34.660  -5.735 -25.418  0.00  0.00    +0.000 C 
ATOM     32  C   UNL     1      34.055  -4.641 -26.036  0.00  0.00    +0.000 C 
ATOM     33  H   UNL     1      30.278  -3.847 -21.823  0.00  0.00    +0.192 HD
ENDBRANCH  21  25
ENDBRANCH   4  21
TORSDOF 4
ENDMDL
MODEL 5
REMARK VINA RESULT:     -10.1     10.619     14.525
REMARK  Name = 23725625
REMARK  4 active torsions:
REMARK  status: ('A' for Active; 'I' for Inactive)
REMARK    1  A    between atoms: C_2  and  C_17
REMARK    2  A    between atoms: C_4  and  C_21
REMARK    3  A    between atoms: C_12  and  C_18
REMARK    4  A    between atoms: C_21  and  C_25
REMARK                            x       y       z     vdW  Elec       q    Type
REMARK                         _______ _______ _______ _____ _____    ______ ____
ROOT
ATOM      1  F   UNL     1      36.435 -22.901 -13.293  0.00  0.00    -0.204 F 
ATOM      2  C   UNL     1      35.766 -23.565 -15.473  0.00  0.00    +0.081 C 
ATOM      3  C   UNL     1      35.871 -23.424 -16.854  0.00  0.00    +0.003 C 
ATOM      4  C   UNL     1      36.749 -22.483 -17.391  0.00  0.00    -0.016 C 
ATOM      5  C   UNL     1      36.532 -22.772 -14.624  0.00  0.00    +0.144 C 
ATOM      6  C   UNL     1      37.519 -21.685 -16.544  0.00  0.00    -0.002 C 
ATOM      7  C   UNL     1      37.411 -21.830 -15.161  0.00  0.00    +0.029 C 
ENDROOT
BRANCH   2  17
ATOM      8  O   UNL     1      28.602 -24.840 -15.327  0.00  0.00    -0.275 OA
ATOM      9  O   UNL     1      35.340 -25.617 -14.535  0.00  0.00    -0.270 OA
ATOM     10  N   UNL     1      30.790 -24.148 -15.720  0.00  0.00    -0.276 N 
ATOM     11  N   UNL     1      33.483 -24.235 -14.859  0.00  0.00    -0.273 N 
ATOM     12  C   UNL     1      29.403 -23.981 -15.687  0.00  0.00    +0.225 C 
ATOM     13  C   UNL     1      31.747 -23.159 -16.234  0.00  0.00    +0.115 C 
ATOM     14  C   UNL     1      31.381 -25.423 -15.303  0.00  0.00    +0.115 C 
ATOM     15  C   UNL     1      32.890 -22.946 -15.244  0.00  0.00    +0.115 C 
ATOM     16  C   UNL     1      32.526 -25.201 -14.319  0.00  0.00    +0.115 C 
ATOM     17  C   UNL     1      34.840 -24.557 -14.912  0.00  0.00    +0.251 C 
BRANCH  12  18
ATOM     18  C   UNL     1      28.862 -22.657 -16.122  0.00  0.00    +0.077 C 
ATOM     19  C   UNL     1      27.419 -22.370 -15.889  0.00  0.00    +0.010 C 
ATOM     20  C   UNL     1      27.925 -22.622 -17.279  0.00  0.00    +0.010 C 
ENDBRANCH  12  18
ENDBRANCH   2  17
BRANCH   4  21
ATOM     21  C   UNL     1      36.863 -22.327 -18.870  0.00  0.00    +0.074 C 
BRANCH  21  25
ATOM     22  O   UNL     1      32.223 -20.247 -20.962  0.00  0.00    -0.266 OA
ATOM     23  N   UNL     1      34.488 -22.244 -19.099  0.00  0.00    -0.174 NA
ATOM     24  N   UNL     1      33.352 -21.725 -19.620  0.00  0.00    -0.242 N 
ATOM     25  C   UNL     1      35.624 -21.735 -19.459  0.00  0.00    +0.083 A 
ATOM     26  C   UNL     1      35.745 -20.614 -20.413  0.00  0.00    +0.020 A 
ATOM     27  C   UNL     1      34.564 -20.094 -20.935  0.00  0.00    +0.059 A 
ATOM     28  C   UNL     1      36.974 -20.071 -20.795  0.00  0.00    +0.001 C 
ATOM     29  C   UNL     1      33.281 -20.683 -20.518  0.00  0.00    +0.273 A 
ATOM     30  C   UNL     1      34.599 -19.032 -21.844  0.00  0.00    +0.005 C 
ATOM     31  C   UNL     1      37.011 -19.009 -21.702  0.00  0.00    +0.000 C 
ATOM     32  C   UNL     1      35.826 -18.491 -22.224  0.00  0.00    +0.000 C 
ATOM     33  H   UNL     1      32.501 -22.128 -19.331  0.00  0.00    +0.192 HD
ENDBRANCH  21  25
ENDBRANCH   4  21
TORSDOF 4
ENDMDL
MODEL 6
REMARK VINA RESULT:     -10.1      2.644      9.078
REMARK  Name = 23725625
REMARK  4 active torsions:
REMARK  status: ('A' for Active; 'I' for Inactive)
REMARK    1  A    between atoms: C_2  and  C_17
REMARK    2  A    between atoms: C_4  and  C_21
REMARK    3  A    between atoms: C_12  and  C_18
REMARK    4  A    between atoms: C_21  and  C_25
REMARK                            x       y       z     vdW  Elec       q    Type
REMARK                         _______ _______ _______ _____ _____    ______ ____
ROOT
ATOM      1  F   UNL     1      33.278  -5.756 -20.560  0.00  0.00    -0.204 F 
ATOM      2  C   UNL     1      32.060  -6.990 -22.184  0.00  0.00    +0.081 C 
ATOM      3  C   UNL     1      31.567  -8.209 -22.640  0.00  0.00    +0.003 C 
ATOM      4  C   UNL     1      31.811  -9.373 -21.912  0.00  0.00    -0.016 C 
ATOM      5  C   UNL     1      32.797  -6.926 -21.005  0.00  0.00    +0.144 C 
ATOM      6  C   UNL     1      32.551  -9.314 -20.730  0.00  0.00    -0.002 C 
ATOM      7  C   UNL     1      33.043  -8.091 -20.276  0.00  0.00    +0.029 C 
ENDROOT
BRANCH   2  17
ATOM      8  O   UNL     1      34.902  -3.438 -27.865  0.00  0.00    -0.275 OA
ATOM      9  O   UNL     1      30.691  -5.256 -22.806  0.00  0.00    -0.270 OA
ATOM     10  N   UNL     1      34.246  -4.926 -26.199  0.00  0.00    -0.276 N 
ATOM     11  N   UNL     1      32.811  -5.287 -23.789  0.00  0.00    -0.273 N 
ATOM     12  C   UNL     1      35.141  -4.392 -27.130  0.00  0.00    +0.225 C 
ATOM     13  C   UNL     1      34.492  -6.123 -25.382  0.00  0.00    +0.115 C 
ATOM     14  C   UNL     1      32.912  -4.337 -26.050  0.00  0.00    +0.115 C 
ATOM     15  C   UNL     1      34.161  -5.853 -23.916  0.00  0.00    +0.115 C 
ATOM     16  C   UNL     1      32.587  -4.078 -24.582  0.00  0.00    +0.115 C 
ATOM     17  C   UNL     1      31.801  -5.766 -22.953  0.00  0.00    +0.251 C 
BRANCH  12  18
ATOM     18  C   UNL     1      36.487  -5.035 -27.233  0.00  0.00    +0.077 C 
ATOM     19  C   UNL     1      37.687  -4.156 -27.300  0.00  0.00    +0.010 C 
ATOM     20  C   UNL     1      37.233  -4.910 -28.515  0.00  0.00    +0.010 C 
ENDBRANCH  12  18
ENDBRANCH   2  17
BRANCH   4  21
ATOM     21  C   UNL     1      31.286 -10.682 -22.399  0.00  0.00    +0.074 C 
BRANCH  21  25
ATOM     22  O   UNL     1      35.382 -14.074 -23.796  0.00  0.00    -0.266 OA
ATOM     23  N   UNL     1      33.053 -11.398 -23.836  0.00  0.00    -0.174 NA
ATOM     24  N   UNL     1      34.059 -12.238 -24.171  0.00  0.00    -0.242 N 
ATOM     25  C   UNL     1      32.392 -11.625 -22.746  0.00  0.00    +0.083 A 
ATOM     26  C   UNL     1      32.679 -12.759 -21.844  0.00  0.00    +0.020 A 
ATOM     27  C   UNL     1      33.719 -13.611 -22.207  0.00  0.00    +0.059 A 
ATOM     28  C   UNL     1      31.962 -12.997 -20.669  0.00  0.00    +0.001 C 
ATOM     29  C   UNL     1      34.461 -13.341 -23.449  0.00  0.00    +0.273 A 
ATOM     30  C   UNL     1      34.049 -14.707 -21.404  0.00  0.00    +0.005 C 
ATOM     31  C   UNL     1      32.291 -14.091 -19.865  0.00  0.00    +0.000 C 
ATOM     32  C   UNL     1      33.333 -14.943 -20.231  0.00  0.00    +0.000 C 
ATOM     33  H   UNL     1      34.547 -12.045 -25.005  0.00  0.00    +0.192 HD
ENDBRANCH  21  25
ENDBRANCH   4  21
TORSDOF 4
ENDMDL
MODEL 7
REMARK VINA RESULT:     -10.1      5.231     13.315
REMARK  Name = 23725625
REMARK  4 active torsions:
REMARK  status: ('A' for Active; 'I' for Inactive)
REMARK    1  A    between atoms: C_2  and  C_17
REMARK    2  A    between atoms: C_4  and  C_21
REMARK    3  A    between atoms: C_12  and  C_18
REMARK    4  A    between atoms: C_21  and  C_25
REMARK                            x       y       z     vdW  Elec       q    Type
REMARK                         _______ _______ _______ _____ _____    ______ ____
ROOT
ATOM      1  F   UNL     1      37.727 -18.285 -22.776  0.00  0.00    -0.204 F 
ATOM      2  C   UNL     1      35.813 -19.652 -22.447  0.00  0.00    +0.081 C 
ATOM      3  C   UNL     1      35.099 -20.541 -21.649  0.00  0.00    +0.003 C 
ATOM      4  C   UNL     1      35.608 -20.922 -20.408  0.00  0.00    -0.016 C 
ATOM      5  C   UNL     1      37.033 -19.140 -22.013  0.00  0.00    +0.144 C 
ATOM      6  C   UNL     1      36.830 -20.413 -19.969  0.00  0.00    -0.002 C 
ATOM      7  C   UNL     1      37.542 -19.522 -20.771  0.00  0.00    +0.029 C 
ENDROOT
BRANCH   2  17
ATOM      8  O   UNL     1      34.027 -13.524 -25.944  0.00  0.00    -0.275 OA
ATOM      9  O   UNL     1      35.313 -20.103 -24.641  0.00  0.00    -0.270 OA
ATOM     10  N   UNL     1      34.825 -15.203 -24.542  0.00  0.00    -0.276 N 
ATOM     11  N   UNL     1      34.778 -17.955 -23.892  0.00  0.00    -0.273 N 
ATOM     12  C   UNL     1      34.376 -13.912 -24.832  0.00  0.00    +0.225 C 
ATOM     13  C   UNL     1      35.329 -15.647 -23.235  0.00  0.00    +0.115 C 
ATOM     14  C   UNL     1      34.902 -16.205 -25.609  0.00  0.00    +0.115 C 
ATOM     15  C   UNL     1      34.667 -16.958 -22.817  0.00  0.00    +0.115 C 
ATOM     16  C   UNL     1      34.244 -17.513 -25.181  0.00  0.00    +0.115 C 
ATOM     17  C   UNL     1      35.274 -19.252 -23.753  0.00  0.00    +0.251 C 
BRANCH  12  18
ATOM     18  C   UNL     1      34.318 -12.936 -23.701  0.00  0.00    +0.077 C 
ATOM     19  C   UNL     1      33.022 -12.754 -22.990  0.00  0.00    +0.010 C 
ATOM     20  C   UNL     1      33.547 -11.677 -23.893  0.00  0.00    +0.010 C 
ENDBRANCH  12  18
ENDBRANCH   2  17
BRANCH   4  21
ATOM     21  C   UNL     1      34.847 -21.878 -19.551  0.00  0.00    +0.074 C 
BRANCH  21  25
ATOM     22  O   UNL     1      37.816 -23.242 -15.128  0.00  0.00    -0.266 OA
ATOM     23  N   UNL     1      36.902 -22.070 -18.350  0.00  0.00    -0.174 NA
ATOM     24  N   UNL     1      37.623 -22.409 -17.256  0.00  0.00    -0.242 N 
ATOM     25  C   UNL     1      35.620 -22.260 -18.331  0.00  0.00    +0.083 A 
ATOM     26  C   UNL     1      34.902 -22.832 -17.174  0.00  0.00    +0.020 A 
ATOM     27  C   UNL     1      35.663 -23.173 -16.059  0.00  0.00    +0.059 A 
ATOM     28  C   UNL     1      33.519 -23.034 -17.161  0.00  0.00    +0.001 C 
ATOM     29  C   UNL     1      37.118 -22.951 -16.095  0.00  0.00    +0.273 A 
ATOM     30  C   UNL     1      35.053 -23.719 -14.926  0.00  0.00    +0.005 C 
ATOM     31  C   UNL     1      32.909 -23.579 -16.029  0.00  0.00    +0.000 C 
ATOM     32  C   UNL     1      33.674 -23.920 -14.915  0.00  0.00    +0.000 C 
ATOM     33  H   UNL     1      38.595 -22.254 -17.295  0.00  0.00    +0.192 HD
ENDBRANCH  21  25
ENDBRANCH   4  21
TORSDOF 4
ENDMDL
MODEL 8
REMARK VINA RESULT:      -9.8      1.982      9.130
REMARK  Name = 23725625
REMARK  4 active torsions:
REMARK  status: ('A' for Active; 'I' for Inactive)
REMARK    1  A    between atoms: C_2  and  C_17
REMARK    2  A    between atoms: C_4  and  C_21
REMARK    3  A    between atoms: C_12  and  C_18
REMARK    4  A    between atoms: C_21  and  C_25
REMARK                            x       y       z     vdW  Elec       q    Type
REMARK                         _______ _______ _______ _____ _____    ______ ____
ROOT
ATOM      1  F   UNL     1      30.021 -10.963 -20.100  0.00  0.00    -0.204 F 
ATOM      2  C   UNL     1      32.280 -10.716 -20.792  0.00  0.00    +0.081 C 
ATOM      3  C   UNL     1      33.432 -11.271 -21.342  0.00  0.00    +0.003 C 
ATOM      4  C   UNL     1      33.440 -12.609 -21.732  0.00  0.00    -0.016 C 
ATOM      5  C   UNL     1      31.134 -11.489 -20.630  0.00  0.00    +0.144 C 
ATOM      6  C   UNL     1      32.294 -13.390 -21.570  0.00  0.00    -0.002 C 
ATOM      7  C   UNL     1      31.142 -12.830 -21.020  0.00  0.00    +0.029 C 
ENDROOT
BRANCH   2  17
ATOM      8  O   UNL     1      32.482  -4.149 -23.923  0.00  0.00    -0.275 OA
ATOM      9  O   UNL     1      31.921  -9.075 -19.227  0.00  0.00    -0.270 OA
ATOM     10  N   UNL     1      32.309  -6.397 -23.343  0.00  0.00    -0.276 N 
ATOM     11  N   UNL     1      32.655  -8.346 -21.323  0.00  0.00    -0.273 N 
ATOM     12  C   UNL     1      32.588  -5.338 -24.211  0.00  0.00    +0.225 C 
ATOM     13  C   UNL     1      32.347  -7.820 -23.708  0.00  0.00    +0.115 C 
ATOM     14  C   UNL     1      31.855  -6.120 -21.977  0.00  0.00    +0.115 C 
ATOM     15  C   UNL     1      33.145  -8.621 -22.681  0.00  0.00    +0.115 C 
ATOM     16  C   UNL     1      32.652  -6.929 -20.959  0.00  0.00    +0.115 C 
ATOM     17  C   UNL     1      32.275  -9.306 -20.383  0.00  0.00    +0.251 C 
BRANCH  12  18
ATOM     18  C   UNL     1      33.051  -5.685 -25.589  0.00  0.00    +0.077 C 
ATOM     19  C   UNL     1      34.488  -5.484 -25.926  0.00  0.00    +0.010 C 
ATOM     20  C   UNL     1      33.441  -4.578 -26.504  0.00  0.00    +0.010 C 
ENDBRANCH  12  18
ENDBRANCH   2  17
BRANCH   4  21
ATOM     21  C   UNL     1      34.673 -13.209 -22.318  0.00  0.00    +0.074 C 
BRANCH  21  25
ATOM     22  O   UNL     1      33.621 -15.422 -27.241  0.00  0.00    -0.266 OA
ATOM     23  N   UNL     1      33.894 -13.099 -24.573  0.00  0.00    -0.174 NA
ATOM     24  N   UNL     1      33.639 -13.653 -25.781  0.00  0.00    -0.242 N 
ATOM     25  C   UNL     1      34.401 -13.845 -23.643  0.00  0.00    +0.083 A 
ATOM     26  C   UNL     1      34.715 -15.276 -23.832  0.00  0.00    +0.020 A 
ATOM     27  C   UNL     1      34.446 -15.826 -25.082  0.00  0.00    +0.059 A 
ATOM     28  C   UNL     1      35.263 -16.074 -22.823  0.00  0.00    +0.001 C 
ATOM     29  C   UNL     1      33.870 -14.966 -26.129  0.00  0.00    +0.273 A 
ATOM     30  C   UNL     1      34.717 -17.174 -25.336  0.00  0.00    +0.005 C 
ATOM     31  C   UNL     1      35.535 -17.421 -23.075  0.00  0.00    +0.000 C 
ATOM     32  C   UNL     1      35.263 -17.968 -24.328  0.00  0.00    +0.000 C 
ATOM     33  H   UNL     1      33.254 -13.067 -26.471  0.00  0.00    +0.192 HD
ENDBRANCH  21  25
ENDBRANCH   4  21
TORSDOF 4
ENDMDL
MODEL 9
REMARK VINA RESULT:      -9.6      3.041      9.071
REMARK  Name = 23725625
REMARK  4 active torsions:
REMARK  status: ('A' for Active; 'I' for Inactive)
REMARK    1  A    between atoms: C_2  and  C_17
REMARK    2  A    between atoms: C_4  and  C_21
REMARK    3  A    between atoms: C_12  and  C_18
REMARK    4  A    between atoms: C_21  and  C_25
REMARK                            x       y       z     vdW  Elec       q    Type
REMARK                         _______ _______ _______ _____ _____    ______ ____
ROOT
ATOM      1  F   UNL     1      32.883  -5.499 -20.726  0.00  0.00    -0.204 F 
ATOM      2  C   UNL     1      31.994  -6.724 -22.556  0.00  0.00    +0.081 C 
ATOM      3  C   UNL     1      31.651  -7.947 -23.126  0.00  0.00    +0.003 C 
ATOM      4  C   UNL     1      31.862  -9.128 -22.414  0.00  0.00    -0.016 C 
ATOM      5  C   UNL     1      32.548  -6.673 -21.280  0.00  0.00    +0.144 C 
ATOM      6  C   UNL     1      32.418  -9.081 -21.135  0.00  0.00    -0.002 C 
ATOM      7  C   UNL     1      32.760  -7.854 -20.568  0.00  0.00    +0.029 C 
ENDROOT
BRANCH   2  17
ATOM      8  O   UNL     1      35.012  -3.116 -28.109  0.00  0.00    -0.275 OA
ATOM      9  O   UNL     1      30.665  -4.958 -23.176  0.00  0.00    -0.270 OA
ATOM     10  N   UNL     1      34.298  -4.623 -26.485  0.00  0.00    -0.276 N 
ATOM     11  N   UNL     1      32.806  -5.005 -24.113  0.00  0.00    -0.273 N 
ATOM     12  C   UNL     1      35.221  -4.087 -27.387  0.00  0.00    +0.225 C 
ATOM     13  C   UNL     1      34.507  -5.838 -25.686  0.00  0.00    +0.115 C 
ATOM     14  C   UNL     1      32.970  -4.017 -26.354  0.00  0.00    +0.115 C 
ATOM     15  C   UNL     1      34.150  -5.590 -24.222  0.00  0.00    +0.115 C 
ATOM     16  C   UNL     1      32.618  -3.779 -24.889  0.00  0.00    +0.115 C 
ATOM     17  C   UNL     1      31.770  -5.483 -23.308  0.00  0.00    +0.251 C 
BRANCH  12  18
ATOM     18  C   UNL     1      36.559  -4.749 -27.473  0.00  0.00    +0.077 C 
ATOM     19  C   UNL     1      37.744  -3.909 -27.804  0.00  0.00    +0.010 C 
ATOM     20  C   UNL     1      37.198  -4.879 -28.811  0.00  0.00    +0.010 C 
ENDBRANCH  12  18
ENDBRANCH   2  17
BRANCH   4  21
ATOM     21  C   UNL     1      31.499 -10.441 -23.022  0.00  0.00    +0.074 C 
BRANCH  21  25
ATOM     22  O   UNL     1      32.570 -14.578 -19.562  0.00  0.00    -0.266 OA
ATOM     23  N   UNL     1      31.159 -11.654 -20.993  0.00  0.00    -0.174 NA
ATOM     24  N   UNL     1      31.430 -12.676 -20.149  0.00  0.00    -0.242 N 
ATOM     25  C   UNL     1      31.817 -11.579 -22.107  0.00  0.00    +0.083 A 
ATOM     26  C   UNL     1      32.853 -12.553 -22.505  0.00  0.00    +0.020 A 
ATOM     27  C   UNL     1      33.115 -13.597 -21.623  0.00  0.00    +0.059 A 
ATOM     28  C   UNL     1      33.557 -12.465 -23.709  0.00  0.00    +0.001 C 
ATOM     29  C   UNL     1      32.361 -13.670 -20.361  0.00  0.00    +0.273 A 
ATOM     30  C   UNL     1      34.082 -14.559 -21.931  0.00  0.00    +0.005 C 
ATOM     31  C   UNL     1      34.523 -13.425 -24.019  0.00  0.00    +0.000 C 
ATOM     32  C   UNL     1      34.784 -14.470 -23.132  0.00  0.00    +0.000 C 
ATOM     33  H   UNL     1      30.918 -12.712 -19.309  0.00  0.00    +0.192 HD
ENDBRANCH  21  25
ENDBRANCH   4  21
TORSDOF 4
ENDMDL
