MODEL 1
REMARK VINA RESULT:     -12.2      0.000      0.000
REMARK  Name = 11167602
REMARK  6 active torsions:
REMARK  status: ('A' for Active; 'I' for Inactive)
REMARK    1  A    between atoms: C_2  and  N_10
REMARK    2  A    between atoms: C_3  and  O_25
REMARK    3  A    between atoms: N_9  and  C_15
REMARK    4  A    between atoms: C_16  and  C_24
REMARK    5  A    between atoms: O_25  and  C_27
REMARK    6  A    between atoms: C_29  and  C_34
REMARK                            x       y       z     vdW  Elec       q    Type
REMARK                         _______ _______ _______ _____ _____    ______ ____
ROOT
ATOM      1  F   UNL     1      37.222 -21.328 -17.689  0.00  0.00    -0.203 F 
ATOM      2  C   UNL     1      35.308 -22.044 -18.898  0.00  0.00    +0.079 C 
ATOM      3  C   UNL     1      34.505 -23.532 -16.704  0.00  0.00    +0.148 C 
ATOM      4  C   UNL     1      36.088 -22.039 -17.753  0.00  0.00    +0.157 C 
ATOM      5  C   UNL     1      34.133 -22.776 -18.968  0.00  0.00    +0.020 C 
ATOM      6  C   UNL     1      35.684 -22.788 -16.649  0.00  0.00    +0.068 C 
ATOM      7  C   UNL     1      33.730 -23.527 -17.863  0.00  0.00    +0.039 C 
ENDROOT
BRANCH   2  10
ATOM      8  O   UNL     1      33.750 -20.167 -20.622  0.00  0.00    -0.252 OA
ATOM      9  N   UNL     1      35.732 -19.851 -21.831  0.00  0.00    -0.268 N 
ATOM     10  N   UNL     1      35.714 -21.284 -20.020  0.00  0.00    -0.266 N 
ATOM     11  C   UNL     1      34.939 -20.412 -20.801  0.00  0.00    +0.308 C 
ATOM     12  H   UNL     1      36.673 -20.140 -21.851  0.00  0.00    +0.156 HD
ATOM     13  H   UNL     1      36.657 -21.379 -20.286  0.00  0.00    +0.156 HD
BRANCH   9  15
ATOM     14 CL   UNL     1      34.143 -16.032 -26.054  0.00  0.00    -0.082 Cl
ATOM     15  C   UNL     1      35.357 -18.942 -22.822  0.00  0.00    +0.052 C 
ATOM     16  C   UNL     1      34.906 -16.673 -23.518  0.00  0.00    +0.083 C 
ATOM     17  C   UNL     1      35.281 -17.581 -22.527  0.00  0.00    +0.019 C 
ATOM     18  C   UNL     1      35.057 -19.396 -24.106  0.00  0.00    +0.016 C 
ATOM     19  C   UNL     1      34.608 -17.127 -24.802  0.00  0.00    +0.062 C 
ATOM     20  C   UNL     1      34.683 -18.488 -25.097  0.00  0.00    +0.013 C 
BRANCH  16  24
ATOM     21  F   UNL     1      33.586 -14.695 -23.260  0.00  0.00    -0.166 F 
ATOM     22  F   UNL     1      35.244 -14.957 -21.886  0.00  0.00    -0.166 F 
ATOM     23  F   UNL     1      35.627 -14.453 -23.967  0.00  0.00    -0.166 F 
ATOM     24  C   UNL     1      34.840 -15.223 -23.162  0.00  0.00    +0.419 C 
ENDBRANCH  16  24
ENDBRANCH   9  15
ENDBRANCH   2  10
BRANCH   3  25
ATOM     25  O   UNL     1      34.110 -24.263 -15.625  0.00  0.00    -0.453 OA
BRANCH  25  27
ATOM     26  N   UNL     1      37.010 -25.315 -12.841  0.00  0.00    -0.239 NA
ATOM     27  C   UNL     1      35.076 -24.615 -14.698  0.00  0.00    +0.149 C 
ATOM     28  C   UNL     1      36.208 -25.276 -15.121  0.00  0.00    +0.061 C 
ATOM     29  C   UNL     1      37.146 -25.604 -14.154  0.00  0.00    +0.137 C 
ATOM     30  C   UNL     1      34.884 -24.293 -13.371  0.00  0.00    +0.058 C 
ATOM     31  C   UNL     1      35.879 -24.666 -12.483  0.00  0.00    +0.102 C 
BRANCH  29  34
ATOM     32  O   UNL     1      38.315 -27.440 -15.026  0.00  0.00    -0.268 OA
ATOM     33  N   UNL     1      39.574 -25.629 -14.308  0.00  0.00    -0.298 N 
ATOM     34  C   UNL     1      38.365 -26.302 -14.523  0.00  0.00    +0.264 C 
ATOM     35  C   UNL     1      40.867 -26.180 -14.643  0.00  0.00    +0.111 C 
ATOM     36  H   UNL     1      39.542 -24.732 -13.905  0.00  0.00    +0.150 HD
ENDBRANCH  29  34
ENDBRANCH  25  27
ENDBRANCH   3  25
TORSDOF 6
ENDMDL
MODEL 2
REMARK VINA RESULT:     -12.0      4.489     11.756
REMARK  Name = 11167602
REMARK  6 active torsions:
REMARK  status: ('A' for Active; 'I' for Inactive)
REMARK    1  A    between atoms: C_2  and  N_10
REMARK    2  A    between atoms: C_3  and  O_25
REMARK    3  A    between atoms: N_9  and  C_15
REMARK    4  A    between atoms: C_16  and  C_24
REMARK    5  A    between atoms: O_25  and  C_27
REMARK    6  A    between atoms: C_29  and  C_34
REMARK                            x       y       z     vdW  Elec       q    Type
REMARK                         _______ _______ _______ _____ _____    ______ ____
ROOT
ATOM      1  F   UNL     1      33.150 -20.929 -20.938  0.00  0.00    -0.203 F 
ATOM      2  C   UNL     1      35.386 -20.943 -20.139  0.00  0.00    +0.079 C 
ATOM      3  C   UNL     1      36.098 -19.193 -22.165  0.00  0.00    +0.148 C 
ATOM      4  C   UNL     1      34.420 -20.514 -21.035  0.00  0.00    +0.157 C 
ATOM      5  C   UNL     1      36.700 -20.514 -20.235  0.00  0.00    +0.020 C 
ATOM      6  C   UNL     1      34.778 -19.633 -22.055  0.00  0.00    +0.068 C 
ATOM      7  C   UNL     1      37.059 -19.634 -21.256  0.00  0.00    +0.039 C 
ENDROOT
BRANCH   2  10
ATOM      8  O   UNL     1      36.804 -21.622 -17.600  0.00  0.00    -0.252 OA
ATOM      9  N   UNL     1      35.020 -23.074 -17.152  0.00  0.00    -0.268 N 
ATOM     10  N   UNL     1      35.025 -21.835 -19.102  0.00  0.00    -0.266 N 
ATOM     11  C   UNL     1      35.731 -22.121 -17.923  0.00  0.00    +0.308 C 
ATOM     12  H   UNL     1      34.170 -23.386 -17.538  0.00  0.00    +0.156 HD
ATOM     13  H   UNL     1      34.174 -22.315 -19.223  0.00  0.00    +0.156 HD
BRANCH   9  15
ATOM     14 CL   UNL     1      36.445 -25.414 -11.915  0.00  0.00    -0.082 Cl
ATOM     15  C   UNL     1      35.365 -23.629 -15.920  0.00  0.00    +0.052 C 
ATOM     16  C   UNL     1      37.004 -24.657 -14.473  0.00  0.00    +0.083 C 
ATOM     17  C   UNL     1      36.660 -24.103 -15.706  0.00  0.00    +0.019 C 
ATOM     18  C   UNL     1      34.416 -23.709 -14.902  0.00  0.00    +0.016 C 
ATOM     19  C   UNL     1      36.054 -24.736 -13.454  0.00  0.00    +0.062 C 
ATOM     20  C   UNL     1      34.760 -24.263 -13.669  0.00  0.00    +0.013 C 
BRANCH  16  24
ATOM     21  F   UNL     1      39.239 -24.823 -15.308  0.00  0.00    -0.166 F 
ATOM     22  F   UNL     1      39.002 -24.665 -13.158  0.00  0.00    -0.166 F 
ATOM     23  F   UNL     1      38.464 -26.510 -14.177  0.00  0.00    -0.166 F 
ATOM     24  C   UNL     1      38.401 -25.151 -14.283  0.00  0.00    +0.419 C 
ENDBRANCH  16  24
ENDBRANCH   9  15
ENDBRANCH   2  10
BRANCH   3  25
ATOM     25  O   UNL     1      36.448 -18.334 -23.161  0.00  0.00    -0.453 OA
BRANCH  25  27
ATOM     26  N   UNL     1      34.213 -14.855 -23.580  0.00  0.00    -0.239 NA
ATOM     27  C   UNL     1      35.704 -17.174 -23.302  0.00  0.00    +0.149 C 
ATOM     28  C   UNL     1      35.226 -16.826 -24.546  0.00  0.00    +0.061 C 
ATOM     29  C   UNL     1      34.486 -15.658 -24.633  0.00  0.00    +0.137 C 
ATOM     30  C   UNL     1      35.457 -16.395 -22.191  0.00  0.00    +0.058 C 
ATOM     31  C   UNL     1      34.708 -15.246 -22.384  0.00  0.00    +0.102 C 
BRANCH  29  34
ATOM     32  O   UNL     1      33.667 -16.056 -26.794  0.00  0.00    -0.268 OA
ATOM     33  N   UNL     1      33.746 -13.850 -26.084  0.00  0.00    -0.298 N 
ATOM     34  C   UNL     1      33.948 -15.224 -25.911  0.00  0.00    +0.264 C 
ATOM     35  C   UNL     1      33.197 -13.267 -27.287  0.00  0.00    +0.111 C 
ATOM     36  H   UNL     1      33.991 -13.247 -25.346  0.00  0.00    +0.150 HD
ENDBRANCH  29  34
ENDBRANCH  25  27
ENDBRANCH   3  25
TORSDOF 6
ENDMDL
MODEL 3
REMARK VINA RESULT:     -11.9      5.713      9.839
REMARK  Name = 11167602
REMARK  6 active torsions:
REMARK  status: ('A' for Active; 'I' for Inactive)
REMARK    1  A    between atoms: C_2  and  N_10
REMARK    2  A    between atoms: C_3  and  O_25
REMARK    3  A    between atoms: N_9  and  C_15
REMARK    4  A    between atoms: C_16  and  C_24
REMARK    5  A    between atoms: O_25  and  C_27
REMARK    6  A    between atoms: C_29  and  C_34
REMARK                            x       y       z     vdW  Elec       q    Type
REMARK                         _______ _______ _______ _____ _____    ______ ____
ROOT
ATOM      1  F   UNL     1      33.541 -14.660 -26.692  0.00  0.00    -0.203 F 
ATOM      2  C   UNL     1      34.444 -14.343 -24.519  0.00  0.00    +0.079 C 
ATOM      3  C   UNL     1      34.965 -17.059 -24.362  0.00  0.00    +0.148 C 
ATOM      4  C   UNL     1      34.110 -15.160 -25.587  0.00  0.00    +0.157 C 
ATOM      5  C   UNL     1      35.034 -14.855 -23.375  0.00  0.00    +0.020 C 
ATOM      6  C   UNL     1      34.372 -16.527 -25.508  0.00  0.00    +0.068 C 
ATOM      7  C   UNL     1      35.295 -16.223 -23.296  0.00  0.00    +0.039 C 
ENDROOT
BRANCH   2  10
ATOM      8  O   UNL     1      33.182 -12.506 -22.531  0.00  0.00    -0.252 OA
ATOM      9  N   UNL     1      33.504 -10.802 -24.106  0.00  0.00    -0.268 N 
ATOM     10  N   UNL     1      34.180 -12.955 -24.597  0.00  0.00    -0.266 N 
ATOM     11  C   UNL     1      33.581 -12.133 -23.630  0.00  0.00    +0.308 C 
ATOM     12  H   UNL     1      33.866 -10.650 -25.009  0.00  0.00    +0.156 HD
ATOM     13  H   UNL     1      34.450 -12.511 -25.433  0.00  0.00    +0.156 HD
BRANCH   9  15
ATOM     14 CL   UNL     1      31.286  -6.059 -21.362  0.00  0.00    -0.082 Cl
ATOM     15  C   UNL     1      32.983  -9.677 -23.466  0.00  0.00    +0.052 C 
ATOM     16  C   UNL     1      32.405  -7.331 -23.497  0.00  0.00    +0.083 C 
ATOM     17  C   UNL     1      32.926  -8.455 -24.138  0.00  0.00    +0.019 C 
ATOM     18  C   UNL     1      32.519  -9.774 -22.155  0.00  0.00    +0.016 C 
ATOM     19  C   UNL     1      31.940  -7.429 -22.186  0.00  0.00    +0.062 C 
ATOM     20  C   UNL     1      31.997  -8.650 -21.515  0.00  0.00    +0.013 C 
BRANCH  16  24
ATOM     21  F   UNL     1      32.637  -6.179 -25.581  0.00  0.00    -0.166 F 
ATOM     22  F   UNL     1      31.144  -5.423 -24.200  0.00  0.00    -0.166 F 
ATOM     23  F   UNL     1      33.258  -5.131 -23.780  0.00  0.00    -0.166 F 
ATOM     24  C   UNL     1      32.360  -6.042 -24.252  0.00  0.00    +0.419 C 
ENDBRANCH  16  24
ENDBRANCH   9  15
ENDBRANCH   2  10
BRANCH   3  25
ATOM     25  O   UNL     1      35.221 -18.394 -24.285  0.00  0.00    -0.453 OA
BRANCH  25  27
ATOM     26  N   UNL     1      36.256 -19.951 -20.574  0.00  0.00    -0.239 NA
ATOM     27  C   UNL     1      35.565 -18.912 -23.048  0.00  0.00    +0.149 C 
ATOM     28  C   UNL     1      34.631 -19.632 -22.335  0.00  0.00    +0.061 C 
ATOM     29  C   UNL     1      35.025 -20.132 -21.104  0.00  0.00    +0.137 C 
ATOM     30  C   UNL     1      36.835 -18.697 -22.558  0.00  0.00    +0.058 C 
ATOM     31  C   UNL     1      37.131 -19.237 -21.317  0.00  0.00    +0.102 C 
BRANCH  29  34
ATOM     32  O   UNL     1      32.877 -20.653 -20.323  0.00  0.00    -0.268 OA
ATOM     33  N   UNL     1      34.635 -21.930 -19.512  0.00  0.00    -0.298 N 
ATOM     34  C   UNL     1      34.097 -20.901 -20.294  0.00  0.00    +0.264 C 
ATOM     35  C   UNL     1      33.840 -22.797 -18.673  0.00  0.00    +0.111 C 
ATOM     36  H   UNL     1      35.609 -22.071 -19.535  0.00  0.00    +0.150 HD
ENDBRANCH  29  34
ENDBRANCH  25  27
ENDBRANCH   3  25
TORSDOF 6
ENDMDL
MODEL 4
REMARK VINA RESULT:     -11.9      2.697      4.286
REMARK  Name = 11167602
REMARK  6 active torsions:
REMARK  status: ('A' for Active; 'I' for Inactive)
REMARK    1  A    between atoms: C_2  and  N_10
REMARK    2  A    between atoms: C_3  and  O_25
REMARK    3  A    between atoms: N_9  and  C_15
REMARK    4  A    between atoms: C_16  and  C_24
REMARK    5  A    between atoms: O_25  and  C_27
REMARK    6  A    between atoms: C_29  and  C_34
REMARK                            x       y       z     vdW  Elec       q    Type
REMARK                         _______ _______ _______ _____ _____    ______ ____
ROOT
ATOM      1  F   UNL     1      37.905 -20.472 -18.106  0.00  0.00    -0.203 F 
ATOM      2  C   UNL     1      36.039 -21.216 -19.372  0.00  0.00    +0.079 C 
ATOM      3  C   UNL     1      35.485 -23.093 -17.412  0.00  0.00    +0.148 C 
ATOM      4  C   UNL     1      36.855 -21.291 -18.255  0.00  0.00    +0.157 C 
ATOM      5  C   UNL     1      34.951 -22.059 -19.529  0.00  0.00    +0.020 C 
ATOM      6  C   UNL     1      36.576 -22.236 -17.268  0.00  0.00    +0.068 C 
ATOM      7  C   UNL     1      34.673 -23.005 -18.542  0.00  0.00    +0.039 C 
ENDROOT
BRANCH   2  10
ATOM      8  O   UNL     1      34.188 -19.701 -21.161  0.00  0.00    -0.252 OA
ATOM      9  N   UNL     1      36.103 -18.698 -22.065  0.00  0.00    -0.268 N 
ATOM     10  N   UNL     1      36.319 -20.257 -20.374  0.00  0.00    -0.266 N 
ATOM     11  C   UNL     1      35.408 -19.571 -21.192  0.00  0.00    +0.308 C 
ATOM     12  H   UNL     1      37.083 -18.698 -21.976  0.00  0.00    +0.156 HD
ATOM     13  H   UNL     1      37.270 -20.045 -20.515  0.00  0.00    +0.156 HD
BRANCH   9  15
ATOM     14 CL   UNL     1      33.904 -15.088 -26.196  0.00  0.00    -0.082 Cl
ATOM     15  C   UNL     1      35.583 -17.839 -23.033  0.00  0.00    +0.052 C 
ATOM     16  C   UNL     1      34.781 -15.654 -23.679  0.00  0.00    +0.083 C 
ATOM     17  C   UNL     1      35.301 -16.512 -22.709  0.00  0.00    +0.019 C 
ATOM     18  C   UNL     1      35.345 -18.308 -24.325  0.00  0.00    +0.016 C 
ATOM     19  C   UNL     1      34.545 -16.122 -24.971  0.00  0.00    +0.062 C 
ATOM     20  C   UNL     1      34.826 -17.449 -25.294  0.00  0.00    +0.013 C 
BRANCH  16  24
ATOM     21  F   UNL     1      34.970 -13.905 -22.058  0.00  0.00    -0.166 F 
ATOM     22  F   UNL     1      35.037 -13.321 -24.146  0.00  0.00    -0.166 F 
ATOM     23  F   UNL     1      33.159 -13.967 -23.259  0.00  0.00    -0.166 F 
ATOM     24  C   UNL     1      34.496 -14.238 -23.292  0.00  0.00    +0.419 C 
ENDBRANCH  16  24
ENDBRANCH   9  15
ENDBRANCH   2  10
BRANCH   3  25
ATOM     25  O   UNL     1      35.212 -24.016 -16.449  0.00  0.00    -0.453 OA
BRANCH  25  27
ATOM     26  N   UNL     1      31.688 -23.577 -14.291  0.00  0.00    -0.239 NA
ATOM     27  C   UNL     1      34.038 -23.869 -15.730  0.00  0.00    +0.149 C 
ATOM     28  C   UNL     1      32.893 -23.469 -16.384  0.00  0.00    +0.061 C 
ATOM     29  C   UNL     1      31.743 -23.338 -15.621  0.00  0.00    +0.137 C 
ATOM     30  C   UNL     1      34.041 -24.126 -14.376  0.00  0.00    +0.058 C 
ATOM     31  C   UNL     1      32.841 -23.965 -13.702  0.00  0.00    +0.102 C 
BRANCH  29  34
ATOM     32  O   UNL     1      30.486 -22.471 -17.399  0.00  0.00    -0.268 OA
ATOM     33  N   UNL     1      29.329 -23.072 -15.482  0.00  0.00    -0.298 N 
ATOM     34  C   UNL     1      30.497 -22.921 -16.239  0.00  0.00    +0.264 C 
ATOM     35  C   UNL     1      28.012 -22.726 -15.965  0.00  0.00    +0.111 C 
ATOM     36  H   UNL     1      29.409 -23.434 -14.570  0.00  0.00    +0.150 HD
ENDBRANCH  29  34
ENDBRANCH  25  27
ENDBRANCH   3  25
TORSDOF 6
ENDMDL
MODEL 5
REMARK VINA RESULT:     -11.8      4.547      7.935
REMARK  Name = 11167602
REMARK  6 active torsions:
REMARK  status: ('A' for Active; 'I' for Inactive)
REMARK    1  A    between atoms: C_2  and  N_10
REMARK    2  A    between atoms: C_3  and  O_25
REMARK    3  A    between atoms: N_9  and  C_15
REMARK    4  A    between atoms: C_16  and  C_24
REMARK    5  A    between atoms: O_25  and  C_27
REMARK    6  A    between atoms: C_29  and  C_34
REMARK                            x       y       z     vdW  Elec       q    Type
REMARK                         _______ _______ _______ _____ _____    ______ ____
ROOT
ATOM      1  F   UNL     1      34.652 -17.061 -25.889  0.00  0.00    -0.203 F 
ATOM      2  C   UNL     1      35.051 -16.081 -23.764  0.00  0.00    +0.079 C 
ATOM      3  C   UNL     1      35.607 -18.591 -22.734  0.00  0.00    +0.148 C 
ATOM      4  C   UNL     1      34.982 -17.185 -24.597  0.00  0.00    +0.157 C 
ATOM      5  C   UNL     1      35.393 -16.205 -22.427  0.00  0.00    +0.020 C 
ATOM      6  C   UNL     1      35.262 -18.449 -24.078  0.00  0.00    +0.068 C 
ATOM      7  C   UNL     1      35.672 -17.469 -21.908  0.00  0.00    +0.039 C 
ENDROOT
BRANCH   2  10
ATOM      8  O   UNL     1      34.934 -13.426 -22.400  0.00  0.00    -0.252 OA
ATOM      9  N   UNL     1      34.405 -12.525 -24.497  0.00  0.00    -0.268 N 
ATOM     10  N   UNL     1      34.769 -14.797 -24.287  0.00  0.00    -0.266 N 
ATOM     11  C   UNL     1      34.725 -13.574 -23.599  0.00  0.00    +0.308 C 
ATOM     12  H   UNL     1      34.265 -12.794 -25.433  0.00  0.00    +0.156 HD
ATOM     13  H   UNL     1      34.579 -14.757 -25.252  0.00  0.00    +0.156 HD
BRANCH   9  15
ATOM     14 CL   UNL     1      33.839  -6.749 -23.377  0.00  0.00    -0.082 Cl
ATOM     15  C   UNL     1      34.262 -11.164 -24.229  0.00  0.00    +0.052 C 
ATOM     16  C   UNL     1      32.968  -9.331 -23.332  0.00  0.00    +0.083 C 
ATOM     17  C   UNL     1      33.110 -10.693 -23.600  0.00  0.00    +0.019 C 
ATOM     18  C   UNL     1      35.272 -10.273 -24.592  0.00  0.00    +0.016 C 
ATOM     19  C   UNL     1      33.979  -8.441 -23.694  0.00  0.00    +0.062 C 
ATOM     20  C   UNL     1      35.130  -8.911 -24.324  0.00  0.00    +0.013 C 
BRANCH  16  24
ATOM     21  F   UNL     1      30.953  -8.046 -23.426  0.00  0.00    -0.166 F 
ATOM     22  F   UNL     1      30.892  -9.888 -22.282  0.00  0.00    -0.166 F 
ATOM     23  F   UNL     1      31.977  -8.167 -21.513  0.00  0.00    -0.166 F 
ATOM     24  C   UNL     1      31.720  -8.868 -22.654  0.00  0.00    +0.419 C 
ENDBRANCH  16  24
ENDBRANCH   9  15
ENDBRANCH   2  10
BRANCH   3  25
ATOM     25  O   UNL     1      35.881 -19.825 -22.228  0.00  0.00    -0.453 OA
BRANCH  25  27
ATOM     26  N   UNL     1      33.195 -21.424 -19.489  0.00  0.00    -0.239 NA
ATOM     27  C   UNL     1      34.986 -20.359 -21.315  0.00  0.00    +0.149 C 
ATOM     28  C   UNL     1      35.462 -21.127 -20.275  0.00  0.00    +0.061 C 
ATOM     29  C   UNL     1      34.527 -21.637 -19.388  0.00  0.00    +0.137 C 
ATOM     30  C   UNL     1      33.639 -20.108 -21.468  0.00  0.00    +0.058 C 
ATOM     31  C   UNL     1      32.786 -20.663 -20.529  0.00  0.00    +0.102 C 
BRANCH  29  34
ATOM     32  O   UNL     1      36.158 -22.562 -17.982  0.00  0.00    -0.268 OA
ATOM     33  N   UNL     1      33.946 -23.087 -17.522  0.00  0.00    -0.298 N 
ATOM     34  C   UNL     1      34.951 -22.456 -18.266  0.00  0.00    +0.264 C 
ATOM     35  C   UNL     1      34.207 -23.914 -16.366  0.00  0.00    +0.111 C 
ATOM     36  H   UNL     1      33.011 -22.961 -17.803  0.00  0.00    +0.150 HD
ENDBRANCH  29  34
ENDBRANCH  25  27
ENDBRANCH   3  25
TORSDOF 6
ENDMDL
MODEL 6
REMARK VINA RESULT:     -11.7      4.822      8.122
REMARK  Name = 11167602
REMARK  6 active torsions:
REMARK  status: ('A' for Active; 'I' for Inactive)
REMARK    1  A    between atoms: C_2  and  N_10
REMARK    2  A    between atoms: C_3  and  O_25
REMARK    3  A    between atoms: N_9  and  C_15
REMARK    4  A    between atoms: C_16  and  C_24
REMARK    5  A    between atoms: O_25  and  C_27
REMARK    6  A    between atoms: C_29  and  C_34
REMARK                            x       y       z     vdW  Elec       q    Type
REMARK                         _______ _______ _______ _____ _____    ______ ____
ROOT
ATOM      1  F   UNL     1      34.711 -16.435 -25.809  0.00  0.00    -0.203 F 
ATOM      2  C   UNL     1      34.971 -15.713 -23.562  0.00  0.00    +0.079 C 
ATOM      3  C   UNL     1      35.668 -18.293 -22.835  0.00  0.00    +0.148 C 
ATOM      4  C   UNL     1      35.007 -16.704 -24.530  0.00  0.00    +0.157 C 
ATOM      5  C   UNL     1      35.278 -15.985 -22.238  0.00  0.00    +0.020 C 
ATOM      6  C   UNL     1      35.357 -18.003 -24.164  0.00  0.00    +0.068 C 
ATOM      7  C   UNL     1      35.628 -17.285 -21.872  0.00  0.00    +0.039 C 
ENDROOT
BRANCH   2  10
ATOM      8  O   UNL     1      33.810 -13.500 -21.926  0.00  0.00    -0.252 OA
ATOM      9  N   UNL     1      33.864 -12.210 -23.881  0.00  0.00    -0.268 N 
ATOM     10  N   UNL     1      34.617 -14.393 -23.930  0.00  0.00    -0.266 N 
ATOM     11  C   UNL     1      34.071 -13.386 -23.119  0.00  0.00    +0.308 C 
ATOM     12  H   UNL     1      34.122 -12.266 -24.829  0.00  0.00    +0.156 HD
ATOM     13  H   UNL     1      34.773 -14.152 -24.872  0.00  0.00    +0.156 HD
BRANCH   9  15
ATOM     14 CL   UNL     1      31.629  -7.036 -22.101  0.00  0.00    -0.082 Cl
ATOM     15  C   UNL     1      33.344 -10.984 -23.465  0.00  0.00    +0.052 C 
ATOM     16  C   UNL     1      33.408  -8.569 -23.483  0.00  0.00    +0.083 C 
ATOM     17  C   UNL     1      33.929  -9.795 -23.899  0.00  0.00    +0.019 C 
ATOM     18  C   UNL     1      32.239 -10.949 -22.615  0.00  0.00    +0.016 C 
ATOM     19  C   UNL     1      32.302  -8.534 -22.635  0.00  0.00    +0.062 C 
ATOM     20  C   UNL     1      31.717  -9.723 -22.200  0.00  0.00    +0.013 C 
BRANCH  16  24
ATOM     21  F   UNL     1      34.521  -6.515 -22.970  0.00  0.00    -0.166 F 
ATOM     22  F   UNL     1      35.143  -7.547 -24.774  0.00  0.00    -0.166 F 
ATOM     23  F   UNL     1      33.215  -6.541 -24.708  0.00  0.00    -0.166 F 
ATOM     24  C   UNL     1      34.062  -7.318 -23.973  0.00  0.00    +0.419 C 
ENDBRANCH  16  24
ENDBRANCH   9  15
ENDBRANCH   2  10
BRANCH   3  25
ATOM     25  O   UNL     1      36.010 -19.562 -22.478  0.00  0.00    -0.453 OA
BRANCH  25  27
ATOM     26  N   UNL     1      33.746 -21.410 -19.523  0.00  0.00    -0.239 NA
ATOM     27  C   UNL     1      35.257 -20.178 -21.494  0.00  0.00    +0.149 C 
ATOM     28  C   UNL     1      35.897 -20.834 -20.465  0.00  0.00    +0.061 C 
ATOM     29  C   UNL     1      35.098 -21.434 -19.504  0.00  0.00    +0.137 C 
ATOM     30  C   UNL     1      33.881 -20.121 -21.565  0.00  0.00    +0.058 C 
ATOM     31  C   UNL     1      33.172 -20.753 -20.556  0.00  0.00    +0.102 C 
BRANCH  29  34
ATOM     32  O   UNL     1      35.115 -23.109 -17.865  0.00  0.00    -0.268 OA
ATOM     33  N   UNL     1      36.958 -21.705 -17.959  0.00  0.00    -0.298 N 
ATOM     34  C   UNL     1      35.700 -22.143 -18.389  0.00  0.00    +0.264 C 
ATOM     35  C   UNL     1      37.695 -22.322 -16.880  0.00  0.00    +0.111 C 
ATOM     36  H   UNL     1      37.363 -20.934 -18.417  0.00  0.00    +0.150 HD
ENDBRANCH  29  34
ENDBRANCH  25  27
ENDBRANCH   3  25
TORSDOF 6
ENDMDL
MODEL 7
REMARK VINA RESULT:     -11.7      4.375     11.676
REMARK  Name = 11167602
REMARK  6 active torsions:
REMARK  status: ('A' for Active; 'I' for Inactive)
REMARK    1  A    between atoms: C_2  and  N_10
REMARK    2  A    between atoms: C_3  and  O_25
REMARK    3  A    between atoms: N_9  and  C_15
REMARK    4  A    between atoms: C_16  and  C_24
REMARK    5  A    between atoms: O_25  and  C_27
REMARK    6  A    between atoms: C_29  and  C_34
REMARK                            x       y       z     vdW  Elec       q    Type
REMARK                         _______ _______ _______ _____ _____    ______ ____
ROOT
ATOM      1  F   UNL     1      36.330 -17.131 -22.356  0.00  0.00    -0.203 F 
ATOM      2  C   UNL     1      35.194 -18.940 -23.393  0.00  0.00    +0.079 C 
ATOM      3  C   UNL     1      34.415 -17.247 -25.443  0.00  0.00    +0.148 C 
ATOM      4  C   UNL     1      35.584 -17.611 -23.360  0.00  0.00    +0.157 C 
ATOM      5  C   UNL     1      34.424 -19.440 -24.430  0.00  0.00    +0.020 C 
ATOM      6  C   UNL     1      35.192 -16.759 -24.392  0.00  0.00    +0.068 C 
ATOM      7  C   UNL     1      34.031 -18.587 -25.462  0.00  0.00    +0.039 C 
ENDROOT
BRANCH   2  10
ATOM      8  O   UNL     1      33.631 -20.033 -21.094  0.00  0.00    -0.252 OA
ATOM      9  N   UNL     1      35.598 -21.137 -20.460  0.00  0.00    -0.268 N 
ATOM     10  N   UNL     1      35.592 -19.807 -22.349  0.00  0.00    -0.266 N 
ATOM     11  C   UNL     1      34.815 -20.294 -21.286  0.00  0.00    +0.308 C 
ATOM     12  H   UNL     1      36.535 -21.255 -20.738  0.00  0.00    +0.156 HD
ATOM     13  H   UNL     1      36.530 -20.106 -22.370  0.00  0.00    +0.156 HD
BRANCH   9  15
ATOM     14 CL   UNL     1      33.949 -24.038 -15.581  0.00  0.00    -0.082 Cl
ATOM     15  C   UNL     1      35.218 -21.821 -19.305  0.00  0.00    +0.052 C 
ATOM     16  C   UNL     1      35.760 -22.712 -17.126  0.00  0.00    +0.083 C 
ATOM     17  C   UNL     1      36.142 -22.027 -18.280  0.00  0.00    +0.019 C 
ATOM     18  C   UNL     1      33.914 -22.300 -19.176  0.00  0.00    +0.016 C 
ATOM     19  C   UNL     1      34.457 -23.189 -16.996  0.00  0.00    +0.062 C 
ATOM     20  C   UNL     1      33.534 -22.984 -18.021  0.00  0.00    +0.013 C 
BRANCH  16  24
ATOM     21  F   UNL     1      37.145 -24.212 -15.879  0.00  0.00    -0.166 F 
ATOM     22  F   UNL     1      37.944 -22.234 -16.273  0.00  0.00    -0.166 F 
ATOM     23  F   UNL     1      36.336 -22.488 -14.830  0.00  0.00    -0.166 F 
ATOM     24  C   UNL     1      36.779 -22.909 -16.050  0.00  0.00    +0.419 C 
ENDBRANCH  16  24
ENDBRANCH   9  15
ENDBRANCH   2  10
BRANCH   3  25
ATOM     25  O   UNL     1      34.032 -16.415 -26.450  0.00  0.00    -0.453 OA
BRANCH  25  27
ATOM     26  N   UNL     1      33.578 -12.382 -25.557  0.00  0.00    -0.239 NA
ATOM     27  C   UNL     1      33.880 -15.072 -26.152  0.00  0.00    +0.149 C 
ATOM     28  C   UNL     1      33.640 -14.693 -24.849  0.00  0.00    +0.061 C 
ATOM     29  C   UNL     1      33.497 -13.336 -24.603  0.00  0.00    +0.137 C 
ATOM     30  C   UNL     1      33.972 -14.142 -27.167  0.00  0.00    +0.058 C 
ATOM     31  C   UNL     1      33.814 -12.811 -26.817  0.00  0.00    +0.102 C 
BRANCH  29  34
ATOM     32  O   UNL     1      33.097 -11.643 -23.031  0.00  0.00    -0.268 OA
ATOM     33  N   UNL     1      33.152 -13.824 -22.244  0.00  0.00    -0.298 N 
ATOM     34  C   UNL     1      33.243 -12.859 -23.254  0.00  0.00    +0.264 C 
ATOM     35  C   UNL     1      32.880 -13.510 -20.860  0.00  0.00    +0.111 C 
ATOM     36  H   UNL     1      33.279 -14.768 -22.490  0.00  0.00    +0.150 HD
ENDBRANCH  29  34
ENDBRANCH  25  27
ENDBRANCH   3  25
TORSDOF 6
ENDMDL
MODEL 8
REMARK VINA RESULT:     -11.6      4.325     11.516
REMARK  Name = 11167602
REMARK  6 active torsions:
REMARK  status: ('A' for Active; 'I' for Inactive)
REMARK    1  A    between atoms: C_2  and  N_10
REMARK    2  A    between atoms: C_3  and  O_25
REMARK    3  A    between atoms: N_9  and  C_15
REMARK    4  A    between atoms: C_16  and  C_24
REMARK    5  A    between atoms: O_25  and  C_27
REMARK    6  A    between atoms: C_29  and  C_34
REMARK                            x       y       z     vdW  Elec       q    Type
REMARK                         _______ _______ _______ _____ _____    ______ ____
ROOT
ATOM      1  F   UNL     1      34.383 -20.557 -20.285  0.00  0.00    -0.203 F 
ATOM      2  C   UNL     1      36.623 -19.826 -20.577  0.00  0.00    +0.079 C 
ATOM      3  C   UNL     1      35.965 -18.880 -23.095  0.00  0.00    +0.148 C 
ATOM      4  C   UNL     1      35.324 -19.970 -21.036  0.00  0.00    +0.157 C 
ATOM      5  C   UNL     1      37.599 -19.217 -21.349  0.00  0.00    +0.020 C 
ATOM      6  C   UNL     1      34.993 -19.493 -22.304  0.00  0.00    +0.068 C 
ATOM      7  C   UNL     1      37.268 -18.742 -22.618  0.00  0.00    +0.039 C 
ENDROOT
BRANCH   2  10
ATOM      8  O   UNL     1      35.979 -22.427 -19.257  0.00  0.00    -0.252 OA
ATOM      9  N   UNL     1      37.169 -21.626 -17.405  0.00  0.00    -0.268 N 
ATOM     10  N   UNL     1      36.963 -20.306 -19.290  0.00  0.00    -0.266 N 
ATOM     11  C   UNL     1      36.633 -21.543 -18.714  0.00  0.00    +0.308 C 
ATOM     12  H   UNL     1      37.674 -20.838 -17.101  0.00  0.00    +0.156 HD
ATOM     13  H   UNL     1      37.496 -19.697 -18.729  0.00  0.00    +0.156 HD
BRANCH   9  15
ATOM     14 CL   UNL     1      36.735 -26.066 -13.527  0.00  0.00    -0.082 Cl
ATOM     15  C   UNL     1      37.076 -22.676 -16.491  0.00  0.00    +0.052 C 
ATOM     16  C   UNL     1      38.126 -24.433 -15.209  0.00  0.00    +0.083 C 
ATOM     17  C   UNL     1      38.221 -23.384 -16.123  0.00  0.00    +0.019 C 
ATOM     18  C   UNL     1      35.839 -23.018 -15.946  0.00  0.00    +0.016 C 
ATOM     19  C   UNL     1      36.889 -24.774 -14.663  0.00  0.00    +0.062 C 
ATOM     20  C   UNL     1      35.746 -24.067 -15.032  0.00  0.00    +0.013 C 
BRANCH  16  24
ATOM     21  F   UNL     1      39.304 -26.510 -15.053  0.00  0.00    -0.166 F 
ATOM     22  F   UNL     1      40.476 -24.749 -15.531  0.00  0.00    -0.166 F 
ATOM     23  F   UNL     1      39.693 -25.019 -13.520  0.00  0.00    -0.166 F 
ATOM     24  C   UNL     1      39.376 -25.165 -14.839  0.00  0.00    +0.419 C 
ENDBRANCH  16  24
ENDBRANCH   9  15
ENDBRANCH   2  10
BRANCH   3  25
ATOM     25  O   UNL     1      35.641 -18.415 -24.333  0.00  0.00    -0.453 OA
BRANCH  25  27
ATOM     26  N   UNL     1      34.011 -14.602 -24.601  0.00  0.00    -0.239 NA
ATOM     27  C   UNL     1      35.097 -17.145 -24.422  0.00  0.00    +0.149 C 
ATOM     28  C   UNL     1      34.908 -16.411 -23.271  0.00  0.00    +0.061 C 
ATOM     29  C   UNL     1      34.362 -15.144 -23.414  0.00  0.00    +0.137 C 
ATOM     30  C   UNL     1      34.758 -16.643 -25.660  0.00  0.00    +0.058 C 
ATOM     31  C   UNL     1      34.218 -15.367 -25.696  0.00  0.00    +0.102 C 
BRANCH  29  34
ATOM     32  O   UNL     1      35.008 -14.197 -21.369  0.00  0.00    -0.268 OA
ATOM     33  N   UNL     1      32.909 -13.634 -22.177  0.00  0.00    -0.298 N 
ATOM     34  C   UNL     1      34.133 -14.310 -22.247  0.00  0.00    +0.264 C 
ATOM     35  C   UNL     1      32.543 -12.751 -21.094  0.00  0.00    +0.111 C 
ATOM     36  H   UNL     1      32.261 -13.769 -22.906  0.00  0.00    +0.150 HD
ENDBRANCH  29  34
ENDBRANCH  25  27
ENDBRANCH   3  25
TORSDOF 6
ENDMDL
MODEL 9
REMARK VINA RESULT:     -11.4      8.778     15.736
REMARK  Name = 11167602
REMARK  6 active torsions:
REMARK  status: ('A' for Active; 'I' for Inactive)
REMARK    1  A    between atoms: C_2  and  N_10
REMARK    2  A    between atoms: C_3  and  O_25
REMARK    3  A    between atoms: N_9  and  C_15
REMARK    4  A    between atoms: C_16  and  C_24
REMARK    5  A    between atoms: O_25  and  C_27
REMARK    6  A    between atoms: C_29  and  C_34
REMARK                            x       y       z     vdW  Elec       q    Type
REMARK                         _______ _______ _______ _____ _____    ______ ____
ROOT
ATOM      1  F   UNL     1      35.924  -9.705 -25.119  0.00  0.00    -0.203 F 
ATOM      2  C   UNL     1      33.914 -10.354 -24.034  0.00  0.00    +0.079 C 
ATOM      3  C   UNL     1      33.825  -7.890 -22.772  0.00  0.00    +0.148 C 
ATOM      4  C   UNL     1      34.915  -9.429 -24.281  0.00  0.00    +0.157 C 
ATOM      5  C   UNL     1      32.868 -10.072 -23.170  0.00  0.00    +0.020 C 
ATOM      6  C   UNL     1      34.870  -8.189 -23.646  0.00  0.00    +0.068 C 
ATOM      7  C   UNL     1      32.824  -8.832 -22.533  0.00  0.00    +0.039 C 
ENDROOT
BRANCH   2  10
ATOM      8  O   UNL     1      34.448 -13.074 -22.921  0.00  0.00    -0.252 OA
ATOM      9  N   UNL     1      34.160 -13.874 -25.104  0.00  0.00    -0.268 N 
ATOM     10  N   UNL     1      33.955 -11.613 -24.679  0.00  0.00    -0.266 N 
ATOM     11  C   UNL     1      34.213 -12.869 -24.107  0.00  0.00    +0.308 C 
ATOM     12  H   UNL     1      33.959 -13.561 -26.015  0.00  0.00    +0.156 HD
ATOM     13  H   UNL     1      33.782 -11.606 -25.648  0.00  0.00    +0.156 HD
BRANCH   9  15
ATOM     14 CL   UNL     1      34.968 -19.703 -24.553  0.00  0.00    -0.082 Cl
ATOM     15  C   UNL     1      34.356 -15.248 -24.965  0.00  0.00    +0.052 C 
ATOM     16  C   UNL     1      35.102 -17.134 -23.653  0.00  0.00    +0.083 C 
ATOM     17  C   UNL     1      34.908 -15.759 -23.791  0.00  0.00    +0.019 C 
ATOM     18  C   UNL     1      33.998 -16.111 -26.001  0.00  0.00    +0.016 C 
ATOM     19  C   UNL     1      34.744 -17.996 -24.689  0.00  0.00    +0.062 C 
ATOM     20  C   UNL     1      34.192 -17.485 -25.863  0.00  0.00    +0.013 C 
BRANCH  16  24
ATOM     21  F   UNL     1      35.694 -16.721 -21.373  0.00  0.00    -0.166 F 
ATOM     22  F   UNL     1      35.043 -18.729 -21.871  0.00  0.00    -0.166 F 
ATOM     23  F   UNL     1      36.995 -18.027 -22.525  0.00  0.00    -0.166 F 
ATOM     24  C   UNL     1      35.694 -17.642 -22.378  0.00  0.00    +0.419 C 
ENDBRANCH  16  24
ENDBRANCH   9  15
ENDBRANCH   2  10
BRANCH   3  25
ATOM     25  O   UNL     1      33.781  -6.679 -22.151  0.00  0.00    -0.453 OA
BRANCH  25  27
ATOM     26  N   UNL     1      30.444  -4.292 -22.812  0.00  0.00    -0.239 NA
ATOM     27  C   UNL     1      32.670  -5.883 -22.371  0.00  0.00    +0.149 C 
ATOM     28  C   UNL     1      32.663  -5.016 -23.442  0.00  0.00    +0.061 C 
ATOM     29  C   UNL     1      31.527  -4.242 -23.620  0.00  0.00    +0.137 C 
ATOM     30  C   UNL     1      31.594  -5.977 -21.514  0.00  0.00    +0.058 C 
ATOM     31  C   UNL     1      30.507  -5.160 -21.777  0.00  0.00    +0.102 C 
BRANCH  29  34
ATOM     32  O   UNL     1      30.460  -2.553 -24.847  0.00  0.00    -0.268 OA
ATOM     33  N   UNL     1      32.523  -3.277 -25.620  0.00  0.00    -0.298 N 
ATOM     34  C   UNL     1      31.445  -3.305 -24.727  0.00  0.00    +0.264 C 
ATOM     35  C   UNL     1      32.600  -2.386 -26.754  0.00  0.00    +0.111 C 
ATOM     36  H   UNL     1      33.270  -3.900 -25.467  0.00  0.00    +0.150 HD
ENDBRANCH  29  34
ENDBRANCH  25  27
ENDBRANCH   3  25
TORSDOF 6
ENDMDL
