MODEL 1
REMARK VINA RESULT:     -11.4      0.000      0.000
REMARK  Name = 46861612
REMARK  7 active torsions:
REMARK  status: ('A' for Active; 'I' for Inactive)
REMARK    1  A    between atoms: C_1  and  N_2
REMARK    2  A    between atoms: C_1  and  C_17
REMARK    3  A    between atoms: N_3  and  C_11
REMARK    4  A    between atoms: C_17  and  C_18
REMARK    5  A    between atoms: C_18  and  C_19
REMARK    6  A    between atoms: C_19  and  O_20
REMARK    7  A    between atoms: O_20  and  C_24
REMARK                            x       y       z     vdW  Elec       q    Type
REMARK                         _______ _______ _______ _____ _____    ______ ____
ROOT
ATOM      1  C   UNL     1      34.975 -16.655 -25.248  0.00  0.00    -0.077 C 
ENDROOT
BRANCH   1   2
ATOM      2  N   UNL     1      34.828 -15.267 -24.813  0.00  0.00    +0.389 N 
ATOM      3  N   UNL     1      33.562 -13.062 -23.512  0.00  0.00    -0.311 N 
ATOM      4  C   UNL     1      33.606 -14.677 -25.372  0.00  0.00    -0.055 C 
ATOM      5  C   UNL     1      34.796 -15.188 -23.348  0.00  0.00    -0.055 C 
ATOM      6  C   UNL     1      34.700 -13.734 -22.877  0.00  0.00    +0.068 C 
ATOM      7  C   UNL     1      33.471 -13.207 -24.971  0.00  0.00    +0.068 C 
ATOM      8  H   UNL     1      35.634 -14.740 -25.153  0.00  0.00    -0.080 HD
BRANCH   3  11
ATOM      9 CL   UNL     1      32.145 -13.470 -20.904  0.00  0.00    -0.080 Cl
ATOM     10 CL   UNL     1      30.959 -10.754 -19.670  0.00  0.00    -0.081 Cl
ATOM     11  C   UNL     1      33.027 -11.906 -22.932  0.00  0.00    +0.059 C 
ATOM     12  C   UNL     1      32.340 -11.949 -21.718  0.00  0.00    +0.081 C 
ATOM     13  C   UNL     1      33.193 -10.692 -23.598  0.00  0.00    +0.015 C 
ATOM     14  C   UNL     1      31.820 -10.776 -21.170  0.00  0.00    +0.069 C 
ATOM     15  C   UNL     1      32.673  -9.519 -23.050  0.00  0.00    +0.002 C 
ATOM     16  C   UNL     1      31.986  -9.562 -21.836  0.00  0.00    +0.012 C 
ENDBRANCH   3  11
ENDBRANCH   1   2
BRANCH   1  17
ATOM     17  C   UNL     1      35.359 -17.545 -24.068  0.00  0.00    -0.019 C 
BRANCH  17  18
ATOM     18  C   UNL     1      34.889 -18.982 -24.283  0.00  0.00    +0.045 C 
BRANCH  18  19
ATOM     19  C   UNL     1      35.289 -19.883 -23.122  0.00  0.00    +0.205 C 
BRANCH  19  20
ATOM     20  O   UNL     1      34.349 -19.751 -22.064  0.00  0.00    -0.475 OA
BRANCH  20  24
ATOM     21  O   UNL     1      35.170 -22.938 -17.626  0.00  0.00    -0.464 OA
ATOM     22  O   UNL     1      31.745 -23.568 -16.659  0.00  0.00    -0.271 OA
ATOM     23  N   UNL     1      32.528 -22.316 -18.422  0.00  0.00    -0.278 N 
ATOM     24  C   UNL     1      34.535 -20.552 -20.967  0.00  0.00    +0.140 C 
ATOM     25  C   UNL     1      33.433 -21.037 -20.263  0.00  0.00    +0.055 C 
ATOM     26  C   UNL     1      33.630 -21.859 -19.152  0.00  0.00    +0.088 C 
ATOM     27  C   UNL     1      35.827 -20.877 -20.554  0.00  0.00    +0.040 C 
ATOM     28  C   UNL     1      34.919 -22.187 -18.740  0.00  0.00    +0.153 C 
ATOM     29  C   UNL     1      36.021 -21.689 -19.436  0.00  0.00    +0.041 C 
ATOM     30  C   UNL     1      34.081 -23.742 -17.212  0.00  0.00    +0.290 C 
ATOM     31  C   UNL     1      32.674 -23.191 -17.371  0.00  0.00    +0.271 C 
ATOM     32  H   UNL     1      31.627 -22.005 -18.666  0.00  0.00    +0.155 HD
ENDBRANCH  20  24
ENDBRANCH  19  20
ENDBRANCH  18  19
ENDBRANCH  17  18
ENDBRANCH   1  17
TORSDOF 7
ENDMDL
MODEL 2
REMARK VINA RESULT:     -11.3      3.464      6.078
REMARK  Name = 46861612
REMARK  7 active torsions:
REMARK  status: ('A' for Active; 'I' for Inactive)
REMARK    1  A    between atoms: C_1  and  N_2
REMARK    2  A    between atoms: C_1  and  C_17
REMARK    3  A    between atoms: N_3  and  C_11
REMARK    4  A    between atoms: C_17  and  C_18
REMARK    5  A    between atoms: C_18  and  C_19
REMARK    6  A    between atoms: C_19  and  O_20
REMARK    7  A    between atoms: O_20  and  C_24
REMARK                            x       y       z     vdW  Elec       q    Type
REMARK                         _______ _______ _______ _____ _____    ______ ____
ROOT
ATOM      1  C   UNL     1      36.037 -21.750 -19.394  0.00  0.00    -0.077 C 
ENDROOT
BRANCH   1   2
ATOM      2  N   UNL     1      35.989 -20.956 -20.620  0.00  0.00    +0.389 N 
ATOM      3  N   UNL     1      35.518 -18.623 -22.199  0.00  0.00    -0.311 N 
ATOM      4  C   UNL     1      34.618 -20.507 -20.891  0.00  0.00    -0.055 C 
ATOM      5  C   UNL     1      36.883 -19.796 -20.517  0.00  0.00    -0.055 C 
ATOM      6  C   UNL     1      36.886 -18.987 -21.816  0.00  0.00    +0.068 C 
ATOM      7  C   UNL     1      34.545 -19.723 -22.202  0.00  0.00    +0.068 C 
ATOM      8  H   UNL     1      36.301 -21.545 -21.392  0.00  0.00    -0.080 HD
BRANCH   3  11
ATOM      9 CL   UNL     1      35.099 -15.957 -20.896  0.00  0.00    -0.080 Cl
ATOM     10 CL   UNL     1      34.616 -13.582 -23.002  0.00  0.00    -0.081 Cl
ATOM     11  C   UNL     1      35.304 -17.553 -23.075  0.00  0.00    +0.059 C 
ATOM     12  C   UNL     1      35.094 -16.255 -22.607  0.00  0.00    +0.081 C 
ATOM     13  C   UNL     1      35.304 -17.808 -24.446  0.00  0.00    +0.015 C 
ATOM     14  C   UNL     1      34.883 -15.214 -23.511  0.00  0.00    +0.069 C 
ATOM     15  C   UNL     1      35.094 -16.767 -25.350  0.00  0.00    +0.002 C 
ATOM     16  C   UNL     1      34.883 -15.470 -24.882  0.00  0.00    +0.012 C 
ENDBRANCH   3  11
ENDBRANCH   1   2
BRANCH   1  17
ATOM     17  C   UNL     1      37.010 -21.128 -18.394  0.00  0.00    -0.019 C 
BRANCH  17  18
ATOM     18  C   UNL     1      37.531 -22.171 -17.407  0.00  0.00    +0.045 C 
BRANCH  18  19
ATOM     19  C   UNL     1      36.539 -22.423 -16.279  0.00  0.00    +0.205 C 
BRANCH  19  20
ATOM     20  O   UNL     1      35.828 -23.629 -16.525  0.00  0.00    -0.475 OA
BRANCH  20  24
ATOM     21  O   UNL     1      30.673 -23.883 -14.553  0.00  0.00    -0.464 OA
ATOM     22  O   UNL     1      28.879 -22.319 -17.272  0.00  0.00    -0.271 OA
ATOM     23  N   UNL     1      31.136 -22.712 -17.085  0.00  0.00    -0.278 N 
ATOM     24  C   UNL     1      34.542 -23.695 -16.055  0.00  0.00    +0.140 C 
ATOM     25  C   UNL     1      33.493 -23.182 -16.819  0.00  0.00    +0.055 C 
ATOM     26  C   UNL     1      32.185 -23.258 -16.338  0.00  0.00    +0.088 C 
ATOM     27  C   UNL     1      34.284 -24.270 -14.810  0.00  0.00    +0.040 C 
ATOM     28  C   UNL     1      31.925 -23.835 -15.097  0.00  0.00    +0.153 C 
ATOM     29  C   UNL     1      32.977 -24.334 -14.327  0.00  0.00    +0.041 C 
ATOM     30  C   UNL     1      29.626 -23.762 -15.497  0.00  0.00    +0.290 C 
ATOM     31  C   UNL     1      29.826 -22.838 -16.686  0.00  0.00    +0.271 C 
ATOM     32  H   UNL     1      31.341 -22.227 -17.917  0.00  0.00    +0.155 HD
ENDBRANCH  20  24
ENDBRANCH  19  20
ENDBRANCH  18  19
ENDBRANCH  17  18
ENDBRANCH   1  17
TORSDOF 7
ENDMDL
MODEL 3
REMARK VINA RESULT:     -11.2      1.572      2.165
REMARK  Name = 46861612
REMARK  7 active torsions:
REMARK  status: ('A' for Active; 'I' for Inactive)
REMARK    1  A    between atoms: C_1  and  N_2
REMARK    2  A    between atoms: C_1  and  C_17
REMARK    3  A    between atoms: N_3  and  C_11
REMARK    4  A    between atoms: C_17  and  C_18
REMARK    5  A    between atoms: C_18  and  C_19
REMARK    6  A    between atoms: C_19  and  O_20
REMARK    7  A    between atoms: O_20  and  C_24
REMARK                            x       y       z     vdW  Elec       q    Type
REMARK                         _______ _______ _______ _____ _____    ______ ____
ROOT
ATOM      1  C   UNL     1      35.330 -17.154 -24.587  0.00  0.00    -0.077 C 
ENDROOT
BRANCH   1   2
ATOM      2  N   UNL     1      35.117 -15.742 -24.276  0.00  0.00    +0.389 N 
ATOM      3  N   UNL     1      33.693 -13.477 -23.275  0.00  0.00    -0.311 N 
ATOM      4  C   UNL     1      33.945 -15.226 -24.993  0.00  0.00    -0.055 C 
ATOM      5  C   UNL     1      34.941 -15.554 -22.831  0.00  0.00    -0.055 C 
ATOM      6  C   UNL     1      34.775 -14.073 -22.484  0.00  0.00    +0.068 C 
ATOM      7  C   UNL     1      33.747 -13.734 -24.720  0.00  0.00    +0.068 C 
ATOM      8  H   UNL     1      35.943 -15.223 -24.577  0.00  0.00    -0.080 HD
BRANCH   3  11
ATOM      9 CL   UNL     1      32.197 -13.680 -20.687  0.00  0.00    -0.080 Cl
ATOM     10 CL   UNL     1      30.843 -10.911 -19.789  0.00  0.00    -0.081 Cl
ATOM     11  C   UNL     1      33.085 -12.295 -22.839  0.00  0.00    +0.059 C 
ATOM     12  C   UNL     1      32.355 -12.244 -21.651  0.00  0.00    +0.081 C 
ATOM     13  C   UNL     1      33.221 -11.150 -23.624  0.00  0.00    +0.015 C 
ATOM     14  C   UNL     1      31.761 -11.047 -21.248  0.00  0.00    +0.069 C 
ATOM     15  C   UNL     1      32.628  -9.954 -23.221  0.00  0.00    +0.002 C 
ATOM     16  C   UNL     1      31.898  -9.903 -22.033  0.00  0.00    +0.012 C 
ENDBRANCH   3  11
ENDBRANCH   1   2
BRANCH   1  17
ATOM     17  C   UNL     1      35.632 -17.941 -23.313  0.00  0.00    -0.019 C 
BRANCH  17  18
ATOM     18  C   UNL     1      34.979 -19.321 -23.346  0.00  0.00    +0.045 C 
BRANCH  18  19
ATOM     19  C   UNL     1      34.604 -19.799 -21.950  0.00  0.00    +0.205 C 
BRANCH  19  20
ATOM     20  O   UNL     1      35.768 -20.238 -21.262  0.00  0.00    -0.475 OA
BRANCH  20  24
ATOM     21  O   UNL     1      34.930 -23.457 -16.851  0.00  0.00    -0.464 OA
ATOM     22  O   UNL     1      38.229 -23.382 -15.378  0.00  0.00    -0.271 OA
ATOM     23  N   UNL     1      37.492 -22.344 -17.293  0.00  0.00    -0.278 N 
ATOM     24  C   UNL     1      35.574 -21.025 -20.157  0.00  0.00    +0.140 C 
ATOM     25  C   UNL     1      36.631 -21.269 -19.281  0.00  0.00    +0.055 C 
ATOM     26  C   UNL     1      36.425 -22.066 -18.153  0.00  0.00    +0.088 C 
ATOM     27  C   UNL     1      34.320 -21.585 -19.913  0.00  0.00    +0.040 C 
ATOM     28  C   UNL     1      35.172 -22.623 -17.906  0.00  0.00    +0.153 C 
ATOM     29  C   UNL     1      34.119 -22.390 -18.791  0.00  0.00    +0.041 C 
ATOM     30  C   UNL     1      35.858 -23.334 -15.790  0.00  0.00    +0.290 C 
ATOM     31  C   UNL     1      37.312 -23.056 -16.130  0.00  0.00    +0.271 C 
ATOM     32  H   UNL     1      38.392 -22.021 -17.524  0.00  0.00    +0.155 HD
ENDBRANCH  20  24
ENDBRANCH  19  20
ENDBRANCH  18  19
ENDBRANCH  17  18
ENDBRANCH   1  17
TORSDOF 7
ENDMDL
MODEL 4
REMARK VINA RESULT:     -11.0      3.386      6.149
REMARK  Name = 46861612
REMARK  7 active torsions:
REMARK  status: ('A' for Active; 'I' for Inactive)
REMARK    1  A    between atoms: C_1  and  N_2
REMARK    2  A    between atoms: C_1  and  C_17
REMARK    3  A    between atoms: N_3  and  C_11
REMARK    4  A    between atoms: C_17  and  C_18
REMARK    5  A    between atoms: C_18  and  C_19
REMARK    6  A    between atoms: C_19  and  O_20
REMARK    7  A    between atoms: O_20  and  C_24
REMARK                            x       y       z     vdW  Elec       q    Type
REMARK                         _______ _______ _______ _____ _____    ______ ____
ROOT
ATOM      1  C   UNL     1      36.093 -21.335 -19.863  0.00  0.00    -0.077 C 
ENDROOT
BRANCH   1   2
ATOM      2  N   UNL     1      36.014 -20.526 -21.078  0.00  0.00    +0.389 N 
ATOM      3  N   UNL     1      35.447 -18.195 -22.627  0.00  0.00    -0.311 N 
ATOM      4  C   UNL     1      34.626 -20.133 -21.347  0.00  0.00    -0.055 C 
ATOM      5  C   UNL     1      36.857 -19.331 -20.957  0.00  0.00    -0.055 C 
ATOM      6  C   UNL     1      36.828 -18.505 -22.245  0.00  0.00    +0.068 C 
ATOM      7  C   UNL     1      34.522 -19.335 -22.648  0.00  0.00    +0.068 C 
ATOM      8  H   UNL     1      36.353 -21.091 -21.858  0.00  0.00    -0.080 HD
BRANCH   3  11
ATOM      9 CL   UNL     1      35.020 -15.545 -21.294  0.00  0.00    -0.080 Cl
ATOM     10 CL   UNL     1      34.436 -13.166 -23.369  0.00  0.00    -0.081 Cl
ATOM     11  C   UNL     1      35.189 -17.123 -23.490  0.00  0.00    +0.059 C 
ATOM     12  C   UNL     1      34.971 -15.832 -23.006  0.00  0.00    +0.081 C 
ATOM     13  C   UNL     1      35.153 -17.370 -24.862  0.00  0.00    +0.015 C 
ATOM     14  C   UNL     1      34.716 -14.789 -23.897  0.00  0.00    +0.069 C 
ATOM     15  C   UNL     1      34.899 -16.326 -25.751  0.00  0.00    +0.002 C 
ATOM     16  C   UNL     1      34.680 -15.036 -25.269  0.00  0.00    +0.012 C 
ENDBRANCH   3  11
ENDBRANCH   1   2
BRANCH   1  17
ATOM     17  C   UNL     1      35.069 -22.467 -19.909  0.00  0.00    -0.019 C 
BRANCH  17  18
ATOM     18  C   UNL     1      33.944 -22.237 -18.903  0.00  0.00    +0.045 C 
BRANCH  18  19
ATOM     19  C   UNL     1      33.723 -23.457 -18.018  0.00  0.00    +0.205 C 
BRANCH  19  20
ATOM     20  O   UNL     1      33.822 -23.084 -16.650  0.00  0.00    -0.475 OA
BRANCH  20  24
ATOM     21  O   UNL     1      38.567 -24.252 -14.071  0.00  0.00    -0.464 OA
ATOM     22  O   UNL     1      37.432 -26.818 -11.793  0.00  0.00    -0.271 OA
ATOM     23  N   UNL     1      36.211 -25.638 -13.344  0.00  0.00    -0.278 N 
ATOM     24  C   UNL     1      34.994 -23.394 -16.009  0.00  0.00    +0.140 C 
ATOM     25  C   UNL     1      35.006 -24.371 -15.013  0.00  0.00    +0.055 C 
ATOM     26  C   UNL     1      36.203 -24.686 -14.368  0.00  0.00    +0.088 C 
ATOM     27  C   UNL     1      36.171 -22.728 -16.349  0.00  0.00    +0.040 C 
ATOM     28  C   UNL     1      37.381 -24.024 -14.709  0.00  0.00    +0.153 C 
ATOM     29  C   UNL     1      37.365 -23.037 -15.695  0.00  0.00    +0.041 C 
ATOM     30  C   UNL     1      38.637 -25.499 -13.406  0.00  0.00    +0.290 C 
ATOM     31  C   UNL     1      37.382 -26.036 -12.740  0.00  0.00    +0.271 C 
ATOM     32  H   UNL     1      35.360 -26.034 -13.049  0.00  0.00    +0.155 HD
ENDBRANCH  20  24
ENDBRANCH  19  20
ENDBRANCH  18  19
ENDBRANCH  17  18
ENDBRANCH   1  17
TORSDOF 7
ENDMDL
MODEL 5
REMARK VINA RESULT:     -10.8      3.912      6.930
REMARK  Name = 46861612
REMARK  7 active torsions:
REMARK  status: ('A' for Active; 'I' for Inactive)
REMARK    1  A    between atoms: C_1  and  N_2
REMARK    2  A    between atoms: C_1  and  C_17
REMARK    3  A    between atoms: N_3  and  C_11
REMARK    4  A    between atoms: C_17  and  C_18
REMARK    5  A    between atoms: C_18  and  C_19
REMARK    6  A    between atoms: C_19  and  O_20
REMARK    7  A    between atoms: O_20  and  C_24
REMARK                            x       y       z     vdW  Elec       q    Type
REMARK                         _______ _______ _______ _____ _____    ______ ____
ROOT
ATOM      1  C   UNL     1      31.791 -10.677 -20.069  0.00  0.00    -0.077 C 
ENDROOT
BRANCH   1   2
ATOM      2  N   UNL     1      32.407  -9.737 -21.005  0.00  0.00    +0.389 N 
ATOM      3  N   UNL     1      32.550  -7.394 -22.632  0.00  0.00    -0.311 N 
ATOM      4  C   UNL     1      31.610  -9.636 -22.234  0.00  0.00    -0.055 C 
ATOM      5  C   UNL     1      32.544  -8.412 -20.389  0.00  0.00    -0.055 C 
ATOM      6  C   UNL     1      33.239  -7.433 -21.338  0.00  0.00    +0.068 C 
ATOM      7  C   UNL     1      32.274  -8.699 -23.245  0.00  0.00    +0.068 C 
ATOM      8  H   UNL     1      33.335 -10.088 -21.243  0.00  0.00    -0.080 HD
BRANCH   3  11
ATOM      9 CL   UNL     1      30.678  -5.100 -22.170  0.00  0.00    -0.080 Cl
ATOM     10 CL   UNL     1      31.176  -2.639 -24.170  0.00  0.00    -0.081 Cl
ATOM     11  C   UNL     1      32.727  -6.294 -23.479  0.00  0.00    +0.059 C 
ATOM     12  C   UNL     1      31.925  -5.156 -23.377  0.00  0.00    +0.081 C 
ATOM     13  C   UNL     1      33.734  -6.354 -24.442  0.00  0.00    +0.015 C 
ATOM     14  C   UNL     1      32.131  -4.079 -24.240  0.00  0.00    +0.069 C 
ATOM     15  C   UNL     1      33.939  -5.277 -25.304  0.00  0.00    +0.002 C 
ATOM     16  C   UNL     1      33.137  -4.140 -25.203  0.00  0.00    +0.012 C 
ENDBRANCH   3  11
ENDBRANCH   1   2
BRANCH   1  17
ATOM     17  C   UNL     1      31.231 -11.884 -20.819  0.00  0.00    -0.019 C 
BRANCH  17  18
ATOM     18  C   UNL     1      32.295 -12.965 -21.000  0.00  0.00    +0.045 C 
BRANCH  18  19
ATOM     19  C   UNL     1      32.752 -13.068 -22.449  0.00  0.00    +0.205 C 
BRANCH  19  20
ATOM     20  O   UNL     1      34.152 -13.307 -22.496  0.00  0.00    -0.475 OA
BRANCH  20  24
ATOM     21  O   UNL     1      35.800 -18.370 -23.971  0.00  0.00    -0.464 OA
ATOM     22  O   UNL     1      36.473 -19.788 -20.716  0.00  0.00    -0.271 OA
ATOM     23  N   UNL     1      35.726 -17.676 -21.231  0.00  0.00    -0.278 N 
ATOM     24  C   UNL     1      34.552 -14.571 -22.845  0.00  0.00    +0.140 C 
ATOM     25  C   UNL     1      34.920 -15.483 -21.856  0.00  0.00    +0.055 C 
ATOM     26  C   UNL     1      35.320 -16.770 -22.217  0.00  0.00    +0.088 C 
ATOM     27  C   UNL     1      34.596 -14.941 -24.189  0.00  0.00    +0.040 C 
ATOM     28  C   UNL     1      35.361 -17.143 -23.559  0.00  0.00    +0.153 C 
ATOM     29  C   UNL     1      35.007 -16.225 -24.548  0.00  0.00    +0.041 C 
ATOM     30  C   UNL     1      35.747 -19.371 -22.973  0.00  0.00    +0.290 C 
ATOM     31  C   UNL     1      36.049 -18.977 -21.537  0.00  0.00    +0.271 C 
ATOM     32  H   UNL     1      35.779 -17.374 -20.296  0.00  0.00    +0.155 HD
ENDBRANCH  20  24
ENDBRANCH  19  20
ENDBRANCH  18  19
ENDBRANCH  17  18
ENDBRANCH   1  17
TORSDOF 7
ENDMDL
MODEL 6
REMARK VINA RESULT:     -10.7      3.913      6.986
REMARK  Name = 46861612
REMARK  7 active torsions:
REMARK  status: ('A' for Active; 'I' for Inactive)
REMARK    1  A    between atoms: C_1  and  N_2
REMARK    2  A    between atoms: C_1  and  C_17
REMARK    3  A    between atoms: N_3  and  C_11
REMARK    4  A    between atoms: C_17  and  C_18
REMARK    5  A    between atoms: C_18  and  C_19
REMARK    6  A    between atoms: C_19  and  O_20
REMARK    7  A    between atoms: O_20  and  C_24
REMARK                            x       y       z     vdW  Elec       q    Type
REMARK                         _______ _______ _______ _____ _____    ______ ____
ROOT
ATOM      1  C   UNL     1      32.009 -10.637 -19.837  0.00  0.00    -0.077 C 
ENDROOT
BRANCH   1   2
ATOM      2  N   UNL     1      31.817  -9.448 -20.667  0.00  0.00    +0.389 N 
ATOM      3  N   UNL     1      32.553  -7.447 -22.567  0.00  0.00    -0.311 N 
ATOM      4  C   UNL     1      32.789  -8.408 -20.311  0.00  0.00    -0.055 C 
ATOM      5  C   UNL     1      31.946  -9.786 -22.089  0.00  0.00    -0.055 C 
ATOM      6  C   UNL     1      31.690  -8.562 -22.971  0.00  0.00    +0.068 C 
ATOM      7  C   UNL     1      32.561  -7.137 -21.132  0.00  0.00    +0.068 C 
ATOM      8  H   UNL     1      30.876  -9.091 -20.497  0.00  0.00    -0.080 HD
BRANCH   3  11
ATOM      9 CL   UNL     1      34.969  -7.806 -24.303  0.00  0.00    -0.080 Cl
ATOM     10 CL   UNL     1      35.452  -5.356 -26.320  0.00  0.00    -0.081 Cl
ATOM     11  C   UNL     1      32.807  -6.405 -23.466  0.00  0.00    +0.059 C 
ATOM     12  C   UNL     1      33.899  -6.439 -24.335  0.00  0.00    +0.081 C 
ATOM     13  C   UNL     1      31.938  -5.314 -23.480  0.00  0.00    +0.015 C 
ATOM     14  C   UNL     1      34.120  -5.381 -25.217  0.00  0.00    +0.069 C 
ATOM     15  C   UNL     1      32.159  -4.257 -24.363  0.00  0.00    +0.002 C 
ATOM     16  C   UNL     1      33.251  -4.290 -25.231  0.00  0.00    +0.012 C 
ENDBRANCH   3  11
ENDBRANCH   1   2
BRANCH   1  17
ATOM     17  C   UNL     1      31.365 -11.855 -20.496  0.00  0.00    -0.019 C 
BRANCH  17  18
ATOM     18  C   UNL     1      32.384 -12.973 -20.709  0.00  0.00    +0.045 C 
BRANCH  18  19
ATOM     19  C   UNL     1      32.644 -13.222 -22.188  0.00  0.00    +0.205 C 
BRANCH  19  20
ATOM     20  O   UNL     1      34.042 -13.344 -22.417  0.00  0.00    -0.475 OA
BRANCH  20  24
ATOM     21  O   UNL     1      35.937 -18.307 -23.936  0.00  0.00    -0.464 OA
ATOM     22  O   UNL     1      36.593 -19.753 -20.690  0.00  0.00    -0.271 OA
ATOM     23  N   UNL     1      35.769 -17.665 -21.187  0.00  0.00    -0.278 N 
ATOM     24  C   UNL     1      34.503 -14.584 -22.777  0.00  0.00    +0.140 C 
ATOM     25  C   UNL     1      34.886 -15.497 -21.795  0.00  0.00    +0.055 C 
ATOM     26  C   UNL     1      35.349 -16.760 -22.168  0.00  0.00    +0.088 C 
ATOM     27  C   UNL     1      34.594 -14.928 -24.126  0.00  0.00    +0.040 C 
ATOM     28  C   UNL     1      35.437 -17.108 -23.515  0.00  0.00    +0.153 C 
ATOM     29  C   UNL     1      35.067 -16.188 -24.496  0.00  0.00    +0.041 C 
ATOM     30  C   UNL     1      35.902 -19.327 -22.956  0.00  0.00    +0.290 C 
ATOM     31  C   UNL     1      36.154 -18.946 -21.507  0.00  0.00    +0.271 C 
ATOM     32  H   UNL     1      35.788 -17.378 -20.246  0.00  0.00    +0.155 HD
ENDBRANCH  20  24
ENDBRANCH  19  20
ENDBRANCH  18  19
ENDBRANCH  17  18
ENDBRANCH   1  17
TORSDOF 7
ENDMDL
MODEL 7
REMARK VINA RESULT:     -10.6      2.150      2.756
REMARK  Name = 46861612
REMARK  7 active torsions:
REMARK  status: ('A' for Active; 'I' for Inactive)
REMARK    1  A    between atoms: C_1  and  N_2
REMARK    2  A    between atoms: C_1  and  C_17
REMARK    3  A    between atoms: N_3  and  C_11
REMARK    4  A    between atoms: C_17  and  C_18
REMARK    5  A    between atoms: C_18  and  C_19
REMARK    6  A    between atoms: C_19  and  O_20
REMARK    7  A    between atoms: O_20  and  C_24
REMARK                            x       y       z     vdW  Elec       q    Type
REMARK                         _______ _______ _______ _____ _____    ______ ____
ROOT
ATOM      1  C   UNL     1      35.329 -17.195 -24.454  0.00  0.00    -0.077 C 
ENDROOT
BRANCH   1   2
ATOM      2  N   UNL     1      35.081 -15.766 -24.264  0.00  0.00    +0.389 N 
ATOM      3  N   UNL     1      33.625 -13.463 -23.410  0.00  0.00    -0.311 N 
ATOM      4  C   UNL     1      33.862 -15.355 -24.970  0.00  0.00    -0.055 C 
ATOM      5  C   UNL     1      34.962 -15.450 -22.836  0.00  0.00    -0.055 C 
ATOM      6  C   UNL     1      34.761 -13.948 -22.620  0.00  0.00    +0.068 C 
ATOM      7  C   UNL     1      33.624 -13.851 -24.826  0.00  0.00    +0.068 C 
ATOM      8  H   UNL     1      35.874 -15.253 -24.650  0.00  0.00    -0.080 HD
BRANCH   3  11
ATOM      9 CL   UNL     1      34.700 -11.004 -24.744  0.00  0.00    -0.080 Cl
ATOM     10 CL   UNL     1      33.183  -8.318 -23.855  0.00  0.00    -0.081 Cl
ATOM     11  C   UNL     1      32.996 -12.263 -23.056  0.00  0.00    +0.059 C 
ATOM     12  C   UNL     1      33.394 -11.041 -23.600  0.00  0.00    +0.081 C 
ATOM     13  C   UNL     1      31.948 -12.310 -22.137  0.00  0.00    +0.015 C 
ATOM     14  C   UNL     1      32.743  -9.866 -23.223  0.00  0.00    +0.069 C 
ATOM     15  C   UNL     1      31.298 -11.135 -21.761  0.00  0.00    +0.002 C 
ATOM     16  C   UNL     1      31.696  -9.913 -22.303  0.00  0.00    +0.012 C 
ENDBRANCH   3  11
ENDBRANCH   1   2
BRANCH   1  17
ATOM     17  C   UNL     1      35.869 -17.817 -23.168  0.00  0.00    -0.019 C 
BRANCH  17  18
ATOM     18  C   UNL     1      35.383 -19.255 -23.002  0.00  0.00    +0.045 C 
BRANCH  18  19
ATOM     19  C   UNL     1      35.090 -19.584 -21.544  0.00  0.00    +0.205 C 
BRANCH  19  20
ATOM     20  O   UNL     1      36.169 -20.327 -20.992  0.00  0.00    -0.475 OA
BRANCH  20  24
ATOM     21  O   UNL     1      34.962 -23.640 -16.738  0.00  0.00    -0.464 OA
ATOM     22  O   UNL     1      37.955 -23.234 -14.753  0.00  0.00    -0.271 OA
ATOM     23  N   UNL     1      37.435 -22.267 -16.773  0.00  0.00    -0.278 N 
ATOM     24  C   UNL     1      35.880 -21.136 -19.924  0.00  0.00    +0.140 C 
ATOM     25  C   UNL     1      36.801 -21.276 -18.886  0.00  0.00    +0.055 C 
ATOM     26  C   UNL     1      36.498 -22.096 -17.798  0.00  0.00    +0.088 C 
ATOM     27  C   UNL     1      34.666 -21.823 -19.879  0.00  0.00    +0.040 C 
ATOM     28  C   UNL     1      35.284 -22.780 -17.749  0.00  0.00    +0.153 C 
ATOM     29  C   UNL     1      34.370 -22.651 -18.795  0.00  0.00    +0.041 C 
ATOM     30  C   UNL     1      35.689 -23.428 -15.543  0.00  0.00    +0.290 C 
ATOM     31  C   UNL     1      37.143 -23.000 -15.647  0.00  0.00    +0.271 C 
ATOM     32  H   UNL     1      38.323 -21.852 -16.860  0.00  0.00    +0.155 HD
ENDBRANCH  20  24
ENDBRANCH  19  20
ENDBRANCH  18  19
ENDBRANCH  17  18
ENDBRANCH   1  17
TORSDOF 7
ENDMDL
MODEL 8
REMARK VINA RESULT:     -10.6      5.723      8.521
REMARK  Name = 46861612
REMARK  7 active torsions:
REMARK  status: ('A' for Active; 'I' for Inactive)
REMARK    1  A    between atoms: C_1  and  N_2
REMARK    2  A    between atoms: C_1  and  C_17
REMARK    3  A    between atoms: N_3  and  C_11
REMARK    4  A    between atoms: C_17  and  C_18
REMARK    5  A    between atoms: C_18  and  C_19
REMARK    6  A    between atoms: C_19  and  O_20
REMARK    7  A    between atoms: O_20  and  C_24
REMARK                            x       y       z     vdW  Elec       q    Type
REMARK                         _______ _______ _______ _____ _____    ______ ____
ROOT
ATOM      1  C   UNL     1      31.680  -9.302 -20.015  0.00  0.00    -0.077 C 
ENDROOT
BRANCH   1   2
ATOM      2  N   UNL     1      32.510  -8.574 -20.974  0.00  0.00    +0.389 N 
ATOM      3  N   UNL     1      33.037  -6.776 -23.130  0.00  0.00    -0.311 N 
ATOM      4  C   UNL     1      32.149  -8.938 -22.350  0.00  0.00    -0.055 C 
ATOM      5  C   UNL     1      32.363  -7.126 -20.786  0.00  0.00    -0.055 C 
ATOM      6  C   UNL     1      33.270  -6.351 -21.746  0.00  0.00    +0.068 C 
ATOM      7  C   UNL     1      33.050  -8.226 -23.361  0.00  0.00    +0.068 C 
ATOM      8  H   UNL     1      33.484  -8.830 -20.810  0.00  0.00    -0.080 HD
BRANCH   3  11
ATOM      9 CL   UNL     1      31.114  -4.570 -23.774  0.00  0.00    -0.080 Cl
ATOM     10 CL   UNL     1      32.084  -2.718 -26.210  0.00  0.00    -0.081 Cl
ATOM     11  C   UNL     1      33.415  -5.938 -24.186  0.00  0.00    +0.059 C 
ATOM     12  C   UNL     1      32.615  -4.871 -24.594  0.00  0.00    +0.081 C 
ATOM     13  C   UNL     1      34.623  -6.193 -24.834  0.00  0.00    +0.015 C 
ATOM     14  C   UNL     1      33.024  -4.058 -25.651  0.00  0.00    +0.069 C 
ATOM     15  C   UNL     1      35.033  -5.379 -25.890  0.00  0.00    +0.002 C 
ATOM     16  C   UNL     1      34.232  -4.312 -26.299  0.00  0.00    +0.012 C 
ENDBRANCH   3  11
ENDBRANCH   1   2
BRANCH   1  17
ATOM     17  C   UNL     1      32.518 -10.331 -19.260  0.00  0.00    -0.019 C 
BRANCH  17  18
ATOM     18  C   UNL     1      31.686 -11.555 -18.885  0.00  0.00    +0.045 C 
BRANCH  18  19
ATOM     19  C   UNL     1      31.847 -12.677 -19.903  0.00  0.00    +0.205 C 
BRANCH  19  20
ATOM     20  O   UNL     1      32.709 -12.255 -20.952  0.00  0.00    -0.475 OA
BRANCH  20  24
ATOM     21  O   UNL     1      35.113 -16.277 -23.880  0.00  0.00    -0.464 OA
ATOM     22  O   UNL     1      33.688 -15.624 -27.137  0.00  0.00    -0.271 OA
ATOM     23  N   UNL     1      33.328 -14.498 -25.165  0.00  0.00    -0.278 N 
ATOM     24  C   UNL     1      33.306 -13.240 -21.695  0.00  0.00    +0.140 C 
ATOM     25  C   UNL     1      33.022 -13.355 -23.056  0.00  0.00    +0.055 C 
ATOM     26  C   UNL     1      33.639 -14.356 -23.808  0.00  0.00    +0.088 C 
ATOM     27  C   UNL     1      34.192 -14.130 -21.088  0.00  0.00    +0.040 C 
ATOM     28  C   UNL     1      34.527 -15.244 -23.204  0.00  0.00    +0.153 C 
ATOM     29  C   UNL     1      34.799 -15.137 -21.840  0.00  0.00    +0.041 C 
ATOM     30  C   UNL     1      35.148 -16.105 -25.284  0.00  0.00    +0.290 C 
ATOM     31  C   UNL     1      33.973 -15.418 -25.959  0.00  0.00    +0.271 C 
ATOM     32  H   UNL     1      32.633 -13.925 -25.561  0.00  0.00    +0.155 HD
ENDBRANCH  20  24
ENDBRANCH  19  20
ENDBRANCH  18  19
ENDBRANCH  17  18
ENDBRANCH   1  17
TORSDOF 7
ENDMDL
MODEL 9
REMARK VINA RESULT:     -10.3      2.369      3.130
REMARK  Name = 46861612
REMARK  7 active torsions:
REMARK  status: ('A' for Active; 'I' for Inactive)
REMARK    1  A    between atoms: C_1  and  N_2
REMARK    2  A    between atoms: C_1  and  C_17
REMARK    3  A    between atoms: N_3  and  C_11
REMARK    4  A    between atoms: C_17  and  C_18
REMARK    5  A    between atoms: C_18  and  C_19
REMARK    6  A    between atoms: C_19  and  O_20
REMARK    7  A    between atoms: O_20  and  C_24
REMARK                            x       y       z     vdW  Elec       q    Type
REMARK                         _______ _______ _______ _____ _____    ______ ____
ROOT
ATOM      1  C   UNL     1      34.232 -14.944 -23.257  0.00  0.00    -0.077 C 
ENDROOT
BRANCH   1   2
ATOM      2  N   UNL     1      33.587 -13.663 -23.537  0.00  0.00    +0.389 N 
ATOM      3  N   UNL     1      33.248 -10.830 -23.406  0.00  0.00    -0.311 N 
ATOM      4  C   UNL     1      33.144 -13.025 -22.291  0.00  0.00    -0.055 C 
ATOM      5  C   UNL     1      34.504 -12.771 -24.256  0.00  0.00    -0.055 C 
ATOM      6  C   UNL     1      33.822 -11.446 -24.606  0.00  0.00    +0.068 C 
ATOM      7  C   UNL     1      32.416 -11.710 -22.576  0.00  0.00    +0.068 C 
ATOM      8  H   UNL     1      32.772 -13.840 -24.125  0.00  0.00    -0.080 HD
BRANCH   3  11
ATOM      9 CL   UNL     1      35.427  -9.065 -24.462  0.00  0.00    -0.080 Cl
ATOM     10 CL   UNL     1      34.674  -5.945 -24.388  0.00  0.00    -0.081 Cl
ATOM     11  C   UNL     1      32.968  -9.459 -23.396  0.00  0.00    +0.059 C 
ATOM     12  C   UNL     1      33.892  -8.521 -23.858  0.00  0.00    +0.081 C 
ATOM     13  C   UNL     1      31.731  -9.038 -22.909  0.00  0.00    +0.015 C 
ATOM     14  C   UNL     1      33.578  -7.162 -23.832  0.00  0.00    +0.069 C 
ATOM     15  C   UNL     1      31.417  -7.679 -22.884  0.00  0.00    +0.002 C 
ATOM     16  C   UNL     1      32.341  -6.741 -23.345  0.00  0.00    +0.012 C 
ENDBRANCH   3  11
ENDBRANCH   1   2
BRANCH   1  17
ATOM     17  C   UNL     1      34.638 -15.026 -21.787  0.00  0.00    -0.019 C 
BRANCH  17  18
ATOM     18  C   UNL     1      35.142 -16.422 -21.428  0.00  0.00    +0.045 C 
BRANCH  18  19
ATOM     19  C   UNL     1      35.766 -17.120 -22.629  0.00  0.00    +0.205 C 
BRANCH  19  20
ATOM     20  O   UNL     1      35.139 -18.380 -22.832  0.00  0.00    -0.475 OA
BRANCH  20  24
ATOM     21  O   UNL     1      35.745 -22.069 -18.764  0.00  0.00    -0.464 OA
ATOM     22  O   UNL     1      32.281 -22.866 -18.112  0.00  0.00    -0.271 OA
ATOM     23  N   UNL     1      33.147 -21.397 -19.655  0.00  0.00    -0.278 N 
ATOM     24  C   UNL     1      35.273 -19.306 -21.830  0.00  0.00    +0.140 C 
ATOM     25  C   UNL     1      34.139 -19.890 -21.265  0.00  0.00    +0.055 C 
ATOM     26  C   UNL     1      34.282 -20.837 -20.249  0.00  0.00    +0.088 C 
ATOM     27  C   UNL     1      36.542 -19.658 -21.372  0.00  0.00    +0.040 C 
ATOM     28  C   UNL     1      35.550 -21.193 -19.793  0.00  0.00    +0.153 C 
ATOM     29  C   UNL     1      36.683 -20.596 -20.349  0.00  0.00    +0.041 C 
ATOM     30  C   UNL     1      34.652 -22.934 -18.523  0.00  0.00    +0.290 C 
ATOM     31  C   UNL     1      33.245 -22.391 -18.709  0.00  0.00    +0.271 C 
ATOM     32  H   UNL     1      32.256 -21.073 -19.921  0.00  0.00    +0.155 HD
ENDBRANCH  20  24
ENDBRANCH  19  20
ENDBRANCH  18  19
ENDBRANCH  17  18
ENDBRANCH   1  17
TORSDOF 7
ENDMDL
