MODEL 1
REMARK VINA RESULT:     -11.5      0.000      0.000
REMARK  Name = 66571548
REMARK  8 active torsions:
REMARK  status: ('A' for Active; 'I' for Inactive)
REMARK    1  A    between atoms: C_2  and  C_10
REMARK    2  A    between atoms: C_2  and  C_22
REMARK    3  A    between atoms: N_3  and  C_15
REMARK    4  A    between atoms: C_15  and  C_18
REMARK    5  A    between atoms: C_18  and  O_19
REMARK    6  A    between atoms: C_25  and  N_28
REMARK    7  A    between atoms: C_29  and  C_31
REMARK    8  A    between atoms: C_31  and  C_34
REMARK                            x       y       z     vdW  Elec       q    Type
REMARK                         _______ _______ _______ _____ _____    ______ ____
ROOT
ATOM      1  O   UNL     1      36.941 -22.430 -18.245  0.00  0.00    -0.286 OA
ATOM      2  C   UNL     1      35.702 -22.369 -18.088  0.00  0.00    +0.199 C 
ENDROOT
BRANCH   2  10
ATOM      3  N   UNL     1      33.483 -23.596 -15.520  0.00  0.00    -0.261 N 
ATOM      4  N   UNL     1      34.824 -24.423 -13.695  0.00  0.00    -0.322 NA
ATOM      5  N   UNL     1      37.215 -24.198 -14.095  0.00  0.00    -0.170 NA
ATOM      6  N   UNL     1      36.393 -25.132 -12.113  0.00  0.00    -0.293 N 
ATOM      7  C   UNL     1      34.679 -23.861 -14.908  0.00  0.00    +0.201 C 
ATOM      8  C   UNL     1      33.713 -23.025 -16.745  0.00  0.00    +0.071 C 
ATOM      9  C   UNL     1      35.696 -23.449 -15.760  0.00  0.00    +0.069 C 
ATOM     10  C   UNL     1      35.077 -22.921 -16.920  0.00  0.00    +0.059 C 
ATOM     11  C   UNL     1      37.002 -23.637 -15.309  0.00  0.00    +0.116 C 
ATOM     12  C   UNL     1      36.127 -24.551 -13.375  0.00  0.00    +0.143 C 
ATOM     13  H   UNL     1      35.648 -25.414 -11.535  0.00  0.00    +0.155 HD
ATOM     14  H   UNL     1      37.322 -25.257 -11.814  0.00  0.00    +0.155 HD
BRANCH   3  15
ATOM     15  C   UNL     1      32.088 -23.887 -14.934  0.00  0.00    +0.091 C 
ATOM     16  C   UNL     1      31.744 -23.028 -13.694  0.00  0.00    +0.023 C 
ATOM     17  C   UNL     1      31.017 -23.579 -16.006  0.00  0.00    +0.023 C 
BRANCH  15  18
ATOM     18  C   UNL     1      31.974 -25.380 -14.534  0.00  0.00    +0.155 C 
BRANCH  18  19
ATOM     19  O   UNL     1      32.174 -25.543 -13.134  0.00  0.00    -0.380 OA
ATOM     20  H   UNL     1      31.383 -25.941 -12.738  0.00  0.00    +0.211 HD
ENDBRANCH  18  19
ENDBRANCH  15  18
ENDBRANCH   3  15
ENDBRANCH   2  10
BRANCH   2  22
ATOM     21  N   UNL     1      32.811 -21.284 -20.276  0.00  0.00    -0.241 NA
ATOM     22  C   UNL     1      34.932 -21.690 -19.188  0.00  0.00    +0.059 C 
ATOM     23  C   UNL     1      35.572 -20.873 -20.114  0.00  0.00    +0.021 C 
ATOM     24  C   UNL     1      33.563 -21.863 -19.312  0.00  0.00    +0.102 C 
ATOM     25  C   UNL     1      34.833 -20.261 -21.121  0.00  0.00    +0.070 C 
ATOM     26  C   UNL     1      33.468 -20.496 -21.157  0.00  0.00    +0.113 C 
BRANCH  25  28
ATOM     27  O   UNL     1      35.352 -17.304 -21.073  0.00  0.00    -0.274 OA
ATOM     28  N   UNL     1      35.447 -19.438 -22.062  0.00  0.00    -0.282 N 
ATOM     29  C   UNL     1      35.669 -18.052 -21.995  0.00  0.00    +0.232 C 
ATOM     30  H   UNL     1      35.765 -19.885 -22.879  0.00  0.00    +0.155 HD
BRANCH  29  31
ATOM     31  C   UNL     1      36.375 -17.547 -23.243  0.00  0.00    +0.131 C 
BRANCH  31  34
ATOM     32 CL   UNL     1      32.985 -13.976 -26.582  0.00  0.00    -0.081 Cl
ATOM     33  N   UNL     1      35.436 -15.364 -23.765  0.00  0.00    -0.247 NA
ATOM     34  C   UNL     1      35.508 -16.669 -24.108  0.00  0.00    +0.068 C 
ATOM     35  C   UNL     1      34.842 -17.225 -25.188  0.00  0.00    +0.016 C 
ATOM     36  C   UNL     1      34.051 -16.388 -25.966  0.00  0.00    +0.014 C 
ATOM     37  C   UNL     1      34.658 -14.580 -24.545  0.00  0.00    +0.110 C 
ATOM     38  C   UNL     1      33.951 -15.039 -25.645  0.00  0.00    +0.077 C 
ENDBRANCH  31  34
ENDBRANCH  29  31
ENDBRANCH  25  28
ENDBRANCH   2  22
TORSDOF 8
ENDMDL
MODEL 2
REMARK VINA RESULT:     -11.4      2.110      3.575
REMARK  Name = 66571548
REMARK  8 active torsions:
REMARK  status: ('A' for Active; 'I' for Inactive)
REMARK    1  A    between atoms: C_2  and  C_10
REMARK    2  A    between atoms: C_2  and  C_22
REMARK    3  A    between atoms: N_3  and  C_15
REMARK    4  A    between atoms: C_15  and  C_18
REMARK    5  A    between atoms: C_18  and  O_19
REMARK    6  A    between atoms: C_25  and  N_28
REMARK    7  A    between atoms: C_29  and  C_31
REMARK    8  A    between atoms: C_31  and  C_34
REMARK                            x       y       z     vdW  Elec       q    Type
REMARK                         _______ _______ _______ _____ _____    ______ ____
ROOT
ATOM      1  O   UNL     1      38.021 -20.976 -17.395  0.00  0.00    -0.286 OA
ATOM      2  C   UNL     1      37.087 -21.808 -17.415  0.00  0.00    +0.199 C 
ENDROOT
BRANCH   2  10
ATOM      3  N   UNL     1      37.502 -24.352 -14.890  0.00  0.00    -0.261 N 
ATOM      4  N   UNL     1      35.334 -24.857 -13.964  0.00  0.00    -0.322 NA
ATOM      5  N   UNL     1      33.543 -23.549 -14.970  0.00  0.00    -0.170 NA
ATOM      6  N   UNL     1      33.111 -25.114 -13.284  0.00  0.00    -0.293 N 
ATOM      7  C   UNL     1      36.145 -24.189 -14.802  0.00  0.00    +0.201 C 
ATOM      8  C   UNL     1      38.004 -23.507 -15.846  0.00  0.00    +0.071 C 
ATOM      9  C   UNL     1      35.770 -23.219 -15.724  0.00  0.00    +0.069 C 
ATOM     10  C   UNL     1      36.952 -22.793 -16.381  0.00  0.00    +0.059 C 
ATOM     11  C   UNL     1      34.412 -22.910 -15.788  0.00  0.00    +0.116 C 
ATOM     12  C   UNL     1      34.052 -24.470 -14.120  0.00  0.00    +0.143 C 
ATOM     13  H   UNL     1      33.411 -25.796 -12.641  0.00  0.00    +0.155 HD
ATOM     14  H   UNL     1      32.157 -24.880 -13.345  0.00  0.00    +0.155 HD
BRANCH   3  15
ATOM     15  C   UNL     1      38.347 -25.330 -14.050  0.00  0.00    +0.091 C 
ATOM     16  C   UNL     1      39.770 -25.561 -14.614  0.00  0.00    +0.023 C 
ATOM     17  C   UNL     1      38.516 -24.754 -12.625  0.00  0.00    +0.023 C 
BRANCH  15  18
ATOM     18  C   UNL     1      37.637 -26.704 -13.949  0.00  0.00    +0.155 C 
BRANCH  18  19
ATOM     19  O   UNL     1      37.044 -26.870 -12.665  0.00  0.00    -0.380 OA
ATOM     20  H   UNL     1      36.210 -27.358 -12.756  0.00  0.00    +0.211 HD
ENDBRANCH  18  19
ENDBRANCH  15  18
ENDBRANCH   3  15
ENDBRANCH   2  10
BRANCH   2  22
ATOM     21  N   UNL     1      34.182 -22.538 -19.728  0.00  0.00    -0.241 NA
ATOM     22  C   UNL     1      36.138 -21.703 -18.578  0.00  0.00    +0.059 C 
ATOM     23  C   UNL     1      36.306 -20.728 -19.556  0.00  0.00    +0.021 C 
ATOM     24  C   UNL     1      35.071 -22.576 -18.709  0.00  0.00    +0.102 C 
ATOM     25  C   UNL     1      35.413 -20.657 -20.620  0.00  0.00    +0.070 C 
ATOM     26  C   UNL     1      34.377 -21.576 -20.659  0.00  0.00    +0.113 C 
BRANCH  25  28
ATOM     27  O   UNL     1      37.802 -19.018 -21.408  0.00  0.00    -0.274 OA
ATOM     28  N   UNL     1      35.556 -19.692 -21.614  0.00  0.00    -0.282 N 
ATOM     29  C   UNL     1      36.701 -18.948 -21.948  0.00  0.00    +0.232 C 
ATOM     30  H   UNL     1      34.753 -19.508 -22.151  0.00  0.00    +0.155 HD
BRANCH  29  31
ATOM     31  C   UNL     1      36.423 -17.998 -23.102  0.00  0.00    +0.131 C 
BRANCH  31  34
ATOM     32 CL   UNL     1      33.289 -13.241 -21.389  0.00  0.00    -0.081 Cl
ATOM     33  N   UNL     1      35.341 -16.655 -21.386  0.00  0.00    -0.247 NA
ATOM     34  C   UNL     1      35.628 -16.783 -22.701  0.00  0.00    +0.068 C 
ATOM     35  C   UNL     1      35.237 -15.876 -23.672  0.00  0.00    +0.016 C 
ATOM     36  C   UNL     1      34.505 -14.765 -23.268  0.00  0.00    +0.014 C 
ATOM     37  C   UNL     1      34.628 -15.563 -21.031  0.00  0.00    +0.110 C 
ATOM     38  C   UNL     1      34.190 -14.598 -21.924  0.00  0.00    +0.077 C 
ENDBRANCH  31  34
ENDBRANCH  29  31
ENDBRANCH  25  28
ENDBRANCH   2  22
TORSDOF 8
ENDMDL
MODEL 3
REMARK VINA RESULT:     -11.3      3.936     10.943
REMARK  Name = 66571548
REMARK  8 active torsions:
REMARK  status: ('A' for Active; 'I' for Inactive)
REMARK    1  A    between atoms: C_2  and  C_10
REMARK    2  A    between atoms: C_2  and  C_22
REMARK    3  A    between atoms: N_3  and  C_15
REMARK    4  A    between atoms: C_15  and  C_18
REMARK    5  A    between atoms: C_18  and  O_19
REMARK    6  A    between atoms: C_25  and  N_28
REMARK    7  A    between atoms: C_29  and  C_31
REMARK    8  A    between atoms: C_31  and  C_34
REMARK                            x       y       z     vdW  Elec       q    Type
REMARK                         _______ _______ _______ _____ _____    ______ ____
ROOT
ATOM      1  O   UNL     1      37.207 -18.836 -22.986  0.00  0.00    -0.286 OA
ATOM      2  C   UNL     1      36.108 -18.552 -22.463  0.00  0.00    +0.199 C 
ENDROOT
BRANCH   2  10
ATOM      3  N   UNL     1      34.542 -15.302 -22.372  0.00  0.00    -0.261 N 
ATOM      4  N   UNL     1      33.967 -14.677 -24.629  0.00  0.00    -0.322 NA
ATOM      5  N   UNL     1      34.586 -16.368 -26.269  0.00  0.00    -0.170 NA
ATOM      6  N   UNL     1      33.543 -14.373 -26.909  0.00  0.00    -0.293 N 
ATOM      7  C   UNL     1      34.486 -15.523 -23.723  0.00  0.00    +0.201 C 
ATOM      8  C   UNL     1      35.138 -16.372 -21.757  0.00  0.00    +0.071 C 
ATOM      9  C   UNL     1      35.057 -16.765 -23.976  0.00  0.00    +0.069 C 
ATOM     10  C   UNL     1      35.467 -17.296 -22.727  0.00  0.00    +0.059 C 
ATOM     11  C   UNL     1      35.094 -17.175 -25.308  0.00  0.00    +0.116 C 
ATOM     12  C   UNL     1      34.062 -15.185 -25.874  0.00  0.00    +0.143 C 
ATOM     13  H   UNL     1      33.146 -13.498 -26.694  0.00  0.00    +0.155 HD
ATOM     14  H   UNL     1      33.579 -14.681 -27.842  0.00  0.00    +0.155 HD
BRANCH   3  15
ATOM     15  C   UNL     1      34.020 -14.048 -21.644  0.00  0.00    +0.091 C 
ATOM     16  C   UNL     1      32.914 -14.351 -20.604  0.00  0.00    +0.023 C 
ATOM     17  C   UNL     1      35.189 -13.386 -20.878  0.00  0.00    +0.023 C 
BRANCH  15  18
ATOM     18  C   UNL     1      33.456 -13.028 -22.666  0.00  0.00    +0.155 C 
BRANCH  18  19
ATOM     19  O   UNL     1      32.033 -13.006 -22.621  0.00  0.00    -0.380 OA
ATOM     20  H   UNL     1      31.738 -13.041 -21.698  0.00  0.00    +0.211 HD
ENDBRANCH  18  19
ENDBRANCH  15  18
ENDBRANCH   3  15
ENDBRANCH   2  10
BRANCH   2  22
ATOM     21  N   UNL     1      33.590 -20.872 -20.853  0.00  0.00    -0.241 NA
ATOM     22  C   UNL     1      35.521 -19.598 -21.556  0.00  0.00    +0.059 C 
ATOM     23  C   UNL     1      36.304 -20.249 -20.608  0.00  0.00    +0.021 C 
ATOM     24  C   UNL     1      34.181 -19.943 -21.637  0.00  0.00    +0.102 C 
ATOM     25  C   UNL     1      35.731 -21.211 -19.783  0.00  0.00    +0.070 C 
ATOM     26  C   UNL     1      34.382 -21.484 -19.944  0.00  0.00    +0.113 C 
BRANCH  25  28
ATOM     27  O   UNL     1      37.624 -20.140 -17.712  0.00  0.00    -0.274 OA
ATOM     28  N   UNL     1      36.490 -21.878 -18.824  0.00  0.00    -0.282 N 
ATOM     29  C   UNL     1      37.366 -21.330 -17.871  0.00  0.00    +0.232 C 
ATOM     30  H   UNL     1      36.402 -22.857 -18.814  0.00  0.00    +0.155 HD
BRANCH  29  31
ATOM     31  C   UNL     1      37.995 -22.418 -17.014  0.00  0.00    +0.131 C 
BRANCH  31  34
ATOM     32 CL   UNL     1      34.220 -24.629 -12.984  0.00  0.00    -0.081 Cl
ATOM     33  N   UNL     1      35.844 -23.372 -16.397  0.00  0.00    -0.247 NA
ATOM     34  C   UNL     1      37.063 -22.973 -15.970  0.00  0.00    +0.068 C 
ATOM     35  C   UNL     1      37.485 -23.047 -14.652  0.00  0.00    +0.016 C 
ATOM     36  C   UNL     1      36.600 -23.564 -13.713  0.00  0.00    +0.014 C 
ATOM     37  C   UNL     1      35.011 -23.870 -15.456  0.00  0.00    +0.110 C 
ATOM     38  C   UNL     1      35.337 -23.985 -14.114  0.00  0.00    +0.077 C 
ENDBRANCH  31  34
ENDBRANCH  29  31
ENDBRANCH  25  28
ENDBRANCH   2  22
TORSDOF 8
ENDMDL
MODEL 4
REMARK VINA RESULT:     -11.3      5.452     12.068
REMARK  Name = 66571548
REMARK  8 active torsions:
REMARK  status: ('A' for Active; 'I' for Inactive)
REMARK    1  A    between atoms: C_2  and  C_10
REMARK    2  A    between atoms: C_2  and  C_22
REMARK    3  A    between atoms: N_3  and  C_15
REMARK    4  A    between atoms: C_15  and  C_18
REMARK    5  A    between atoms: C_18  and  O_19
REMARK    6  A    between atoms: C_25  and  N_28
REMARK    7  A    between atoms: C_29  and  C_31
REMARK    8  A    between atoms: C_31  and  C_34
REMARK                            x       y       z     vdW  Elec       q    Type
REMARK                         _______ _______ _______ _____ _____    ______ ____
ROOT
ATOM      1  O   UNL     1      34.871 -11.569 -25.643  0.00  0.00    -0.286 OA
ATOM      2  C   UNL     1      34.195 -12.259 -24.849  0.00  0.00    +0.199 C 
ENDROOT
BRANCH   2  10
ATOM      3  N   UNL     1      32.439 -11.435 -21.806  0.00  0.00    -0.261 N 
ATOM      4  N   UNL     1      31.924  -9.079 -21.845  0.00  0.00    -0.322 NA
ATOM      5  N   UNL     1      32.709  -7.970 -23.865  0.00  0.00    -0.170 NA
ATOM      6  N   UNL     1      31.579  -6.792 -22.187  0.00  0.00    -0.293 N 
ATOM      7  C   UNL     1      32.453 -10.193 -22.382  0.00  0.00    +0.201 C 
ATOM      8  C   UNL     1      33.070 -12.330 -22.631  0.00  0.00    +0.071 C 
ATOM      9  C   UNL     1      33.106 -10.296 -23.605  0.00  0.00    +0.069 C 
ATOM     10  C   UNL     1      33.493 -11.651 -23.755  0.00  0.00    +0.059 C 
ATOM     11  C   UNL     1      33.222  -9.124 -24.351  0.00  0.00    +0.116 C 
ATOM     12  C   UNL     1      32.101  -8.019 -22.658  0.00  0.00    +0.143 C 
ATOM     13  H   UNL     1      31.123  -6.755 -21.315  0.00  0.00    +0.155 HD
ATOM     14  H   UNL     1      31.673  -5.977 -22.729  0.00  0.00    +0.155 HD
BRANCH   3  15
ATOM     15  C   UNL     1      31.815 -11.787 -20.441  0.00  0.00    +0.091 C 
ATOM     16  C   UNL     1      30.299 -11.486 -20.358  0.00  0.00    +0.023 C 
ATOM     17  C   UNL     1      31.988 -13.302 -20.184  0.00  0.00    +0.023 C 
BRANCH  15  18
ATOM     18  C   UNL     1      32.526 -11.006 -19.307  0.00  0.00    +0.155 C 
BRANCH  18  19
ATOM     19  O   UNL     1      31.920  -9.731 -19.118  0.00  0.00    -0.380 OA
ATOM     20  H   UNL     1      31.011  -9.849 -18.800  0.00  0.00    +0.211 HD
ENDBRANCH  18  19
ENDBRANCH  15  18
ENDBRANCH   3  15
ENDBRANCH   2  10
BRANCH   2  22
ATOM     21  N   UNL     1      33.322 -15.584 -26.430  0.00  0.00    -0.241 NA
ATOM     22  C   UNL     1      34.171 -13.739 -25.119  0.00  0.00    +0.059 C 
ATOM     23  C   UNL     1      34.929 -14.620 -24.355  0.00  0.00    +0.021 C 
ATOM     24  C   UNL     1      33.390 -14.267 -26.135  0.00  0.00    +0.102 C 
ATOM     25  C   UNL     1      34.884 -15.983 -24.628  0.00  0.00    +0.070 C 
ATOM     26  C   UNL     1      34.073 -16.411 -25.667  0.00  0.00    +0.113 C 
BRANCH  25  28
ATOM     27  O   UNL     1      35.099 -16.339 -21.655  0.00  0.00    -0.274 OA
ATOM     28  N   UNL     1      35.631 -16.890 -23.880  0.00  0.00    -0.282 N 
ATOM     29  C   UNL     1      35.699 -17.019 -22.482  0.00  0.00    +0.232 C 
ATOM     30  H   UNL     1      36.183 -17.520 -24.397  0.00  0.00    +0.155 HD
BRANCH  29  31
ATOM     31  C   UNL     1      36.641 -18.142 -22.079  0.00  0.00    +0.131 C 
BRANCH  31  34
ATOM     32 CL   UNL     1      34.050 -22.618 -19.140  0.00  0.00    -0.081 Cl
ATOM     33  N   UNL     1      36.727 -20.015 -20.528  0.00  0.00    -0.247 NA
ATOM     34  C   UNL     1      35.956 -19.268 -21.349  0.00  0.00    +0.068 C 
ATOM     35  C   UNL     1      34.601 -19.480 -21.548  0.00  0.00    +0.016 C 
ATOM     36  C   UNL     1      33.998 -20.527 -20.859  0.00  0.00    +0.014 C 
ATOM     37  C   UNL     1      36.107 -21.024 -19.875  0.00  0.00    +0.110 C 
ATOM     38  C   UNL     1      34.759 -21.319 -20.005  0.00  0.00    +0.077 C 
ENDBRANCH  31  34
ENDBRANCH  29  31
ENDBRANCH  25  28
ENDBRANCH   2  22
TORSDOF 8
ENDMDL
MODEL 5
REMARK VINA RESULT:     -11.1      2.493      3.609
REMARK  Name = 66571548
REMARK  8 active torsions:
REMARK  status: ('A' for Active; 'I' for Inactive)
REMARK    1  A    between atoms: C_2  and  C_10
REMARK    2  A    between atoms: C_2  and  C_22
REMARK    3  A    between atoms: N_3  and  C_15
REMARK    4  A    between atoms: C_15  and  C_18
REMARK    5  A    between atoms: C_18  and  O_19
REMARK    6  A    between atoms: C_25  and  N_28
REMARK    7  A    between atoms: C_29  and  C_31
REMARK    8  A    between atoms: C_31  and  C_34
REMARK                            x       y       z     vdW  Elec       q    Type
REMARK                         _______ _______ _______ _____ _____    ______ ____
ROOT
ATOM      1  O   UNL     1      38.409 -21.024 -16.839  0.00  0.00    -0.286 OA
ATOM      2  C   UNL     1      37.597 -21.968 -16.733  0.00  0.00    +0.199 C 
ENDROOT
BRANCH   2  10
ATOM      3  N   UNL     1      37.256 -24.079 -13.826  0.00  0.00    -0.261 N 
ATOM      4  N   UNL     1      39.112 -25.618 -13.789  0.00  0.00    -0.322 NA
ATOM      5  N   UNL     1      40.636 -25.312 -15.663  0.00  0.00    -0.170 NA
ATOM      6  N   UNL     1      41.014 -26.956 -14.039  0.00  0.00    -0.293 N 
ATOM      7  C   UNL     1      38.415 -24.605 -14.332  0.00  0.00    +0.201 C 
ATOM      8  C   UNL     1      36.822 -23.063 -14.637  0.00  0.00    +0.071 C 
ATOM      9  C   UNL     1      38.731 -23.907 -15.492  0.00  0.00    +0.069 C 
ATOM     10  C   UNL     1      37.718 -22.933 -15.678  0.00  0.00    +0.059 C 
ATOM     11  C   UNL     1      39.891 -24.298 -16.159  0.00  0.00    +0.116 C 
ATOM     12  C   UNL     1      40.206 -25.901 -14.524  0.00  0.00    +0.143 C 
ATOM     13  H   UNL     1      40.760 -27.430 -13.214  0.00  0.00    +0.155 HD
ATOM     14  H   UNL     1      41.828 -27.216 -14.526  0.00  0.00    +0.155 HD
BRANCH   3  15
ATOM     15  C   UNL     1      36.540 -24.548 -12.545  0.00  0.00    +0.091 C 
ATOM     16  C   UNL     1      34.996 -24.517 -12.651  0.00  0.00    +0.023 C 
ATOM     17  C   UNL     1      36.941 -26.012 -12.251  0.00  0.00    +0.023 C 
BRANCH  15  18
ATOM     18  C   UNL     1      36.960 -23.667 -11.341  0.00  0.00    +0.155 C 
BRANCH  18  19
ATOM     19  O   UNL     1      36.555 -24.265 -10.114  0.00  0.00    -0.380 OA
ATOM     20  H   UNL     1      36.458 -25.222 -10.238  0.00  0.00    +0.211 HD
ENDBRANCH  18  19
ENDBRANCH  15  18
ENDBRANCH   3  15
ENDBRANCH   2  10
BRANCH   2  22
ATOM     21  N   UNL     1      34.397 -22.942 -18.504  0.00  0.00    -0.241 NA
ATOM     22  C   UNL     1      36.507 -22.017 -17.769  0.00  0.00    +0.059 C 
ATOM     23  C   UNL     1      36.571 -21.232 -18.916  0.00  0.00    +0.021 C 
ATOM     24  C   UNL     1      35.410 -22.848 -17.612  0.00  0.00    +0.102 C 
ATOM     25  C   UNL     1      35.549 -21.301 -19.856  0.00  0.00    +0.070 C 
ATOM     26  C   UNL     1      34.494 -22.163 -19.605  0.00  0.00    +0.113 C 
BRANCH  25  28
ATOM     27  O   UNL     1      37.475 -19.159 -20.702  0.00  0.00    -0.274 OA
ATOM     28  N   UNL     1      35.586 -20.528 -21.014  0.00  0.00    -0.282 N 
ATOM     29  C   UNL     1      36.513 -19.532 -21.368  0.00  0.00    +0.232 C 
ATOM     30  H   UNL     1      34.871 -20.700 -21.668  0.00  0.00    +0.155 HD
BRANCH  29  31
ATOM     31  C   UNL     1      36.185 -18.933 -22.726  0.00  0.00    +0.131 C 
BRANCH  31  34
ATOM     32 CL   UNL     1      34.042 -13.401 -22.282  0.00  0.00    -0.081 Cl
ATOM     33  N   UNL     1      35.371 -17.054 -21.412  0.00  0.00    -0.247 NA
ATOM     34  C   UNL     1      35.644 -17.529 -22.648  0.00  0.00    +0.068 C 
ATOM     35  C   UNL     1      35.454 -16.807 -23.815  0.00  0.00    +0.016 C 
ATOM     36  C   UNL     1      34.954 -15.515 -23.708  0.00  0.00    +0.014 C 
ATOM     37  C   UNL     1      34.886 -15.794 -21.346  0.00  0.00    +0.110 C 
ATOM     38  C   UNL     1      34.661 -14.991 -22.453  0.00  0.00    +0.077 C 
ENDBRANCH  31  34
ENDBRANCH  29  31
ENDBRANCH  25  28
ENDBRANCH   2  22
TORSDOF 8
ENDMDL
MODEL 6
REMARK VINA RESULT:     -11.1      5.439     12.213
REMARK  Name = 66571548
REMARK  8 active torsions:
REMARK  status: ('A' for Active; 'I' for Inactive)
REMARK    1  A    between atoms: C_2  and  C_10
REMARK    2  A    between atoms: C_2  and  C_22
REMARK    3  A    between atoms: N_3  and  C_15
REMARK    4  A    between atoms: C_15  and  C_18
REMARK    5  A    between atoms: C_18  and  O_19
REMARK    6  A    between atoms: C_25  and  N_28
REMARK    7  A    between atoms: C_29  and  C_31
REMARK    8  A    between atoms: C_31  and  C_34
REMARK                            x       y       z     vdW  Elec       q    Type
REMARK                         _______ _______ _______ _____ _____    ______ ____
ROOT
ATOM      1  O   UNL     1      34.874 -11.494 -25.976  0.00  0.00    -0.286 OA
ATOM      2  C   UNL     1      34.248 -12.026 -25.033  0.00  0.00    +0.199 C 
ENDROOT
BRANCH   2  10
ATOM      3  N   UNL     1      32.912  -9.439 -22.901  0.00  0.00    -0.261 N 
ATOM      4  N   UNL     1      31.976 -10.486 -20.941  0.00  0.00    -0.322 NA
ATOM      5  N   UNL     1      32.197 -12.911 -20.962  0.00  0.00    -0.170 NA
ATOM      6  N   UNL     1      31.168 -11.795 -19.180  0.00  0.00    -0.293 N 
ATOM      7  C   UNL     1      32.602 -10.528 -22.129  0.00  0.00    +0.201 C 
ATOM      8  C   UNL     1      33.544  -9.854 -24.045  0.00  0.00    +0.071 C 
ATOM      9  C   UNL     1      33.047 -11.664 -22.794  0.00  0.00    +0.069 C 
ATOM     10  C   UNL     1      33.643 -11.229 -24.005  0.00  0.00    +0.059 C 
ATOM     11  C   UNL     1      32.823 -12.886 -22.161  0.00  0.00    +0.116 C 
ATOM     12  C   UNL     1      31.817 -11.725 -20.434  0.00  0.00    +0.143 C 
ATOM     13  H   UNL     1      30.864 -10.970 -18.737  0.00  0.00    +0.155 HD
ATOM     14  H   UNL     1      31.018 -12.668 -18.751  0.00  0.00    +0.155 HD
BRANCH   3  15
ATOM     15  C   UNL     1      32.605  -7.971 -22.549  0.00  0.00    +0.091 C 
ATOM     16  C   UNL     1      33.742  -6.992 -22.928  0.00  0.00    +0.023 C 
ATOM     17  C   UNL     1      31.346  -7.520 -23.326  0.00  0.00    +0.023 C 
BRANCH  15  18
ATOM     18  C   UNL     1      32.329  -7.828 -21.031  0.00  0.00    +0.155 C 
BRANCH  18  19
ATOM     19  O   UNL     1      33.548  -7.699 -20.308  0.00  0.00    -0.380 OA
ATOM     20  H   UNL     1      33.543  -8.309 -19.553  0.00  0.00    +0.211 HD
ENDBRANCH  18  19
ENDBRANCH  15  18
ENDBRANCH   3  15
ENDBRANCH   2  10
BRANCH   2  22
ATOM     21  N   UNL     1      33.331 -15.542 -26.090  0.00  0.00    -0.241 NA
ATOM     22  C   UNL     1      34.180 -13.528 -25.055  0.00  0.00    +0.059 C 
ATOM     23  C   UNL     1      34.859 -14.291 -24.110  0.00  0.00    +0.021 C 
ATOM     24  C   UNL     1      33.436 -14.196 -26.015  0.00  0.00    +0.102 C 
ATOM     25  C   UNL     1      34.774 -15.679 -24.155  0.00  0.00    +0.070 C 
ATOM     26  C   UNL     1      34.005 -16.250 -25.156  0.00  0.00    +0.113 C 
BRANCH  25  28
ATOM     27  O   UNL     1      35.349 -18.626 -24.160  0.00  0.00    -0.274 OA
ATOM     28  N   UNL     1      35.442 -16.469 -23.222  0.00  0.00    -0.282 N 
ATOM     29  C   UNL     1      35.689 -17.852 -23.269  0.00  0.00    +0.232 C 
ATOM     30  H   UNL     1      35.785 -15.999 -22.429  0.00  0.00    +0.155 HD
BRANCH  29  31
ATOM     31  C   UNL     1      36.455 -18.316 -22.040  0.00  0.00    +0.131 C 
BRANCH  31  34
ATOM     32 CL   UNL     1      33.856 -22.730 -19.015  0.00  0.00    -0.081 Cl
ATOM     33  N   UNL     1      36.552 -20.212 -20.519  0.00  0.00    -0.247 NA
ATOM     34  C   UNL     1      35.767 -19.424 -21.287  0.00  0.00    +0.068 C 
ATOM     35  C   UNL     1      34.396 -19.582 -21.413  0.00  0.00    +0.016 C 
ATOM     36  C   UNL     1      33.792 -20.615 -20.705  0.00  0.00    +0.014 C 
ATOM     37  C   UNL     1      35.930 -21.205 -19.845  0.00  0.00    +0.110 C 
ATOM     38  C   UNL     1      34.567 -21.447 -19.903  0.00  0.00    +0.077 C 
ENDBRANCH  31  34
ENDBRANCH  29  31
ENDBRANCH  25  28
ENDBRANCH   2  22
TORSDOF 8
ENDMDL
MODEL 7
REMARK VINA RESULT:     -11.1      3.869     11.226
REMARK  Name = 66571548
REMARK  8 active torsions:
REMARK  status: ('A' for Active; 'I' for Inactive)
REMARK    1  A    between atoms: C_2  and  C_10
REMARK    2  A    between atoms: C_2  and  C_22
REMARK    3  A    between atoms: N_3  and  C_15
REMARK    4  A    between atoms: C_15  and  C_18
REMARK    5  A    between atoms: C_18  and  O_19
REMARK    6  A    between atoms: C_25  and  N_28
REMARK    7  A    between atoms: C_29  and  C_31
REMARK    8  A    between atoms: C_31  and  C_34
REMARK                            x       y       z     vdW  Elec       q    Type
REMARK                         _______ _______ _______ _____ _____    ______ ____
ROOT
ATOM      1  O   UNL     1      35.434 -19.159 -24.624  0.00  0.00    -0.286 OA
ATOM      2  C   UNL     1      35.435 -18.418 -23.617  0.00  0.00    +0.199 C 
ENDROOT
BRANCH   2  10
ATOM      3  N   UNL     1      34.340 -15.027 -23.049  0.00  0.00    -0.261 N 
ATOM      4  N   UNL     1      33.657 -14.090 -25.164  0.00  0.00    -0.322 NA
ATOM      5  N   UNL     1      33.892 -15.654 -27.015  0.00  0.00    -0.170 NA
ATOM      6  N   UNL     1      33.077 -13.485 -27.346  0.00  0.00    -0.293 N 
ATOM      7  C   UNL     1      34.135 -15.090 -24.402  0.00  0.00    +0.201 C 
ATOM      8  C   UNL     1      34.837 -16.225 -22.605  0.00  0.00    +0.071 C 
ATOM      9  C   UNL     1      34.507 -16.357 -24.832  0.00  0.00    +0.069 C 
ATOM     10  C   UNL     1      34.950 -17.070 -23.690  0.00  0.00    +0.059 C 
ATOM     11  C   UNL     1      34.368 -16.620 -26.195  0.00  0.00    +0.116 C 
ATOM     12  C   UNL     1      33.571 -14.466 -26.455  0.00  0.00    +0.143 C 
ATOM     13  H   UNL     1      32.823 -12.596 -27.007  0.00  0.00    +0.155 HD
ATOM     14  H   UNL     1      32.987 -13.691 -28.305  0.00  0.00    +0.155 HD
BRANCH   3  15
ATOM     15  C   UNL     1      34.060 -13.805 -22.152  0.00  0.00    +0.091 C 
ATOM     16  C   UNL     1      32.570 -13.652 -21.761  0.00  0.00    +0.023 C 
ATOM     17  C   UNL     1      34.858 -13.953 -20.836  0.00  0.00    +0.023 C 
BRANCH  15  18
ATOM     18  C   UNL     1      34.510 -12.503 -22.862  0.00  0.00    +0.155 C 
BRANCH  18  19
ATOM     19  O   UNL     1      33.394 -11.832 -23.439  0.00  0.00    -0.380 OA
ATOM     20  H   UNL     1      33.374 -12.002 -24.394  0.00  0.00    +0.211 HD
ENDBRANCH  18  19
ENDBRANCH  15  18
ENDBRANCH   3  15
ENDBRANCH   2  10
BRANCH   2  22
ATOM     21  N   UNL     1      37.681 -19.073 -20.642  0.00  0.00    -0.241 NA
ATOM     22  C   UNL     1      35.971 -19.030 -22.351  0.00  0.00    +0.059 C 
ATOM     23  C   UNL     1      35.306 -20.078 -21.722  0.00  0.00    +0.021 C 
ATOM     24  C   UNL     1      37.144 -18.569 -21.776  0.00  0.00    +0.102 C 
ATOM     25  C   UNL     1      35.828 -20.624 -20.554  0.00  0.00    +0.070 C 
ATOM     26  C   UNL     1      37.007 -20.090 -20.059  0.00  0.00    +0.113 C 
BRANCH  25  28
ATOM     27  O   UNL     1      32.974 -20.901 -19.662  0.00  0.00    -0.274 OA
ATOM     28  N   UNL     1      35.184 -21.674 -19.903  0.00  0.00    -0.282 N 
ATOM     29  C   UNL     1      33.839 -21.758 -19.505  0.00  0.00    +0.232 C 
ATOM     30  H   UNL     1      35.743 -22.456 -19.696  0.00  0.00    +0.155 HD
BRANCH  29  31
ATOM     31  C   UNL     1      33.550 -23.086 -18.822  0.00  0.00    +0.131 C 
BRANCH  31  34
ATOM     32 CL   UNL     1      36.058 -23.497 -13.443  0.00  0.00    -0.081 Cl
ATOM     33  N   UNL     1      35.487 -22.990 -17.353  0.00  0.00    -0.247 NA
ATOM     34  C   UNL     1      34.155 -23.197 -17.447  0.00  0.00    +0.068 C 
ATOM     35  C   UNL     1      33.339 -23.500 -16.369  0.00  0.00    +0.016 C 
ATOM     36  C   UNL     1      33.928 -23.595 -15.113  0.00  0.00    +0.014 C 
ATOM     37  C   UNL     1      36.025 -23.091 -16.117  0.00  0.00    +0.110 C 
ATOM     38  C   UNL     1      35.297 -23.389 -14.976  0.00  0.00    +0.077 C 
ENDBRANCH  31  34
ENDBRANCH  29  31
ENDBRANCH  25  28
ENDBRANCH   2  22
TORSDOF 8
ENDMDL
MODEL 8
REMARK VINA RESULT:     -10.6      3.988     10.004
REMARK  Name = 66571548
REMARK  8 active torsions:
REMARK  status: ('A' for Active; 'I' for Inactive)
REMARK    1  A    between atoms: C_2  and  C_10
REMARK    2  A    between atoms: C_2  and  C_22
REMARK    3  A    between atoms: N_3  and  C_15
REMARK    4  A    between atoms: C_15  and  C_18
REMARK    5  A    between atoms: C_18  and  O_19
REMARK    6  A    between atoms: C_25  and  N_28
REMARK    7  A    between atoms: C_29  and  C_31
REMARK    8  A    between atoms: C_31  and  C_34
REMARK                            x       y       z     vdW  Elec       q    Type
REMARK                         _______ _______ _______ _____ _____    ______ ____
ROOT
ATOM      1  O   UNL     1      34.300 -23.841 -20.090  0.00  0.00    -0.286 OA
ATOM      2  C   UNL     1      34.445 -22.860 -19.329  0.00  0.00    +0.199 C 
ENDROOT
BRANCH   2  10
ATOM      3  N   UNL     1      35.967 -20.010 -20.936  0.00  0.00    -0.261 N 
ATOM      4  N   UNL     1      37.759 -19.218 -19.531  0.00  0.00    -0.322 NA
ATOM      5  N   UNL     1      38.021 -20.530 -17.497  0.00  0.00    -0.170 NA
ATOM      6  N   UNL     1      39.412 -18.706 -17.959  0.00  0.00    -0.293 N 
ATOM      7  C   UNL     1      36.750 -20.060 -19.814  0.00  0.00    +0.201 C 
ATOM      8  C   UNL     1      35.039 -21.018 -20.892  0.00  0.00    +0.071 C 
ATOM      9  C   UNL     1      36.314 -21.126 -19.036  0.00  0.00    +0.069 C 
ATOM     10  C   UNL     1      35.231 -21.727 -19.725  0.00  0.00    +0.059 C 
ATOM     11  C   UNL     1      36.995 -21.344 -17.838  0.00  0.00    +0.116 C 
ATOM     12  C   UNL     1      38.334 -19.531 -18.353  0.00  0.00    +0.143 C 
ATOM     13  H   UNL     1      39.695 -17.958 -18.534  0.00  0.00    +0.155 HD
ATOM     14  H   UNL     1      39.879 -18.876 -17.110  0.00  0.00    +0.155 HD
BRANCH   3  15
ATOM     15  C   UNL     1      36.098 -18.985 -22.080  0.00  0.00    +0.091 C 
ATOM     16  C   UNL     1      37.549 -18.806 -22.587  0.00  0.00    +0.023 C 
ATOM     17  C   UNL     1      35.257 -19.465 -23.285  0.00  0.00    +0.023 C 
BRANCH  15  18
ATOM     18  C   UNL     1      35.570 -17.601 -21.625  0.00  0.00    +0.155 C 
BRANCH  18  19
ATOM     19  O   UNL     1      35.393 -16.738 -22.743  0.00  0.00    -0.380 OA
ATOM     20  H   UNL     1      34.473 -16.431 -22.772  0.00  0.00    +0.211 HD
ENDBRANCH  18  19
ENDBRANCH  15  18
ENDBRANCH   3  15
ENDBRANCH   2  10
BRANCH   2  22
ATOM     21  N   UNL     1      31.696 -22.863 -16.729  0.00  0.00    -0.241 NA
ATOM     22  C   UNL     1      33.752 -22.954 -17.997  0.00  0.00    +0.059 C 
ATOM     23  C   UNL     1      34.469 -23.202 -16.830  0.00  0.00    +0.021 C 
ATOM     24  C   UNL     1      32.380 -22.793 -17.893  0.00  0.00    +0.102 C 
ATOM     25  C   UNL     1      33.800 -23.281 -15.614  0.00  0.00    +0.070 C 
ATOM     26  C   UNL     1      32.426 -23.106 -15.617  0.00  0.00    +0.113 C 
BRANCH  25  28
ATOM     27  O   UNL     1      33.062 -24.977 -13.249  0.00  0.00    -0.274 OA
ATOM     28  N   UNL     1      34.491 -23.527 -14.430  0.00  0.00    -0.282 N 
ATOM     29  C   UNL     1      34.103 -24.334 -13.346  0.00  0.00    +0.232 C 
ATOM     30  H   UNL     1      35.362 -23.078 -14.340  0.00  0.00    +0.155 HD
BRANCH  29  31
ATOM     31  C   UNL     1      35.157 -24.326 -12.250  0.00  0.00    +0.131 C 
BRANCH  31  34
ATOM     32 CL   UNL     1      40.500 -26.014 -14.247  0.00  0.00    -0.081 Cl
ATOM     33  N   UNL     1      36.570 -25.502 -13.843  0.00  0.00    -0.247 NA
ATOM     34  C   UNL     1      36.525 -24.737 -12.730  0.00  0.00    +0.068 C 
ATOM     35  C   UNL     1      37.644 -24.323 -12.026  0.00  0.00    +0.016 C 
ATOM     36  C   UNL     1      38.891 -24.719 -12.496  0.00  0.00    +0.014 C 
ATOM     37  C   UNL     1      37.800 -25.868 -14.270  0.00  0.00    +0.110 C 
ATOM     38  C   UNL     1      38.980 -25.507 -13.638  0.00  0.00    +0.077 C 
ENDBRANCH  31  34
ENDBRANCH  29  31
ENDBRANCH  25  28
ENDBRANCH   2  22
TORSDOF 8
ENDMDL
MODEL 9
REMARK VINA RESULT:     -10.3      1.760      3.289
REMARK  Name = 66571548
REMARK  8 active torsions:
REMARK  status: ('A' for Active; 'I' for Inactive)
REMARK    1  A    between atoms: C_2  and  C_10
REMARK    2  A    between atoms: C_2  and  C_22
REMARK    3  A    between atoms: N_3  and  C_15
REMARK    4  A    between atoms: C_15  and  C_18
REMARK    5  A    between atoms: C_18  and  O_19
REMARK    6  A    between atoms: C_25  and  N_28
REMARK    7  A    between atoms: C_29  and  C_31
REMARK    8  A    between atoms: C_31  and  C_34
REMARK                            x       y       z     vdW  Elec       q    Type
REMARK                         _______ _______ _______ _____ _____    ______ ____
ROOT
ATOM      1  O   UNL     1      38.059 -21.811 -16.799  0.00  0.00    -0.286 OA
ATOM      2  C   UNL     1      36.909 -22.299 -16.780  0.00  0.00    +0.199 C 
ENDROOT
BRANCH   2  10
ATOM      3  N   UNL     1      36.440 -24.119 -13.699  0.00  0.00    -0.261 N 
ATOM      4  N   UNL     1      34.088 -24.592 -13.452  0.00  0.00    -0.322 NA
ATOM      5  N   UNL     1      32.749 -23.735 -15.296  0.00  0.00    -0.170 NA
ATOM      6  N   UNL     1      31.769 -24.889 -13.510  0.00  0.00    -0.293 N 
ATOM      7  C   UNL     1      35.135 -24.069 -14.113  0.00  0.00    +0.201 C 
ATOM      8  C   UNL     1      37.236 -23.483 -14.616  0.00  0.00    +0.071 C 
ATOM      9  C   UNL     1      35.097 -23.386 -15.323  0.00  0.00    +0.069 C 
ATOM     10  C   UNL     1      36.430 -23.019 -15.635  0.00  0.00    +0.059 C 
ATOM     11  C   UNL     1      33.843 -23.230 -15.913  0.00  0.00    +0.116 C 
ATOM     12  C   UNL     1      32.937 -24.376 -14.120  0.00  0.00    +0.143 C 
ATOM     13  H   UNL     1      31.833 -25.367 -12.652  0.00  0.00    +0.155 HD
ATOM     14  H   UNL     1      30.894 -24.767 -13.943  0.00  0.00    +0.155 HD
BRANCH   3  15
ATOM     15  C   UNL     1      36.948 -24.786 -12.406  0.00  0.00    +0.091 C 
ATOM     16  C   UNL     1      37.279 -26.289 -12.572  0.00  0.00    +0.023 C 
ATOM     17  C   UNL     1      38.251 -24.085 -11.957  0.00  0.00    +0.023 C 
BRANCH  15  18
ATOM     18  C   UNL     1      35.894 -24.644 -11.278  0.00  0.00    +0.155 C 
BRANCH  18  19
ATOM     19  O   UNL     1      36.523 -24.352 -10.035  0.00  0.00    -0.380 OA
ATOM     20  H   UNL     1      36.091 -23.585  -9.627  0.00  0.00    +0.211 HD
ENDBRANCH  18  19
ENDBRANCH  15  18
ENDBRANCH   3  15
ENDBRANCH   2  10
BRANCH   2  22
ATOM     21  N   UNL     1      34.063 -22.557 -19.260  0.00  0.00    -0.241 NA
ATOM     22  C   UNL     1      36.082 -22.084 -18.018  0.00  0.00    +0.059 C 
ATOM     23  C   UNL     1      36.527 -21.255 -19.043  0.00  0.00    +0.021 C 
ATOM     24  C   UNL     1      34.855 -22.707 -18.175  0.00  0.00    +0.102 C 
ATOM     25  C   UNL     1      35.740 -21.077 -20.176  0.00  0.00    +0.070 C 
ATOM     26  C   UNL     1      34.527 -21.744 -20.235  0.00  0.00    +0.113 C 
BRANCH  25  28
ATOM     27  O   UNL     1      34.143 -19.512 -22.180  0.00  0.00    -0.274 OA
ATOM     28  N   UNL     1      36.159 -20.253 -21.219  0.00  0.00    -0.282 N 
ATOM     29  C   UNL     1      35.370 -19.537 -22.135  0.00  0.00    +0.232 C 
ATOM     30  H   UNL     1      37.133 -20.162 -21.327  0.00  0.00    +0.155 HD
BRANCH  29  31
ATOM     31  C   UNL     1      36.234 -18.759 -23.115  0.00  0.00    +0.131 C 
BRANCH  31  34
ATOM     32 CL   UNL     1      33.388 -14.242 -25.738  0.00  0.00    -0.081 Cl
ATOM     33  N   UNL     1      34.981 -17.812 -24.973  0.00  0.00    -0.247 NA
ATOM     34  C   UNL     1      35.520 -17.596 -23.752  0.00  0.00    +0.068 C 
ATOM     35  C   UNL     1      35.451 -16.389 -23.076  0.00  0.00    +0.016 C 
ATOM     36  C   UNL     1      34.785 -15.335 -23.692  0.00  0.00    +0.014 C 
ATOM     37  C   UNL     1      34.342 -16.765 -25.541  0.00  0.00    +0.110 C 
ATOM     38  C   UNL     1      34.217 -15.518 -24.948  0.00  0.00    +0.077 C 
ENDBRANCH  31  34
ENDBRANCH  29  31
ENDBRANCH  25  28
ENDBRANCH   2  22
TORSDOF 8
ENDMDL
