MODEL 1
REMARK VINA RESULT:     -11.6      0.000      0.000
REMARK  Name = 656913
REMARK  7 active torsions:
REMARK  status: ('A' for Active; 'I' for Inactive)
REMARK    1  A    between atoms: N_3  and  C_22
REMARK    2  A    between atoms: N_4  and  C_11
REMARK    3  A    between atoms: C_11  and  C_14
REMARK    4  A    between atoms: C_14  and  C_17
REMARK    5  A    between atoms: C_22  and  C_25
REMARK    6  A    between atoms: N_24  and  C_27
REMARK    7  A    between atoms: C_27  and  C_29
REMARK                            x       y       z     vdW  Elec       q    Type
REMARK                         _______ _______ _______ _____ _____    ______ ____
ROOT
ATOM      1 CL   UNL     1      33.158 -13.411 -26.960  0.00  0.00    -0.064 Cl
ATOM      2  O   UNL     1      35.329 -14.257 -22.507  0.00  0.00    -0.266 OA
ATOM      3  N   UNL     1      34.314 -13.825 -24.576  0.00  0.00    -0.233 N 
ATOM      4  N   UNL     1      35.490 -16.913 -22.920  0.00  0.00    -0.310 N 
ATOM      5  N   UNL     1      34.480 -16.601 -25.011  0.00  0.00    -0.223 NA
ATOM      6  C   UNL     1      34.936 -16.118 -23.890  0.00  0.00    +0.183 C 
ATOM      7  C   UNL     1      34.879 -14.627 -23.585  0.00  0.00    +0.285 C 
ATOM      8  C   UNL     1      33.853 -14.409 -25.740  0.00  0.00    +0.133 C 
ATOM      9  C   UNL     1      33.946 -15.730 -25.917  0.00  0.00    +0.127 C 
ATOM     10  H   UNL     1      35.818 -16.494 -22.091  0.00  0.00    +0.149 HD
ENDROOT
BRANCH   4  11
ATOM     11  C   UNL     1      35.608 -18.329 -23.070  0.00  0.00    +0.162 C 
BRANCH  11  14
ATOM     12  F   UNL     1      36.659 -17.916 -21.011  0.00  0.00    -0.196 F 
ATOM     13  F   UNL     1      37.427 -19.546 -22.220  0.00  0.00    -0.196 F 
ATOM     14  C   UNL     1      36.268 -18.936 -21.832  0.00  0.00    +0.317 C 
BRANCH  14  17
ATOM     15  O   UNL     1      37.135 -20.832 -20.030  0.00  0.00    -0.163 OA
ATOM     16  N   UNL     1      35.881 -20.794 -20.260  0.00  0.00    -0.128 N 
ATOM     17  C   UNL     1      35.331 -19.894 -21.138  0.00  0.00    +0.142 C 
ATOM     18  C   UNL     1      33.974 -19.842 -21.394  0.00  0.00    +0.022 C 
ATOM     19  C   UNL     1      35.038 -21.679 -19.615  0.00  0.00    +0.121 C 
ATOM     20  C   UNL     1      33.134 -20.737 -20.739  0.00  0.00    +0.003 C 
ATOM     21  C   UNL     1      33.666 -21.660 -19.845  0.00  0.00    +0.022 C 
ENDBRANCH  14  17
ENDBRANCH  11  14
ENDBRANCH   4  11
BRANCH   3  22
ATOM     22  C   UNL     1      34.223 -12.386 -24.355  0.00  0.00    +0.184 C 
BRANCH  22  25
ATOM     23  O   UNL     1      32.399 -12.967 -22.881  0.00  0.00    -0.273 OA
ATOM     24  N   UNL     1      32.896 -10.725 -23.241  0.00  0.00    -0.299 N 
ATOM     25  C   UNL     1      33.085 -12.090 -23.401  0.00  0.00    +0.243 C 
ATOM     26  H   UNL     1      33.509 -10.111 -23.707  0.00  0.00    +0.150 HD
BRANCH  24  27
ATOM     27  C   UNL     1      31.846 -10.160 -22.424  0.00  0.00    +0.119 C 
BRANCH  27  29
ATOM     28  F   UNL     1      33.084  -8.868 -20.236  0.00  0.00    -0.204 F 
ATOM     29  C   UNL     1      31.960  -8.666 -22.317  0.00  0.00    +0.025 C 
ATOM     30  C   UNL     1      32.583  -8.098 -21.212  0.00  0.00    +0.138 C 
ATOM     31  C   UNL     1      31.439  -7.867 -23.328  0.00  0.00    -0.000 C 
ATOM     32  C   UNL     1      32.686  -6.711 -21.116  0.00  0.00    +0.029 C 
ATOM     33  C   UNL     1      31.544  -6.480 -23.232  0.00  0.00    -0.000 C 
ATOM     34  C   UNL     1      32.167  -5.902 -22.126  0.00  0.00    +0.002 C 
ENDBRANCH  27  29
ENDBRANCH  24  27
ENDBRANCH  22  25
ENDBRANCH   3  22
TORSDOF 7
ENDMDL
MODEL 2
REMARK VINA RESULT:     -11.5      3.475      4.847
REMARK  Name = 656913
REMARK  7 active torsions:
REMARK  status: ('A' for Active; 'I' for Inactive)
REMARK    1  A    between atoms: N_3  and  C_22
REMARK    2  A    between atoms: N_4  and  C_11
REMARK    3  A    between atoms: C_11  and  C_14
REMARK    4  A    between atoms: C_14  and  C_17
REMARK    5  A    between atoms: C_22  and  C_25
REMARK    6  A    between atoms: N_24  and  C_27
REMARK    7  A    between atoms: C_27  and  C_29
REMARK                            x       y       z     vdW  Elec       q    Type
REMARK                         _______ _______ _______ _____ _____    ______ ____
ROOT
ATOM      1 CL   UNL     1      30.710 -11.141 -20.023  0.00  0.00    -0.064 Cl
ATOM      2  O   UNL     1      33.440 -10.982 -24.239  0.00  0.00    -0.266 OA
ATOM      3  N   UNL     1      32.154 -11.021 -22.279  0.00  0.00    -0.233 N 
ATOM      4  N   UNL     1      34.489 -13.429 -23.832  0.00  0.00    -0.310 N 
ATOM      5  N   UNL     1      33.247 -13.578 -21.850  0.00  0.00    -0.223 NA
ATOM      6  C   UNL     1      33.603 -12.920 -22.916  0.00  0.00    +0.183 C 
ATOM      7  C   UNL     1      33.053 -11.532 -23.215  0.00  0.00    +0.285 C 
ATOM      8  C   UNL     1      31.823 -11.778 -21.173  0.00  0.00    +0.133 C 
ATOM      9  C   UNL     1      32.359 -12.990 -20.997  0.00  0.00    +0.127 C 
ATOM     10  H   UNL     1      34.723 -12.887 -24.621  0.00  0.00    +0.149 HD
ENDROOT
BRANCH   4  11
ATOM     11  C   UNL     1      35.085 -14.719 -23.681  0.00  0.00    +0.162 C 
BRANCH  11  14
ATOM     12  F   UNL     1      35.299 -15.281 -25.951  0.00  0.00    -0.196 F 
ATOM     13  F   UNL     1      33.318 -15.390 -25.073  0.00  0.00    -0.196 F 
ATOM     14  C   UNL     1      34.634 -15.642 -24.813  0.00  0.00    +0.317 C 
BRANCH  14  17
ATOM     15  O   UNL     1      33.489 -17.732 -26.195  0.00  0.00    -0.163 OA
ATOM     16  N   UNL     1      34.246 -18.042 -25.216  0.00  0.00    -0.128 N 
ATOM     17  C   UNL     1      34.872 -17.089 -24.454  0.00  0.00    +0.142 C 
ATOM     18  C   UNL     1      35.696 -17.411 -23.392  0.00  0.00    +0.022 C 
ATOM     19  C   UNL     1      34.452 -19.371 -24.902  0.00  0.00    +0.121 C 
ATOM     20  C   UNL     1      35.897 -18.753 -23.084  0.00  0.00    +0.003 C 
ATOM     21  C   UNL     1      35.274 -19.739 -23.841  0.00  0.00    +0.022 C 
ENDBRANCH  14  17
ENDBRANCH  11  14
ENDBRANCH   4  11
BRANCH   3  22
ATOM     22  C   UNL     1      31.585  -9.695 -22.495  0.00  0.00    +0.184 C 
BRANCH  22  25
ATOM     23  O   UNL     1      32.810  -8.314 -20.936  0.00  0.00    -0.273 OA
ATOM     24  N   UNL     1      33.195  -8.068 -23.214  0.00  0.00    -0.299 N 
ATOM     25  C   UNL     1      32.596  -8.639 -22.101  0.00  0.00    +0.243 C 
ATOM     26  H   UNL     1      32.948  -8.408 -24.104  0.00  0.00    +0.150 HD
BRANCH  24  27
ATOM     27  C   UNL     1      34.165  -6.998 -23.132  0.00  0.00    +0.119 C 
BRANCH  27  29
ATOM     28  F   UNL     1      32.029  -5.151 -23.020  0.00  0.00    -0.204 F 
ATOM     29  C   UNL     1      33.937  -5.951 -24.184  0.00  0.00    +0.025 C 
ATOM     30  C   UNL     1      32.866  -5.074 -24.064  0.00  0.00    +0.138 C 
ATOM     31  C   UNL     1      34.803  -5.871 -25.268  0.00  0.00    -0.000 C 
ATOM     32  C   UNL     1      32.657  -4.103 -25.043  0.00  0.00    +0.029 C 
ATOM     33  C   UNL     1      34.594  -4.899 -26.246  0.00  0.00    -0.000 C 
ATOM     34  C   UNL     1      33.522  -4.015 -26.134  0.00  0.00    +0.002 C 
ENDBRANCH  27  29
ENDBRANCH  24  27
ENDBRANCH  22  25
ENDBRANCH   3  22
TORSDOF 7
ENDMDL
MODEL 3
REMARK VINA RESULT:     -11.1      8.439     12.197
REMARK  Name = 656913
REMARK  7 active torsions:
REMARK  status: ('A' for Active; 'I' for Inactive)
REMARK    1  A    between atoms: N_3  and  C_22
REMARK    2  A    between atoms: N_4  and  C_11
REMARK    3  A    between atoms: C_11  and  C_14
REMARK    4  A    between atoms: C_14  and  C_17
REMARK    5  A    between atoms: C_22  and  C_25
REMARK    6  A    between atoms: N_24  and  C_27
REMARK    7  A    between atoms: C_27  and  C_29
REMARK                            x       y       z     vdW  Elec       q    Type
REMARK                         _______ _______ _______ _____ _____    ______ ____
ROOT
ATOM      1 CL   UNL     1      29.942 -24.345 -16.426  0.00  0.00    -0.064 Cl
ATOM      2  O   UNL     1      34.625 -22.635 -15.791  0.00  0.00    -0.266 OA
ATOM      3  N   UNL     1      32.438 -23.415 -16.121  0.00  0.00    -0.233 N 
ATOM      4  N   UNL     1      34.889 -23.811 -13.383  0.00  0.00    -0.310 N 
ATOM      5  N   UNL     1      32.710 -24.645 -13.604  0.00  0.00    -0.223 NA
ATOM      6  C   UNL     1      33.712 -23.956 -14.072  0.00  0.00    +0.183 C 
ATOM      7  C   UNL     1      33.638 -23.263 -15.426  0.00  0.00    +0.285 C 
ATOM      8  C   UNL     1      31.420 -24.161 -15.561  0.00  0.00    +0.133 C 
ATOM      9  C   UNL     1      31.580 -24.733 -14.364  0.00  0.00    +0.127 C 
ATOM     10  H   UNL     1      35.614 -23.279 -13.785  0.00  0.00    +0.149 HD
ENDROOT
BRANCH   4  11
ATOM     11  C   UNL     1      35.100 -24.406 -12.101  0.00  0.00    +0.162 C 
BRANCH  11  14
ATOM     12  F   UNL     1      36.674 -24.655 -10.376  0.00  0.00    -0.196 F 
ATOM     13  F   UNL     1      36.806 -22.871 -11.604  0.00  0.00    -0.196 F 
ATOM     14  C   UNL     1      36.552 -24.211 -11.663  0.00  0.00    +0.317 C 
BRANCH  14  17
ATOM     15  O   UNL     1      39.221 -23.562 -11.874  0.00  0.00    -0.163 OA
ATOM     16  N   UNL     1      38.805 -24.511 -12.617  0.00  0.00    -0.128 N 
ATOM     17  C   UNL     1      37.496 -24.925 -12.600  0.00  0.00    +0.142 C 
ATOM     18  C   UNL     1      37.033 -25.954 -13.397  0.00  0.00    +0.022 C 
ATOM     19  C   UNL     1      39.683 -25.153 -13.468  0.00  0.00    +0.121 C 
ATOM     20  C   UNL     1      37.926 -26.594 -14.251  0.00  0.00    +0.003 C 
ATOM     21  C   UNL     1      39.258 -26.193 -14.288  0.00  0.00    +0.022 C 
ENDBRANCH  14  17
ENDBRANCH  11  14
ENDBRANCH   4  11
BRANCH   3  22
ATOM     22  C   UNL     1      32.290 -22.778 -17.425  0.00  0.00    +0.184 C 
BRANCH  22  25
ATOM     23  O   UNL     1      33.685 -24.369 -18.593  0.00  0.00    -0.273 OA
ATOM     24  N   UNL     1      34.172 -22.102 -18.752  0.00  0.00    -0.299 N 
ATOM     25  C   UNL     1      33.434 -23.196 -18.325  0.00  0.00    +0.243 C 
ATOM     26  H   UNL     1      33.878 -21.203 -18.476  0.00  0.00    +0.150 HD
BRANCH  24  27
ATOM     27  C   UNL     1      35.350 -22.215 -19.583  0.00  0.00    +0.119 C 
BRANCH  27  29
ATOM     28  F   UNL     1      33.341 -20.873 -21.049  0.00  0.00    -0.204 F 
ATOM     29  C   UNL     1      35.612 -20.957 -20.360  0.00  0.00    +0.025 C 
ATOM     30  C   UNL     1      34.575 -20.349 -21.059  0.00  0.00    +0.138 C 
ATOM     31  C   UNL     1      36.891 -20.414 -20.373  0.00  0.00    -0.000 C 
ATOM     32  C   UNL     1      34.822 -19.181 -21.780  0.00  0.00    +0.029 C 
ATOM     33  C   UNL     1      37.137 -19.246 -21.094  0.00  0.00    -0.000 C 
ATOM     34  C   UNL     1      36.103 -18.629 -21.797  0.00  0.00    +0.002 C 
ENDBRANCH  27  29
ENDBRANCH  24  27
ENDBRANCH  22  25
ENDBRANCH   3  22
TORSDOF 7
ENDMDL
MODEL 4
REMARK VINA RESULT:     -11.0      4.125     11.292
REMARK  Name = 656913
REMARK  7 active torsions:
REMARK  status: ('A' for Active; 'I' for Inactive)
REMARK    1  A    between atoms: N_3  and  C_22
REMARK    2  A    between atoms: N_4  and  C_11
REMARK    3  A    between atoms: C_11  and  C_14
REMARK    4  A    between atoms: C_14  and  C_17
REMARK    5  A    between atoms: C_22  and  C_25
REMARK    6  A    between atoms: N_24  and  C_27
REMARK    7  A    between atoms: C_27  and  C_29
REMARK                            x       y       z     vdW  Elec       q    Type
REMARK                         _______ _______ _______ _____ _____    ______ ____
ROOT
ATOM      1 CL   UNL     1      31.524 -11.373 -18.424  0.00  0.00    -0.064 Cl
ATOM      2  O   UNL     1      32.208 -10.342 -23.295  0.00  0.00    -0.266 OA
ATOM      3  N   UNL     1      31.877 -10.858 -21.031  0.00  0.00    -0.233 N 
ATOM      4  N   UNL     1      32.999  -7.815 -22.805  0.00  0.00    -0.310 N 
ATOM      5  N   UNL     1      32.703  -8.218 -20.515  0.00  0.00    -0.223 NA
ATOM      6  C   UNL     1      32.659  -8.626 -21.751  0.00  0.00    +0.183 C 
ATOM      7  C   UNL     1      32.222 -10.040 -22.107  0.00  0.00    +0.285 C 
ATOM      8  C   UNL     1      31.950 -10.356 -19.747  0.00  0.00    +0.133 C 
ATOM      9  C   UNL     1      32.347  -9.097 -19.534  0.00  0.00    +0.127 C 
ATOM     10  H   UNL     1      32.947  -8.176 -23.720  0.00  0.00    +0.149 HD
ENDROOT
BRANCH   4  11
ATOM     11  C   UNL     1      33.427  -6.464 -22.620  0.00  0.00    +0.162 C 
BRANCH  11  14
ATOM     12  F   UNL     1      32.209  -4.464 -22.780  0.00  0.00    -0.196 F 
ATOM     13  F   UNL     1      31.481  -6.173 -23.900  0.00  0.00    -0.196 F 
ATOM     14  C   UNL     1      32.626  -5.530 -23.526  0.00  0.00    +0.317 C 
BRANCH  14  17
ATOM     15  O   UNL     1      31.905  -3.430 -25.158  0.00  0.00    -0.163 OA
ATOM     16  N   UNL     1      32.986  -4.040 -25.455  0.00  0.00    -0.128 N 
ATOM     17  C   UNL     1      33.447  -5.100 -24.717  0.00  0.00    +0.142 C 
ATOM     18  C   UNL     1      34.617  -5.767 -25.027  0.00  0.00    +0.022 C 
ATOM     19  C   UNL     1      33.725  -3.633 -26.549  0.00  0.00    +0.121 C 
ATOM     20  C   UNL     1      35.354  -5.349 -26.130  0.00  0.00    +0.003 C 
ATOM     21  C   UNL     1      34.908  -4.277 -26.896  0.00  0.00    +0.022 C 
ENDBRANCH  14  17
ENDBRANCH  11  14
ENDBRANCH   4  11
BRANCH   3  22
ATOM     22  C   UNL     1      31.446 -12.227 -21.293  0.00  0.00    +0.184 C 
BRANCH  22  25
ATOM     23  O   UNL     1      32.922 -13.852 -20.282  0.00  0.00    -0.273 OA
ATOM     24  N   UNL     1      33.397 -13.060 -22.415  0.00  0.00    -0.299 N 
ATOM     25  C   UNL     1      32.645 -13.152 -21.253  0.00  0.00    +0.243 C 
ATOM     26  H   UNL     1      33.079 -12.464 -23.132  0.00  0.00    +0.150 HD
BRANCH  24  27
ATOM     27  C   UNL     1      34.623 -13.797 -22.626  0.00  0.00    +0.119 C 
BRANCH  27  29
ATOM     28  F   UNL     1      35.793 -16.369 -22.572  0.00  0.00    -0.204 F 
ATOM     29  C   UNL     1      34.505 -14.769 -23.764  0.00  0.00    +0.025 C 
ATOM     30  C   UNL     1      35.106 -16.019 -23.669  0.00  0.00    +0.138 C 
ATOM     31  C   UNL     1      33.795 -14.408 -24.903  0.00  0.00    -0.000 C 
ATOM     32  C   UNL     1      34.995 -16.920 -24.727  0.00  0.00    +0.029 C 
ATOM     33  C   UNL     1      33.683 -15.309 -25.960  0.00  0.00    -0.000 C 
ATOM     34  C   UNL     1      34.283 -16.565 -25.873  0.00  0.00    +0.002 C 
ENDBRANCH  27  29
ENDBRANCH  24  27
ENDBRANCH  22  25
ENDBRANCH   3  22
TORSDOF 7
ENDMDL
MODEL 5
REMARK VINA RESULT:     -11.0      2.076      2.496
REMARK  Name = 656913
REMARK  7 active torsions:
REMARK  status: ('A' for Active; 'I' for Inactive)
REMARK    1  A    between atoms: N_3  and  C_22
REMARK    2  A    between atoms: N_4  and  C_11
REMARK    3  A    between atoms: C_11  and  C_14
REMARK    4  A    between atoms: C_14  and  C_17
REMARK    5  A    between atoms: C_22  and  C_25
REMARK    6  A    between atoms: N_24  and  C_27
REMARK    7  A    between atoms: C_27  and  C_29
REMARK                            x       y       z     vdW  Elec       q    Type
REMARK                         _______ _______ _______ _____ _____    ______ ____
ROOT
ATOM      1 CL   UNL     1      31.930 -11.592 -21.318  0.00  0.00    -0.064 Cl
ATOM      2  O   UNL     1      34.489 -14.317 -24.676  0.00  0.00    -0.266 OA
ATOM      3  N   UNL     1      33.286 -13.021 -23.136  0.00  0.00    -0.233 N 
ATOM      4  N   UNL     1      35.267 -16.127 -22.840  0.00  0.00    -0.310 N 
ATOM      5  N   UNL     1      34.097 -14.910 -21.215  0.00  0.00    -0.223 NA
ATOM      6  C   UNL     1      34.482 -15.072 -22.449  0.00  0.00    +0.183 C 
ATOM      7  C   UNL     1      34.083 -14.091 -23.542  0.00  0.00    +0.285 C 
ATOM      8  C   UNL     1      32.916 -12.916 -21.810  0.00  0.00    +0.133 C 
ATOM      9  C   UNL     1      33.317 -13.830 -20.921  0.00  0.00    +0.127 C 
ATOM     10  H   UNL     1      35.529 -16.200 -23.787  0.00  0.00    +0.149 HD
ENDROOT
BRANCH   4  11
ATOM     11  C   UNL     1      35.717 -17.125 -21.922  0.00  0.00    +0.162 C 
BRANCH  11  14
ATOM     12  F   UNL     1      36.792 -18.690 -23.303  0.00  0.00    -0.196 F 
ATOM     13  F   UNL     1      34.639 -18.502 -23.487  0.00  0.00    -0.196 F 
ATOM     14  C   UNL     1      35.652 -18.507 -22.572  0.00  0.00    +0.317 C 
BRANCH  14  17
ATOM     15  O   UNL     1      37.738 -19.511 -21.079  0.00  0.00    -0.163 OA
ATOM     16  N   UNL     1      36.584 -20.004 -20.850  0.00  0.00    -0.128 N 
ATOM     17  C   UNL     1      35.468 -19.584 -21.531  0.00  0.00    +0.142 C 
ATOM     18  C   UNL     1      34.212 -20.107 -21.291  0.00  0.00    +0.022 C 
ATOM     19  C   UNL     1      36.434 -20.989 -19.893  0.00  0.00    +0.121 C 
ATOM     20  C   UNL     1      34.073 -21.099 -20.325  0.00  0.00    +0.003 C 
ATOM     21  C   UNL     1      35.188 -21.543 -19.622  0.00  0.00    +0.022 C 
ENDBRANCH  14  17
ENDBRANCH  11  14
ENDBRANCH   4  11
BRANCH   3  22
ATOM     22  C   UNL     1      32.865 -12.037 -24.128  0.00  0.00    +0.184 C 
BRANCH  22  25
ATOM     23  O   UNL     1      35.023 -11.193 -24.812  0.00  0.00    -0.273 OA
ATOM     24  N   UNL     1      33.553  -9.778 -23.700  0.00  0.00    -0.299 N 
ATOM     25  C   UNL     1      33.937 -10.979 -24.279  0.00  0.00    +0.243 C 
ATOM     26  H   UNL     1      32.655  -9.718 -23.300  0.00  0.00    +0.150 HD
BRANCH  24  27
ATOM     27  C   UNL     1      34.405  -8.610 -23.655  0.00  0.00    +0.119 C 
BRANCH  27  29
ATOM     28  F   UNL     1      33.269  -8.105 -21.117  0.00  0.00    -0.204 F 
ATOM     29  C   UNL     1      33.631  -7.362 -23.343  0.00  0.00    +0.025 C 
ATOM     30  C   UNL     1      33.099  -7.179 -22.072  0.00  0.00    +0.138 C 
ATOM     31  C   UNL     1      33.453  -6.402 -24.332  0.00  0.00    -0.000 C 
ATOM     32  C   UNL     1      32.381  -6.019 -21.785  0.00  0.00    +0.029 C 
ATOM     33  C   UNL     1      32.735  -5.241 -24.045  0.00  0.00    -0.000 C 
ATOM     34  C   UNL     1      32.199  -5.049 -22.772  0.00  0.00    +0.002 C 
ENDBRANCH  27  29
ENDBRANCH  24  27
ENDBRANCH  22  25
ENDBRANCH   3  22
TORSDOF 7
ENDMDL
MODEL 6
REMARK VINA RESULT:     -10.9      5.405     11.653
REMARK  Name = 656913
REMARK  7 active torsions:
REMARK  status: ('A' for Active; 'I' for Inactive)
REMARK    1  A    between atoms: N_3  and  C_22
REMARK    2  A    between atoms: N_4  and  C_11
REMARK    3  A    between atoms: C_11  and  C_14
REMARK    4  A    between atoms: C_14  and  C_17
REMARK    5  A    between atoms: C_22  and  C_25
REMARK    6  A    between atoms: N_24  and  C_27
REMARK    7  A    between atoms: C_27  and  C_29
REMARK                            x       y       z     vdW  Elec       q    Type
REMARK                         _______ _______ _______ _____ _____    ______ ____
ROOT
ATOM      1 CL   UNL     1      36.727 -23.062 -16.725  0.00  0.00    -0.064 Cl
ATOM      2  O   UNL     1      33.675 -21.934 -20.555  0.00  0.00    -0.266 OA
ATOM      3  N   UNL     1      35.076 -22.488 -18.757  0.00  0.00    -0.233 N 
ATOM      4  N   UNL     1      35.206 -19.872 -21.366  0.00  0.00    -0.310 N 
ATOM      5  N   UNL     1      36.679 -20.334 -19.601  0.00  0.00    -0.223 NA
ATOM      6  C   UNL     1      35.593 -20.602 -20.270  0.00  0.00    +0.183 C 
ATOM      7  C   UNL     1      34.677 -21.751 -19.872  0.00  0.00    +0.285 C 
ATOM      8  C   UNL     1      36.241 -22.145 -18.099  0.00  0.00    +0.133 C 
ATOM      9  C   UNL     1      36.981 -21.117 -18.525  0.00  0.00    +0.127 C 
ATOM     10  H   UNL     1      34.375 -20.119 -21.833  0.00  0.00    +0.149 HD
ENDROOT
BRANCH   4  11
ATOM     11  C   UNL     1      35.969 -18.766 -21.853  0.00  0.00    +0.162 C 
BRANCH  11  14
ATOM     12  F   UNL     1      34.794 -19.494 -23.750  0.00  0.00    -0.196 F 
ATOM     13  F   UNL     1      36.855 -18.877 -24.023  0.00  0.00    -0.196 F 
ATOM     14  C   UNL     1      35.711 -18.566 -23.346  0.00  0.00    +0.317 C 
BRANCH  14  17
ATOM     15  O   UNL     1      34.737 -17.776 -25.799  0.00  0.00    -0.163 OA
ATOM     16  N   UNL     1      34.786 -16.883 -24.890  0.00  0.00    -0.128 N 
ATOM     17  C   UNL     1      35.252 -17.157 -23.628  0.00  0.00    +0.142 C 
ATOM     18  C   UNL     1      35.308 -16.198 -22.634  0.00  0.00    +0.022 C 
ATOM     19  C   UNL     1      34.362 -15.597 -25.166  0.00  0.00    +0.121 C 
ATOM     20  C   UNL     1      34.878 -14.907 -22.923  0.00  0.00    +0.003 C 
ATOM     21  C   UNL     1      34.402 -14.603 -24.194  0.00  0.00    +0.022 C 
ENDBRANCH  14  17
ENDBRANCH  11  14
ENDBRANCH   4  11
BRANCH   3  22
ATOM     22  C   UNL     1      34.248 -23.604 -18.314  0.00  0.00    +0.184 C 
BRANCH  22  25
ATOM     23  O   UNL     1      32.149 -22.479 -17.905  0.00  0.00    -0.273 OA
ATOM     24  N   UNL     1      33.345 -23.335 -16.106  0.00  0.00    -0.299 N 
ATOM     25  C   UNL     1      33.116 -23.085 -17.451  0.00  0.00    +0.243 C 
ATOM     26  H   UNL     1      34.157 -23.833 -15.855  0.00  0.00    +0.150 HD
BRANCH  24  27
ATOM     27  C   UNL     1      32.450 -22.905 -15.055  0.00  0.00    +0.119 C 
BRANCH  27  29
ATOM     28  F   UNL     1      32.182 -25.615 -14.299  0.00  0.00    -0.204 F 
ATOM     29  C   UNL     1      31.140 -23.637 -15.098  0.00  0.00    +0.025 C 
ATOM     30  C   UNL     1      31.081 -24.970 -14.711  0.00  0.00    +0.138 C 
ATOM     31  C   UNL     1      29.998 -22.971 -15.526  0.00  0.00    -0.000 C 
ATOM     32  C   UNL     1      29.863 -25.647 -14.752  0.00  0.00    +0.029 C 
ATOM     33  C   UNL     1      28.779 -23.648 -15.566  0.00  0.00    -0.000 C 
ATOM     34  C   UNL     1      28.711 -24.985 -15.179  0.00  0.00    +0.002 C 
ENDBRANCH  27  29
ENDBRANCH  24  27
ENDBRANCH  22  25
ENDBRANCH   3  22
TORSDOF 7
ENDMDL
MODEL 7
REMARK VINA RESULT:     -10.8      4.185     11.547
REMARK  Name = 656913
REMARK  7 active torsions:
REMARK  status: ('A' for Active; 'I' for Inactive)
REMARK    1  A    between atoms: N_3  and  C_22
REMARK    2  A    between atoms: N_4  and  C_11
REMARK    3  A    between atoms: C_11  and  C_14
REMARK    4  A    between atoms: C_14  and  C_17
REMARK    5  A    between atoms: C_22  and  C_25
REMARK    6  A    between atoms: N_24  and  C_27
REMARK    7  A    between atoms: C_27  and  C_29
REMARK                            x       y       z     vdW  Elec       q    Type
REMARK                         _______ _______ _______ _____ _____    ______ ____
ROOT
ATOM      1 CL   UNL     1      31.583 -11.978 -18.564  0.00  0.00    -0.064 Cl
ATOM      2  O   UNL     1      32.302 -10.443 -23.295  0.00  0.00    -0.266 OA
ATOM      3  N   UNL     1      31.960 -11.194 -21.100  0.00  0.00    -0.233 N 
ATOM      4  N   UNL     1      32.724  -7.886 -22.561  0.00  0.00    -0.310 N 
ATOM      5  N   UNL     1      32.400  -8.524 -20.329  0.00  0.00    -0.223 NA
ATOM      6  C   UNL     1      32.458  -8.824 -21.595  0.00  0.00    +0.183 C 
ATOM      7  C   UNL     1      32.231 -10.247 -22.087  0.00  0.00    +0.285 C 
ATOM      8  C   UNL     1      31.916 -10.801 -19.777  0.00  0.00    +0.133 C 
ATOM      9  C   UNL     1      32.130  -9.525 -19.442  0.00  0.00    +0.127 C 
ATOM     10  H   UNL     1      32.756  -8.169 -23.504  0.00  0.00    +0.149 HD
ENDROOT
BRANCH   4  11
ATOM     11  C   UNL     1      32.958  -6.512 -22.246  0.00  0.00    +0.162 C 
BRANCH  11  14
ATOM     12  F   UNL     1      31.319  -5.101 -21.332  0.00  0.00    -0.196 F 
ATOM     13  F   UNL     1      30.681  -6.550 -22.816  0.00  0.00    -0.196 F 
ATOM     14  C   UNL     1      31.696  -5.690 -22.506  0.00  0.00    +0.317 C 
BRANCH  14  17
ATOM     15  O   UNL     1      30.265  -3.343 -22.698  0.00  0.00    -0.163 OA
ATOM     16  N   UNL     1      31.155  -3.544 -23.590  0.00  0.00    -0.128 N 
ATOM     17  C   UNL     1      31.931  -4.676 -23.599  0.00  0.00    +0.142 C 
ATOM     18  C   UNL     1      32.899  -4.904 -24.558  0.00  0.00    +0.022 C 
ATOM     19  C   UNL     1      31.356  -2.605 -24.582  0.00  0.00    +0.121 C 
ATOM     20  C   UNL     1      33.094  -3.951 -25.553  0.00  0.00    +0.003 C 
ATOM     21  C   UNL     1      32.320  -2.795 -25.567  0.00  0.00    +0.022 C 
ENDBRANCH  14  17
ENDBRANCH  11  14
ENDBRANCH   4  11
BRANCH   3  22
ATOM     22  C   UNL     1      31.729 -12.580 -21.494  0.00  0.00    +0.184 C 
BRANCH  22  25
ATOM     23  O   UNL     1      33.600 -13.868 -20.667  0.00  0.00    -0.273 OA
ATOM     24  N   UNL     1      33.584 -13.189 -22.890  0.00  0.00    -0.299 N 
ATOM     25  C   UNL     1      33.056 -13.301 -21.612  0.00  0.00    +0.243 C 
ATOM     26  H   UNL     1      33.059 -12.710 -23.572  0.00  0.00    +0.150 HD
BRANCH  24  27
ATOM     27  C   UNL     1      34.865 -13.740 -23.270  0.00  0.00    +0.119 C 
BRANCH  27  29
ATOM     28  F   UNL     1      33.444 -13.915 -25.707  0.00  0.00    -0.204 F 
ATOM     29  C   UNL     1      34.719 -15.023 -24.038  0.00  0.00    +0.025 C 
ATOM     30  C   UNL     1      34.006 -15.036 -25.231  0.00  0.00    +0.138 C 
ATOM     31  C   UNL     1      35.299 -16.185 -23.545  0.00  0.00    -0.000 C 
ATOM     32  C   UNL     1      33.872 -16.228 -25.942  0.00  0.00    +0.029 C 
ATOM     33  C   UNL     1      35.166 -17.377 -24.256  0.00  0.00    -0.000 C 
ATOM     34  C   UNL     1      34.453 -17.399 -25.454  0.00  0.00    +0.002 C 
ENDBRANCH  27  29
ENDBRANCH  24  27
ENDBRANCH  22  25
ENDBRANCH   3  22
TORSDOF 7
ENDMDL
MODEL 8
REMARK VINA RESULT:     -10.8      3.304     11.318
REMARK  Name = 656913
REMARK  7 active torsions:
REMARK  status: ('A' for Active; 'I' for Inactive)
REMARK    1  A    between atoms: N_3  and  C_22
REMARK    2  A    between atoms: N_4  and  C_11
REMARK    3  A    between atoms: C_11  and  C_14
REMARK    4  A    between atoms: C_14  and  C_17
REMARK    5  A    between atoms: C_22  and  C_25
REMARK    6  A    between atoms: N_24  and  C_27
REMARK    7  A    between atoms: C_27  and  C_29
REMARK                            x       y       z     vdW  Elec       q    Type
REMARK                         _______ _______ _______ _____ _____    ______ ____
ROOT
ATOM      1 CL   UNL     1      31.953 -13.549 -19.531  0.00  0.00    -0.064 Cl
ATOM      2  O   UNL     1      32.728 -10.800 -23.665  0.00  0.00    -0.266 OA
ATOM      3  N   UNL     1      32.366 -12.114 -21.757  0.00  0.00    -0.233 N 
ATOM      4  N   UNL     1      32.711  -8.475 -22.306  0.00  0.00    -0.310 N 
ATOM      5  N   UNL     1      32.348  -9.687 -20.333  0.00  0.00    -0.223 NA
ATOM      6  C   UNL     1      32.530  -9.651 -21.622  0.00  0.00    +0.183 C 
ATOM      7  C   UNL     1      32.551 -10.923 -22.459  0.00  0.00    +0.285 C 
ATOM      8  C   UNL     1      32.180 -12.074 -20.389  0.00  0.00    +0.133 C 
ATOM      9  C   UNL     1      32.177 -10.905 -19.741  0.00  0.00    +0.127 C 
ATOM     10  H   UNL     1      32.844  -8.507 -23.281  0.00  0.00    +0.149 HD
ENDROOT
BRANCH   4  11
ATOM     11  C   UNL     1      32.715  -7.205 -21.651  0.00  0.00    +0.162 C 
BRANCH  11  14
ATOM     12  F   UNL     1      31.407  -5.258 -21.536  0.00  0.00    -0.196 F 
ATOM     13  F   UNL     1      30.695  -6.871 -22.800  0.00  0.00    -0.196 F 
ATOM     14  C   UNL     1      31.830  -6.218 -22.412  0.00  0.00    +0.317 C 
BRANCH  14  17
ATOM     15  O   UNL     1      30.832  -4.133 -23.911  0.00  0.00    -0.163 OA
ATOM     16  N   UNL     1      31.972  -4.590 -24.256  0.00  0.00    -0.128 N 
ATOM     17  C   UNL     1      32.571  -5.626 -23.585  0.00  0.00    +0.142 C 
ATOM     18  C   UNL     1      33.807  -6.129 -23.948  0.00  0.00    +0.022 C 
ATOM     19  C   UNL     1      32.636  -4.036 -25.333  0.00  0.00    +0.121 C 
ATOM     20  C   UNL     1      34.467  -5.563 -25.034  0.00  0.00    +0.003 C 
ATOM     21  C   UNL     1      33.881  -4.512 -25.731  0.00  0.00    +0.022 C 
ENDBRANCH  14  17
ENDBRANCH  11  14
ENDBRANCH   4  11
BRANCH   3  22
ATOM     22  C   UNL     1      32.372 -13.376 -22.491  0.00  0.00    +0.184 C 
BRANCH  22  25
ATOM     23  O   UNL     1      34.557 -13.786 -21.543  0.00  0.00    -0.273 OA
ATOM     24  N   UNL     1      34.033 -14.689 -23.619  0.00  0.00    -0.299 N 
ATOM     25  C   UNL     1      33.765 -13.970 -22.464  0.00  0.00    +0.243 C 
ATOM     26  H   UNL     1      33.321 -14.773 -24.294  0.00  0.00    +0.150 HD
BRANCH  24  27
ATOM     27  C   UNL     1      35.306 -15.324 -23.881  0.00  0.00    +0.119 C 
BRANCH  27  29
ATOM     28  F   UNL     1      34.591 -17.316 -25.753  0.00  0.00    -0.204 F 
ATOM     29  C   UNL     1      35.284 -16.787 -23.545  0.00  0.00    +0.025 C 
ATOM     30  C   UNL     1      34.923 -17.713 -24.517  0.00  0.00    +0.138 C 
ATOM     31  C   UNL     1      35.627 -17.200 -22.263  0.00  0.00    -0.000 C 
ATOM     32  C   UNL     1      34.904 -19.071 -24.201  0.00  0.00    +0.029 C 
ATOM     33  C   UNL     1      35.608 -18.558 -21.949  0.00  0.00    -0.000 C 
ATOM     34  C   UNL     1      35.247 -19.494 -22.917  0.00  0.00    +0.002 C 
ENDBRANCH  27  29
ENDBRANCH  24  27
ENDBRANCH  22  25
ENDBRANCH   3  22
TORSDOF 7
ENDMDL
MODEL 9
REMARK VINA RESULT:     -10.8      7.722     12.728
REMARK  Name = 656913
REMARK  7 active torsions:
REMARK  status: ('A' for Active; 'I' for Inactive)
REMARK    1  A    between atoms: N_3  and  C_22
REMARK    2  A    between atoms: N_4  and  C_11
REMARK    3  A    between atoms: C_11  and  C_14
REMARK    4  A    between atoms: C_14  and  C_17
REMARK    5  A    between atoms: C_22  and  C_25
REMARK    6  A    between atoms: N_24  and  C_27
REMARK    7  A    between atoms: C_27  and  C_29
REMARK                            x       y       z     vdW  Elec       q    Type
REMARK                         _______ _______ _______ _____ _____    ______ ____
ROOT
ATOM      1 CL   UNL     1      38.035 -24.153 -13.053  0.00  0.00    -0.064 Cl
ATOM      2  O   UNL     1      34.335 -24.290 -16.450  0.00  0.00    -0.266 OA
ATOM      3  N   UNL     1      36.043 -24.251 -14.844  0.00  0.00    -0.233 N 
ATOM      4  N   UNL     1      35.501 -22.437 -18.019  0.00  0.00    -0.310 N 
ATOM      5  N   UNL     1      37.265 -22.315 -16.480  0.00  0.00    -0.223 NA
ATOM      6  C   UNL     1      36.124 -22.818 -16.857  0.00  0.00    +0.183 C 
ATOM      7  C   UNL     1      35.404 -23.869 -16.024  0.00  0.00    +0.285 C 
ATOM      8  C   UNL     1      37.252 -23.674 -14.510  0.00  0.00    +0.133 C 
ATOM      9  C   UNL     1      37.808 -22.757 -15.309  0.00  0.00    +0.127 C 
ATOM     10  H   UNL     1      34.639 -22.851 -18.255  0.00  0.00    +0.149 HD
ENDROOT
BRANCH   4  11
ATOM     11  C   UNL     1      36.061 -21.460 -18.899  0.00  0.00    +0.162 C 
BRANCH  11  14
ATOM     12  F   UNL     1      33.902 -20.915 -19.644  0.00  0.00    -0.196 F 
ATOM     13  F   UNL     1      34.979 -22.453 -20.731  0.00  0.00    -0.196 F 
ATOM     14  C   UNL     1      35.144 -21.251 -20.104  0.00  0.00    +0.317 C 
BRANCH  14  17
ATOM     15  O   UNL     1      33.656 -20.068 -22.098  0.00  0.00    -0.163 OA
ATOM     16  N   UNL     1      34.868 -19.686 -21.987  0.00  0.00    -0.128 N 
ATOM     17  C   UNL     1      35.707 -20.202 -21.032  0.00  0.00    +0.142 C 
ATOM     18  C   UNL     1      37.021 -19.795 -20.900  0.00  0.00    +0.022 C 
ATOM     19  C   UNL     1      35.366 -18.725 -22.846  0.00  0.00    +0.121 C 
ATOM     20  C   UNL     1      37.512 -18.827 -21.770  0.00  0.00    +0.003 C 
ATOM     21  C   UNL     1      36.682 -18.287 -22.747  0.00  0.00    +0.022 C 
ENDBRANCH  14  17
ENDBRANCH  11  14
ENDBRANCH   4  11
BRANCH   3  22
ATOM     22  C   UNL     1      35.413 -25.253 -13.991  0.00  0.00    +0.184 C 
BRANCH  22  25
ATOM     23  O   UNL     1      34.207 -23.901 -12.392  0.00  0.00    -0.273 OA
ATOM     24  N   UNL     1      33.016 -25.144 -13.954  0.00  0.00    -0.299 N 
ATOM     25  C   UNL     1      34.172 -24.667 -13.352  0.00  0.00    +0.243 C 
ATOM     26  H   UNL     1      33.107 -25.756 -14.720  0.00  0.00    +0.150 HD
BRANCH  24  27
ATOM     27  C   UNL     1      31.686 -24.787 -13.512  0.00  0.00    +0.119 C 
BRANCH  27  29
ATOM     28  F   UNL     1      32.168 -22.394 -14.936  0.00  0.00    -0.204 F 
ATOM     29  C   UNL     1      30.821 -24.328 -14.650  0.00  0.00    +0.025 C 
ATOM     30  C   UNL     1      31.117 -23.139 -15.307  0.00  0.00    +0.138 C 
ATOM     31  C   UNL     1      29.731 -25.099 -15.035  0.00  0.00    -0.000 C 
ATOM     32  C   UNL     1      30.312 -22.716 -16.364  0.00  0.00    +0.029 C 
ATOM     33  C   UNL     1      28.926 -24.675 -16.092  0.00  0.00    -0.000 C 
ATOM     34  C   UNL     1      29.216 -23.484 -16.757  0.00  0.00    +0.002 C 
ENDBRANCH  27  29
ENDBRANCH  24  27
ENDBRANCH  22  25
ENDBRANCH   3  22
TORSDOF 7
ENDMDL
