MODEL 1
REMARK VINA RESULT:     -11.4      0.000      0.000
REMARK  Name = 16048422
REMARK  11 active torsions:
REMARK  status: ('A' for Active; 'I' for Inactive)
REMARK    1  A    between atoms: C_1  and  C_4
REMARK    2  A    between atoms: C_1  and  N_18
REMARK    3  A    between atoms: C_1  and  C_33
REMARK    4  A    between atoms: N_3  and  C_6
REMARK    5  A    between atoms: C_6  and  C_9
REMARK    6  A    between atoms: C_9  and  C_11
REMARK    7  A    between atoms: C_19  and  C_21
REMARK    8  A    between atoms: C_24  and  C_27
REMARK    9  A    between atoms: C_33  and  C_34
REMARK   10  A    between atoms: C_34  and  C_36
REMARK   11  A    between atoms: C_36  and  O_37
REMARK                            x       y       z     vdW  Elec       q    Type
REMARK                         _______ _______ _______ _____ _____    ______ ____
ROOT
ATOM      1  C   UNL     1      34.445 -23.912 -15.918  0.00  0.00    +0.149 C 
ENDROOT
BRANCH   1   4
ATOM      2  O   UNL     1      32.927 -22.505 -14.666  0.00  0.00    -0.273 OA
ATOM      3  N   UNL     1      32.226 -24.632 -15.277  0.00  0.00    -0.306 N 
ATOM      4  C   UNL     1      33.129 -23.581 -15.226  0.00  0.00    +0.240 C 
ATOM      5  H   UNL     1      32.489 -25.453 -15.753  0.00  0.00    +0.149 HD
BRANCH   3   6
ATOM      6  C   UNL     1      30.918 -24.582 -14.665  0.00  0.00    +0.061 C 
ATOM      7  C   UNL     1      29.981 -25.559 -15.393  0.00  0.00    +0.020 C 
ATOM      8  C   UNL     1      31.059 -25.036 -13.202  0.00  0.00    +0.020 C 
BRANCH   6   9
ATOM      9  C   UNL     1      30.363 -23.133 -14.680  0.00  0.00    +0.044 C 
BRANCH   9  11
ATOM     10  F   UNL     1      26.080 -22.165 -18.220  0.00  0.00    -0.204 F 
ATOM     11  C   UNL     1      29.215 -22.874 -15.629  0.00  0.00    -0.020 C 
ATOM     12  C   UNL     1      27.988 -22.432 -15.134  0.00  0.00    -0.002 C 
ATOM     13  C   UNL     1      29.383 -23.077 -16.998  0.00  0.00    -0.002 C 
ATOM     14  C   UNL     1      26.929 -22.191 -16.010  0.00  0.00    +0.029 C 
ATOM     15  C   UNL     1      28.324 -22.837 -17.874  0.00  0.00    +0.029 C 
ATOM     16  C   UNL     1      27.097 -22.394 -17.379  0.00  0.00    +0.140 C 
ENDBRANCH   9  11
ENDBRANCH   6   9
ENDBRANCH   3   6
ENDBRANCH   1   4
BRANCH   1  18
ATOM     17  O   UNL     1      33.712 -24.307 -18.666  0.00  0.00    -0.270 OA
ATOM     18  N   UNL     1      34.571 -22.954 -16.990  0.00  0.00    -0.295 N 
ATOM     19  C   UNL     1      34.187 -23.238 -18.292  0.00  0.00    +0.246 C 
ATOM     20  H   UNL     1      34.943 -22.065 -16.789  0.00  0.00    +0.150 HD
BRANCH  19  21
ATOM     21  C   UNL     1      34.407 -22.155 -19.285  0.00  0.00    +0.053 C 
ATOM     22  C   UNL     1      33.316 -21.495 -19.851  0.00  0.00    +0.005 C 
ATOM     23  C   UNL     1      35.704 -21.797 -19.650  0.00  0.00    +0.005 C 
ATOM     24  C   UNL     1      34.820 -20.121 -21.149  0.00  0.00    +0.000 C 
ATOM     25  C   UNL     1      33.523 -20.479 -20.784  0.00  0.00    +0.000 C 
ATOM     26  C   UNL     1      35.912 -20.780 -20.582  0.00  0.00    +0.000 C 
BRANCH  24  27
ATOM     27  C   UNL     1      35.035 -19.067 -22.116  0.00  0.00    +0.000 C 
ATOM     28  C   UNL     1      35.496 -17.819 -21.696  0.00  0.00    +0.000 C 
ATOM     29  C   UNL     1      34.783 -19.297 -23.468  0.00  0.00    +0.000 C 
ATOM     30  C   UNL     1      35.705 -16.802 -22.629  0.00  0.00    +0.000 C 
ATOM     31  C   UNL     1      34.991 -18.280 -24.400  0.00  0.00    +0.000 C 
ATOM     32  C   UNL     1      35.452 -17.033 -23.980  0.00  0.00    +0.000 C 
ENDBRANCH  24  27
ENDBRANCH  19  21
ENDBRANCH   1  18
BRANCH   1  33
ATOM     33  C   UNL     1      35.635 -23.810 -14.957  0.00  0.00    +0.041 C 
BRANCH  33  34
ATOM     34  C   UNL     1      36.844 -24.659 -15.358  0.00  0.00    +0.112 C 
BRANCH  34  36
ATOM     35  O   UNL     1      36.382 -26.937 -16.088  0.00  0.00    -0.250 OA
ATOM     36  C   UNL     1      36.615 -26.144 -15.186  0.00  0.00    +0.314 C 
BRANCH  36  37
ATOM     37  O   UNL     1      36.729 -26.517 -13.884  0.00  0.00    -0.480 OA
ATOM     38  H   UNL     1      36.348 -27.321 -13.591  0.00  0.00    +0.295 HD
ENDBRANCH  36  37
ENDBRANCH  34  36
ENDBRANCH  33  34
ENDBRANCH   1  33
TORSDOF 11
ENDMDL
MODEL 2
REMARK VINA RESULT:     -11.2      3.469      6.773
REMARK  Name = 16048422
REMARK  11 active torsions:
REMARK  status: ('A' for Active; 'I' for Inactive)
REMARK    1  A    between atoms: C_1  and  C_4
REMARK    2  A    between atoms: C_1  and  N_18
REMARK    3  A    between atoms: C_1  and  C_33
REMARK    4  A    between atoms: N_3  and  C_6
REMARK    5  A    between atoms: C_6  and  C_9
REMARK    6  A    between atoms: C_9  and  C_11
REMARK    7  A    between atoms: C_19  and  C_21
REMARK    8  A    between atoms: C_24  and  C_27
REMARK    9  A    between atoms: C_33  and  C_34
REMARK   10  A    between atoms: C_34  and  C_36
REMARK   11  A    between atoms: C_36  and  O_37
REMARK                            x       y       z     vdW  Elec       q    Type
REMARK                         _______ _______ _______ _____ _____    ______ ____
ROOT
ATOM      1  C   UNL     1      31.655 -23.473 -15.462  0.00  0.00    +0.149 C 
ENDROOT
BRANCH   1   4
ATOM      2  O   UNL     1      32.525 -25.409 -14.302  0.00  0.00    -0.273 OA
ATOM      3  N   UNL     1      33.954 -23.627 -14.722  0.00  0.00    -0.306 N 
ATOM      4  C   UNL     1      32.739 -24.294 -14.775  0.00  0.00    +0.240 C 
ATOM      5  H   UNL     1      34.016 -22.734 -15.133  0.00  0.00    +0.149 HD
BRANCH   3   6
ATOM      6  C   UNL     1      35.132 -24.178 -14.092  0.00  0.00    +0.061 C 
ATOM      7  C   UNL     1      34.898 -24.273 -12.577  0.00  0.00    +0.020 C 
ATOM      8  C   UNL     1      35.347 -25.597 -14.645  0.00  0.00    +0.020 C 
BRANCH   6   9
ATOM      9  C   UNL     1      36.382 -23.324 -14.429  0.00  0.00    +0.044 C 
BRANCH   9  11
ATOM     10  F   UNL     1      41.299 -26.084 -14.555  0.00  0.00    -0.204 F 
ATOM     11  C   UNL     1      37.700 -24.064 -14.463  0.00  0.00    -0.020 C 
ATOM     12  C   UNL     1      38.454 -24.091 -15.636  0.00  0.00    -0.002 C 
ATOM     13  C   UNL     1      38.161 -24.719 -13.322  0.00  0.00    -0.002 C 
ATOM     14  C   UNL     1      39.671 -24.773 -15.667  0.00  0.00    +0.029 C 
ATOM     15  C   UNL     1      39.377 -25.401 -13.352  0.00  0.00    +0.029 C 
ATOM     16  C   UNL     1      40.131 -25.428 -14.525  0.00  0.00    +0.140 C 
ENDBRANCH   9  11
ENDBRANCH   6   9
ENDBRANCH   3   6
ENDBRANCH   1   4
BRANCH   1  18
ATOM     17  O   UNL     1      33.372 -24.597 -17.470  0.00  0.00    -0.270 OA
ATOM     18  N   UNL     1      32.323 -22.758 -16.522  0.00  0.00    -0.295 N 
ATOM     19  C   UNL     1      33.137 -23.392 -17.450  0.00  0.00    +0.246 C 
ATOM     20  H   UNL     1      32.197 -21.785 -16.590  0.00  0.00    +0.150 HD
BRANCH  19  21
ATOM     21  C   UNL     1      33.775 -22.511 -18.462  0.00  0.00    +0.053 C 
ATOM     22  C   UNL     1      35.165 -22.448 -18.555  0.00  0.00    +0.005 C 
ATOM     23  C   UNL     1      32.983 -21.750 -19.321  0.00  0.00    +0.005 C 
ATOM     24  C   UNL     1      34.972 -20.859 -20.364  0.00  0.00    +0.000 C 
ATOM     25  C   UNL     1      35.764 -21.621 -19.505  0.00  0.00    +0.000 C 
ATOM     26  C   UNL     1      33.582 -20.923 -20.273  0.00  0.00    +0.000 C 
BRANCH  24  27
ATOM     27  C   UNL     1      35.593 -20.001 -21.350  0.00  0.00    +0.000 C 
ATOM     28  C   UNL     1      34.908 -19.675 -22.521  0.00  0.00    +0.000 C 
ATOM     29  C   UNL     1      36.875 -19.499 -21.131  0.00  0.00    +0.000 C 
ATOM     30  C   UNL     1      35.505 -18.847 -23.472  0.00  0.00    +0.000 C 
ATOM     31  C   UNL     1      37.473 -18.672 -22.082  0.00  0.00    +0.000 C 
ATOM     32  C   UNL     1      36.788 -18.346 -23.252  0.00  0.00    +0.000 C 
ENDBRANCH  24  27
ENDBRANCH  19  21
ENDBRANCH   1  18
BRANCH   1  33
ATOM     33  C   UNL     1      30.539 -24.361 -16.026  0.00  0.00    +0.041 C 
BRANCH  33  34
ATOM     34  C   UNL     1      29.125 -23.848 -15.750  0.00  0.00    +0.112 C 
BRANCH  34  36
ATOM     35  O   UNL     1      28.463 -22.062 -17.269  0.00  0.00    -0.250 OA
ATOM     36  C   UNL     1      28.458 -23.248 -16.967  0.00  0.00    +0.314 C 
BRANCH  36  37
ATOM     37  O   UNL     1      27.859 -24.202 -17.727  0.00  0.00    -0.480 OA
ATOM     38  H   UNL     1      27.479 -24.955 -17.321  0.00  0.00    +0.295 HD
ENDBRANCH  36  37
ENDBRANCH  34  36
ENDBRANCH  33  34
ENDBRANCH   1  33
TORSDOF 11
ENDMDL
MODEL 3
REMARK VINA RESULT:     -11.1      1.499      2.223
REMARK  Name = 16048422
REMARK  11 active torsions:
REMARK  status: ('A' for Active; 'I' for Inactive)
REMARK    1  A    between atoms: C_1  and  C_4
REMARK    2  A    between atoms: C_1  and  N_18
REMARK    3  A    between atoms: C_1  and  C_33
REMARK    4  A    between atoms: N_3  and  C_6
REMARK    5  A    between atoms: C_6  and  C_9
REMARK    6  A    between atoms: C_9  and  C_11
REMARK    7  A    between atoms: C_19  and  C_21
REMARK    8  A    between atoms: C_24  and  C_27
REMARK    9  A    between atoms: C_33  and  C_34
REMARK   10  A    between atoms: C_34  and  C_36
REMARK   11  A    between atoms: C_36  and  O_37
REMARK                            x       y       z     vdW  Elec       q    Type
REMARK                         _______ _______ _______ _____ _____    ______ ____
ROOT
ATOM      1  C   UNL     1      34.239 -23.334 -17.235  0.00  0.00    +0.149 C 
ENDROOT
BRANCH   1   4
ATOM      2  O   UNL     1      31.908 -22.714 -17.410  0.00  0.00    -0.273 OA
ATOM      3  N   UNL     1      32.574 -24.052 -15.633  0.00  0.00    -0.306 N 
ATOM      4  C   UNL     1      32.780 -23.327 -16.797  0.00  0.00    +0.240 C 
ATOM      5  H   UNL     1      33.345 -24.506 -15.221  0.00  0.00    +0.149 HD
BRANCH   3   6
ATOM      6  C   UNL     1      31.284 -24.172 -14.993  0.00  0.00    +0.061 C 
ATOM      7  C   UNL     1      31.419 -25.053 -13.743  0.00  0.00    +0.020 C 
ATOM      8  C   UNL     1      30.836 -22.767 -14.557  0.00  0.00    +0.020 C 
BRANCH   6   9
ATOM      9  C   UNL     1      30.233 -24.737 -15.985  0.00  0.00    +0.044 C 
BRANCH   9  11
ATOM     10  F   UNL     1      25.827 -21.392 -17.086  0.00  0.00    -0.204 F 
ATOM     11  C   UNL     1      29.052 -23.840 -16.280  0.00  0.00    -0.020 C 
ATOM     12  C   UNL     1      28.641 -23.639 -17.598  0.00  0.00    -0.002 C 
ATOM     13  C   UNL     1      28.373 -23.214 -15.235  0.00  0.00    -0.002 C 
ATOM     14  C   UNL     1      27.551 -22.813 -17.870  0.00  0.00    +0.029 C 
ATOM     15  C   UNL     1      27.283 -22.388 -15.507  0.00  0.00    +0.029 C 
ATOM     16  C   UNL     1      26.873 -22.187 -16.824  0.00  0.00    +0.140 C 
ENDBRANCH   9  11
ENDBRANCH   6   9
ENDBRANCH   3   6
ENDBRANCH   1   4
BRANCH   1  18
ATOM     17  O   UNL     1      36.629 -22.398 -18.522  0.00  0.00    -0.270 OA
ATOM     18  N   UNL     1      34.316 -22.414 -18.343  0.00  0.00    -0.295 N 
ATOM     19  C   UNL     1      35.523 -22.018 -18.900  0.00  0.00    +0.246 C 
ATOM     20  H   UNL     1      33.481 -22.052 -18.717  0.00  0.00    +0.150 HD
BRANCH  19  21
ATOM     21  C   UNL     1      35.435 -21.043 -20.018  0.00  0.00    +0.053 C 
ATOM     22  C   UNL     1      36.580 -20.383 -20.460  0.00  0.00    +0.005 C 
ATOM     23  C   UNL     1      34.205 -20.790 -20.625  0.00  0.00    +0.005 C 
ATOM     24  C   UNL     1      35.267 -19.213 -22.117  0.00  0.00    +0.000 C 
ATOM     25  C   UNL     1      36.497 -19.467 -21.509  0.00  0.00    +0.000 C 
ATOM     26  C   UNL     1      34.121 -19.874 -21.675  0.00  0.00    +0.000 C 
BRANCH  24  27
ATOM     27  C   UNL     1      35.179 -18.264 -23.205  0.00  0.00    +0.000 C 
ATOM     28  C   UNL     1      35.583 -16.943 -23.012  0.00  0.00    +0.000 C 
ATOM     29  C   UNL     1      34.693 -18.670 -24.448  0.00  0.00    +0.000 C 
ATOM     30  C   UNL     1      35.500 -16.028 -24.062  0.00  0.00    +0.000 C 
ATOM     31  C   UNL     1      34.609 -17.754 -25.497  0.00  0.00    +0.000 C 
ATOM     32  C   UNL     1      35.013 -16.434 -25.304  0.00  0.00    +0.000 C 
ENDBRANCH  24  27
ENDBRANCH  19  21
ENDBRANCH   1  18
BRANCH   1  33
ATOM     33  C   UNL     1      35.176 -22.898 -16.101  0.00  0.00    +0.041 C 
BRANCH  33  34
ATOM     34  C   UNL     1      36.065 -24.016 -15.554  0.00  0.00    +0.112 C 
BRANCH  34  36
ATOM     35  O   UNL     1      37.956 -23.507 -14.104  0.00  0.00    -0.250 OA
ATOM     36  C   UNL     1      37.469 -23.557 -15.225  0.00  0.00    +0.314 C 
BRANCH  36  37
ATOM     37  O   UNL     1      38.158 -23.224 -16.347  0.00  0.00    -0.480 OA
ATOM     38  H   UNL     1      38.809 -23.805 -16.688  0.00  0.00    +0.295 HD
ENDBRANCH  36  37
ENDBRANCH  34  36
ENDBRANCH  33  34
ENDBRANCH   1  33
TORSDOF 11
ENDMDL
MODEL 4
REMARK VINA RESULT:     -10.7      6.174     11.172
REMARK  Name = 16048422
REMARK  11 active torsions:
REMARK  status: ('A' for Active; 'I' for Inactive)
REMARK    1  A    between atoms: C_1  and  C_4
REMARK    2  A    between atoms: C_1  and  N_18
REMARK    3  A    between atoms: C_1  and  C_33
REMARK    4  A    between atoms: N_3  and  C_6
REMARK    5  A    between atoms: C_6  and  C_9
REMARK    6  A    between atoms: C_9  and  C_11
REMARK    7  A    between atoms: C_19  and  C_21
REMARK    8  A    between atoms: C_24  and  C_27
REMARK    9  A    between atoms: C_33  and  C_34
REMARK   10  A    between atoms: C_34  and  C_36
REMARK   11  A    between atoms: C_36  and  O_37
REMARK                            x       y       z     vdW  Elec       q    Type
REMARK                         _______ _______ _______ _____ _____    ______ ____
ROOT
ATOM      1  C   UNL     1      35.613 -16.409 -23.886  0.00  0.00    +0.149 C 
ENDROOT
BRANCH   1   4
ATOM      2  O   UNL     1      35.212 -14.024 -23.848  0.00  0.00    -0.273 OA
ATOM      3  N   UNL     1      34.238 -15.343 -22.204  0.00  0.00    -0.306 N 
ATOM      4  C   UNL     1      35.005 -15.124 -23.339  0.00  0.00    +0.240 C 
ATOM      5  H   UNL     1      34.137 -16.267 -21.878  0.00  0.00    +0.149 HD
BRANCH   3   6
ATOM      6  C   UNL     1      33.582 -14.281 -21.476  0.00  0.00    +0.061 C 
ATOM      7  C   UNL     1      32.878 -14.873 -20.244  0.00  0.00    +0.020 C 
ATOM      8  C   UNL     1      34.660 -13.294 -20.998  0.00  0.00    +0.020 C 
BRANCH   6   9
ATOM      9  C   UNL     1      32.590 -13.520 -22.395  0.00  0.00    +0.044 C 
BRANCH   9  11
ATOM     10  F   UNL     1      31.856  -8.049 -21.238  0.00  0.00    -0.204 F 
ATOM     11  C   UNL     1      32.393 -12.053 -22.085  0.00  0.00    -0.020 C 
ATOM     12  C   UNL     1      31.855 -11.666 -20.858  0.00  0.00    -0.002 C 
ATOM     13  C   UNL     1      32.751 -11.088 -23.026  0.00  0.00    -0.002 C 
ATOM     14  C   UNL     1      31.674 -10.313 -20.571  0.00  0.00    +0.029 C 
ATOM     15  C   UNL     1      32.570  -9.735 -22.740  0.00  0.00    +0.029 C 
ATOM     16  C   UNL     1      32.031  -9.348 -21.512  0.00  0.00    +0.140 C 
ENDBRANCH   9  11
ENDBRANCH   6   9
ENDBRANCH   3   6
ENDBRANCH   1   4
BRANCH   1  18
ATOM     17  O   UNL     1      37.173 -18.780 -23.456  0.00  0.00    -0.270 OA
ATOM     18  N   UNL     1      35.404 -17.403 -22.862  0.00  0.00    -0.295 N 
ATOM     19  C   UNL     1      36.215 -18.521 -22.733  0.00  0.00    +0.246 C 
ATOM     20  H   UNL     1      34.658 -17.285 -22.232  0.00  0.00    +0.150 HD
BRANCH  19  21
ATOM     21  C   UNL     1      35.851 -19.466 -21.645  0.00  0.00    +0.053 C 
ATOM     22  C   UNL     1      34.520 -19.841 -21.463  0.00  0.00    +0.005 C 
ATOM     23  C   UNL     1      36.841 -19.977 -20.807  0.00  0.00    +0.005 C 
ATOM     24  C   UNL     1      35.169 -21.239 -19.603  0.00  0.00    +0.000 C 
ATOM     25  C   UNL     1      34.179 -20.728 -20.441  0.00  0.00    +0.000 C 
ATOM     26  C   UNL     1      36.501 -20.864 -19.785  0.00  0.00    +0.000 C 
BRANCH  24  27
ATOM     27  C   UNL     1      34.816 -22.158 -18.543  0.00  0.00    +0.000 C 
ATOM     28  C   UNL     1      35.724 -22.424 -17.518  0.00  0.00    +0.000 C 
ATOM     29  C   UNL     1      33.566 -22.779 -18.545  0.00  0.00    +0.000 C 
ATOM     30  C   UNL     1      35.383 -23.310 -16.496  0.00  0.00    +0.000 C 
ATOM     31  C   UNL     1      33.226 -23.665 -17.522  0.00  0.00    +0.000 C 
ATOM     32  C   UNL     1      34.134 -23.930 -16.498  0.00  0.00    +0.000 C 
ENDBRANCH  24  27
ENDBRANCH  19  21
ENDBRANCH   1  18
BRANCH   1  33
ATOM     33  C   UNL     1      34.949 -16.837 -25.201  0.00  0.00    +0.041 C 
BRANCH  33  34
ATOM     34  C   UNL     1      33.551 -16.257 -25.419  0.00  0.00    +0.112 C 
BRANCH  34  36
ATOM     35  O   UNL     1      33.946 -15.052 -27.499  0.00  0.00    -0.250 OA
ATOM     36  C   UNL     1      33.536 -15.062 -26.347  0.00  0.00    +0.314 C 
BRANCH  36  37
ATOM     37  O   UNL     1      32.975 -13.977 -25.752  0.00  0.00    -0.480 OA
ATOM     38  H   UNL     1      32.055 -13.823 -25.829  0.00  0.00    +0.295 HD
ENDBRANCH  36  37
ENDBRANCH  34  36
ENDBRANCH  33  34
ENDBRANCH   1  33
TORSDOF 11
ENDMDL
MODEL 5
REMARK VINA RESULT:     -10.4      5.505     10.826
REMARK  Name = 16048422
REMARK  11 active torsions:
REMARK  status: ('A' for Active; 'I' for Inactive)
REMARK    1  A    between atoms: C_1  and  C_4
REMARK    2  A    between atoms: C_1  and  N_18
REMARK    3  A    between atoms: C_1  and  C_33
REMARK    4  A    between atoms: N_3  and  C_6
REMARK    5  A    between atoms: C_6  and  C_9
REMARK    6  A    between atoms: C_9  and  C_11
REMARK    7  A    between atoms: C_19  and  C_21
REMARK    8  A    between atoms: C_24  and  C_27
REMARK    9  A    between atoms: C_33  and  C_34
REMARK   10  A    between atoms: C_34  and  C_36
REMARK   11  A    between atoms: C_36  and  O_37
REMARK                            x       y       z     vdW  Elec       q    Type
REMARK                         _______ _______ _______ _____ _____    ______ ____
ROOT
ATOM      1  C   UNL     1      35.633 -17.162 -22.959  0.00  0.00    +0.149 C 
ENDROOT
BRANCH   1   4
ATOM      2  O   UNL     1      34.923 -15.627 -21.230  0.00  0.00    -0.273 OA
ATOM      3  N   UNL     1      34.782 -14.950 -23.447  0.00  0.00    -0.306 N 
ATOM      4  C   UNL     1      35.089 -15.842 -22.430  0.00  0.00    +0.240 C 
ATOM      5  H   UNL     1      34.954 -15.224 -24.377  0.00  0.00    +0.149 HD
BRANCH   3   6
ATOM      6  C   UNL     1      34.219 -13.641 -23.209  0.00  0.00    +0.061 C 
ATOM      7  C   UNL     1      35.045 -12.925 -22.130  0.00  0.00    +0.020 C 
ATOM      8  C   UNL     1      34.317 -12.836 -24.516  0.00  0.00    +0.020 C 
BRANCH   6   9
ATOM      9  C   UNL     1      32.724 -13.752 -22.810  0.00  0.00    +0.044 C 
BRANCH   9  11
ATOM     10  F   UNL     1      30.922 -10.073 -18.933  0.00  0.00    -0.204 F 
ATOM     11  C   UNL     1      32.241 -12.766 -21.771  0.00  0.00    -0.020 C 
ATOM     12  C   UNL     1      31.740 -11.525 -22.166  0.00  0.00    -0.002 C 
ATOM     13  C   UNL     1      32.297 -13.096 -20.417  0.00  0.00    -0.002 C 
ATOM     14  C   UNL     1      31.294 -10.616 -21.208  0.00  0.00    +0.029 C 
ATOM     15  C   UNL     1      31.850 -12.187 -19.458  0.00  0.00    +0.029 C 
ATOM     16  C   UNL     1      31.349 -10.947 -19.854  0.00  0.00    +0.140 C 
ENDBRANCH   9  11
ENDBRANCH   6   9
ENDBRANCH   3   6
ENDBRANCH   1   4
BRANCH   1  18
ATOM     17  O   UNL     1      35.305 -19.994 -23.300  0.00  0.00    -0.270 OA
ATOM     18  N   UNL     1      35.379 -18.131 -21.921  0.00  0.00    -0.295 N 
ATOM     19  C   UNL     1      35.235 -19.485 -22.185  0.00  0.00    +0.246 C 
ATOM     20  H   UNL     1      35.305 -17.820 -20.991  0.00  0.00    +0.150 HD
BRANCH  19  21
ATOM     21  C   UNL     1      34.949 -20.349 -21.010  0.00  0.00    +0.053 C 
ATOM     22  C   UNL     1      33.630 -20.596 -20.631  0.00  0.00    +0.005 C 
ATOM     23  C   UNL     1      36.000 -20.913 -20.288  0.00  0.00    +0.005 C 
ATOM     24  C   UNL     1      34.413 -21.971 -18.805  0.00  0.00    +0.000 C 
ATOM     25  C   UNL     1      33.362 -21.407 -19.527  0.00  0.00    +0.000 C 
ATOM     26  C   UNL     1      35.732 -21.725 -19.185  0.00  0.00    +0.000 C 
BRANCH  24  27
ATOM     27  C   UNL     1      34.135 -22.812 -17.661  0.00  0.00    +0.000 C 
ATOM     28  C   UNL     1      32.820 -23.158 -17.352  0.00  0.00    +0.000 C 
ATOM     29  C   UNL     1      35.183 -23.279 -16.868  0.00  0.00    +0.000 C 
ATOM     30  C   UNL     1      32.552 -23.970 -16.250  0.00  0.00    +0.000 C 
ATOM     31  C   UNL     1      34.915 -24.091 -15.765  0.00  0.00    +0.000 C 
ATOM     32  C   UNL     1      33.600 -24.436 -15.456  0.00  0.00    +0.000 C 
ENDBRANCH  24  27
ENDBRANCH  19  21
ENDBRANCH   1  18
BRANCH   1  33
ATOM     33  C   UNL     1      34.948 -17.577 -24.267  0.00  0.00    +0.041 C 
BRANCH  33  34
ATOM     34  C   UNL     1      35.195 -16.623 -25.438  0.00  0.00    +0.112 C 
BRANCH  34  36
ATOM     35  O   UNL     1      33.748 -15.359 -26.935  0.00  0.00    -0.250 OA
ATOM     36  C   UNL     1      33.958 -16.362 -26.268  0.00  0.00    +0.314 C 
BRANCH  36  37
ATOM     37  O   UNL     1      33.093 -17.409 -26.214  0.00  0.00    -0.480 OA
ATOM     38  H   UNL     1      32.170 -17.253 -26.174  0.00  0.00    +0.295 HD
ENDBRANCH  36  37
ENDBRANCH  34  36
ENDBRANCH  33  34
ENDBRANCH   1  33
TORSDOF 11
ENDMDL
MODEL 6
REMARK VINA RESULT:     -10.4      5.510     10.845
REMARK  Name = 16048422
REMARK  11 active torsions:
REMARK  status: ('A' for Active; 'I' for Inactive)
REMARK    1  A    between atoms: C_1  and  C_4
REMARK    2  A    between atoms: C_1  and  N_18
REMARK    3  A    between atoms: C_1  and  C_33
REMARK    4  A    between atoms: N_3  and  C_6
REMARK    5  A    between atoms: C_6  and  C_9
REMARK    6  A    between atoms: C_9  and  C_11
REMARK    7  A    between atoms: C_19  and  C_21
REMARK    8  A    between atoms: C_24  and  C_27
REMARK    9  A    between atoms: C_33  and  C_34
REMARK   10  A    between atoms: C_34  and  C_36
REMARK   11  A    between atoms: C_36  and  O_37
REMARK                            x       y       z     vdW  Elec       q    Type
REMARK                         _______ _______ _______ _____ _____    ______ ____
ROOT
ATOM      1  C   UNL     1      35.629 -17.163 -22.960  0.00  0.00    +0.149 C 
ENDROOT
BRANCH   1   4
ATOM      2  O   UNL     1      34.930 -15.621 -21.232  0.00  0.00    -0.273 OA
ATOM      3  N   UNL     1      34.781 -14.950 -23.450  0.00  0.00    -0.306 N 
ATOM      4  C   UNL     1      35.091 -15.839 -22.432  0.00  0.00    +0.240 C 
ATOM      5  H   UNL     1      34.950 -15.227 -24.380  0.00  0.00    +0.149 HD
BRANCH   3   6
ATOM      6  C   UNL     1      34.224 -13.638 -23.213  0.00  0.00    +0.061 C 
ATOM      7  C   UNL     1      35.055 -12.922 -22.139  0.00  0.00    +0.020 C 
ATOM      8  C   UNL     1      34.319 -12.837 -24.523  0.00  0.00    +0.020 C 
BRANCH   6   9
ATOM      9  C   UNL     1      32.730 -13.744 -22.809  0.00  0.00    +0.044 C 
BRANCH   9  11
ATOM     10  F   UNL     1      30.949 -10.039 -18.947  0.00  0.00    -0.204 F 
ATOM     11  C   UNL     1      32.252 -12.751 -21.774  0.00  0.00    -0.020 C 
ATOM     12  C   UNL     1      32.314 -13.073 -20.418  0.00  0.00    -0.002 C 
ATOM     13  C   UNL     1      31.750 -11.514 -22.175  0.00  0.00    -0.002 C 
ATOM     14  C   UNL     1      31.875 -12.156 -19.463  0.00  0.00    +0.029 C 
ATOM     15  C   UNL     1      31.310 -10.597 -21.220  0.00  0.00    +0.029 C 
ATOM     16  C   UNL     1      31.372 -10.919 -19.864  0.00  0.00    +0.140 C 
ENDBRANCH   9  11
ENDBRANCH   6   9
ENDBRANCH   3   6
ENDBRANCH   1   4
BRANCH   1  18
ATOM     17  O   UNL     1      35.405 -20.007 -23.286  0.00  0.00    -0.270 OA
ATOM     18  N   UNL     1      35.365 -18.130 -21.923  0.00  0.00    -0.295 N 
ATOM     19  C   UNL     1      35.274 -19.491 -22.179  0.00  0.00    +0.246 C 
ATOM     20  H   UNL     1      35.243 -17.814 -21.000  0.00  0.00    +0.150 HD
BRANCH  19  21
ATOM     21  C   UNL     1      34.969 -20.354 -21.009  0.00  0.00    +0.053 C 
ATOM     22  C   UNL     1      36.007 -20.945 -20.289  0.00  0.00    +0.005 C 
ATOM     23  C   UNL     1      33.645 -20.570 -20.629  0.00  0.00    +0.005 C 
ATOM     24  C   UNL     1      34.396 -21.973 -18.811  0.00  0.00    +0.000 C 
ATOM     25  C   UNL     1      35.720 -21.756 -19.190  0.00  0.00    +0.000 C 
ATOM     26  C   UNL     1      33.358 -21.380 -19.530  0.00  0.00    +0.000 C 
BRANCH  24  27
ATOM     27  C   UNL     1      34.098 -22.812 -17.671  0.00  0.00    +0.000 C 
ATOM     28  C   UNL     1      35.133 -23.289 -16.866  0.00  0.00    +0.000 C 
ATOM     29  C   UNL     1      32.776 -23.145 -17.375  0.00  0.00    +0.000 C 
ATOM     30  C   UNL     1      34.846 -24.098 -15.766  0.00  0.00    +0.000 C 
ATOM     31  C   UNL     1      32.489 -23.954 -16.276  0.00  0.00    +0.000 C 
ATOM     32  C   UNL     1      33.524 -24.430 -15.472  0.00  0.00    +0.000 C 
ENDBRANCH  24  27
ENDBRANCH  19  21
ENDBRANCH   1  18
BRANCH   1  33
ATOM     33  C   UNL     1      34.947 -17.573 -24.271  0.00  0.00    +0.041 C 
BRANCH  33  34
ATOM     34  C   UNL     1      35.195 -16.614 -25.437  0.00  0.00    +0.112 C 
BRANCH  34  36
ATOM     35  O   UNL     1      33.756 -15.369 -26.958  0.00  0.00    -0.250 OA
ATOM     36  C   UNL     1      33.964 -16.366 -26.281  0.00  0.00    +0.314 C 
BRANCH  36  37
ATOM     37  O   UNL     1      33.104 -17.416 -26.225  0.00  0.00    -0.480 OA
ATOM     38  H   UNL     1      32.480 -17.474 -25.529  0.00  0.00    +0.295 HD
ENDBRANCH  36  37
ENDBRANCH  34  36
ENDBRANCH  33  34
ENDBRANCH   1  33
TORSDOF 11
ENDMDL
MODEL 7
REMARK VINA RESULT:     -10.2      3.462      6.548
REMARK  Name = 16048422
REMARK  11 active torsions:
REMARK  status: ('A' for Active; 'I' for Inactive)
REMARK    1  A    between atoms: C_1  and  C_4
REMARK    2  A    between atoms: C_1  and  N_18
REMARK    3  A    between atoms: C_1  and  C_33
REMARK    4  A    between atoms: N_3  and  C_6
REMARK    5  A    between atoms: C_6  and  C_9
REMARK    6  A    between atoms: C_9  and  C_11
REMARK    7  A    between atoms: C_19  and  C_21
REMARK    8  A    between atoms: C_24  and  C_27
REMARK    9  A    between atoms: C_33  and  C_34
REMARK   10  A    between atoms: C_34  and  C_36
REMARK   11  A    between atoms: C_36  and  O_37
REMARK                            x       y       z     vdW  Elec       q    Type
REMARK                         _______ _______ _______ _____ _____    ______ ____
ROOT
ATOM      1  C   UNL     1      33.851 -23.494 -14.379  0.00  0.00    +0.149 C 
ENDROOT
BRANCH   1   4
ATOM      2  O   UNL     1      36.245 -23.224 -14.156  0.00  0.00    -0.273 OA
ATOM      3  N   UNL     1      35.080 -24.287 -12.451  0.00  0.00    -0.306 N 
ATOM      4  C   UNL     1      35.192 -23.631 -13.668  0.00  0.00    +0.240 C 
ATOM      5  H   UNL     1      34.186 -24.573 -12.153  0.00  0.00    +0.149 HD
BRANCH   3   6
ATOM      6  C   UNL     1      36.212 -24.572 -11.599  0.00  0.00    +0.061 C 
ATOM      7  C   UNL     1      37.228 -23.425 -11.708  0.00  0.00    +0.020 C 
ATOM      8  C   UNL     1      35.709 -24.645 -10.148  0.00  0.00    +0.020 C 
BRANCH   6   9
ATOM      9  C   UNL     1      36.845 -25.939 -11.970  0.00  0.00    +0.044 C 
BRANCH   9  11
ATOM     10  F   UNL     1      40.610 -25.858 -16.169  0.00  0.00    -0.204 F 
ATOM     11  C   UNL     1      37.854 -25.917 -13.096  0.00  0.00    -0.020 C 
ATOM     12  C   UNL     1      39.147 -25.447 -12.864  0.00  0.00    -0.002 C 
ATOM     13  C   UNL     1      37.492 -26.366 -14.365  0.00  0.00    -0.002 C 
ATOM     14  C   UNL     1      40.079 -25.428 -13.902  0.00  0.00    +0.029 C 
ATOM     15  C   UNL     1      38.423 -26.347 -15.404  0.00  0.00    +0.029 C 
ATOM     16  C   UNL     1      39.716 -25.877 -15.172  0.00  0.00    +0.140 C 
ENDBRANCH   9  11
ENDBRANCH   6   9
ENDBRANCH   3   6
ENDBRANCH   1   4
BRANCH   1  18
ATOM     17  O   UNL     1      34.583 -24.668 -16.895  0.00  0.00    -0.270 OA
ATOM     18  N   UNL     1      34.133 -22.792 -15.607  0.00  0.00    -0.295 N 
ATOM     19  C   UNL     1      34.480 -23.449 -16.778  0.00  0.00    +0.246 C 
ATOM     20  H   UNL     1      34.078 -21.810 -15.614  0.00  0.00    +0.150 HD
BRANCH  19  21
ATOM     21  C   UNL     1      34.767 -22.582 -17.950  0.00  0.00    +0.053 C 
ATOM     22  C   UNL     1      36.058 -22.096 -18.159  0.00  0.00    +0.005 C 
ATOM     23  C   UNL     1      33.745 -22.254 -18.840  0.00  0.00    +0.005 C 
ATOM     24  C   UNL     1      35.305 -20.953 -20.150  0.00  0.00    +0.000 C 
ATOM     25  C   UNL     1      36.326 -21.281 -19.259  0.00  0.00    +0.000 C 
ATOM     26  C   UNL     1      34.014 -21.439 -19.941  0.00  0.00    +0.000 C 
BRANCH  24  27
ATOM     27  C   UNL     1      35.583 -20.108 -21.290  0.00  0.00    +0.000 C 
ATOM     28  C   UNL     1      34.627 -19.956 -22.296  0.00  0.00    +0.000 C 
ATOM     29  C   UNL     1      36.806 -19.444 -21.386  0.00  0.00    +0.000 C 
ATOM     30  C   UNL     1      34.895 -19.140 -23.395  0.00  0.00    +0.000 C 
ATOM     31  C   UNL     1      37.073 -18.629 -22.486  0.00  0.00    +0.000 C 
ATOM     32  C   UNL     1      36.118 -18.477 -23.490  0.00  0.00    +0.000 C 
ENDBRANCH  24  27
ENDBRANCH  19  21
ENDBRANCH   1  18
BRANCH   1  33
ATOM     33  C   UNL     1      33.218 -24.861 -14.669  0.00  0.00    +0.041 C 
BRANCH  33  34
ATOM     34  C   UNL     1      31.832 -25.057 -14.050  0.00  0.00    +0.112 C 
BRANCH  34  36
ATOM     35  O   UNL     1      29.561 -25.284 -14.900  0.00  0.00    -0.250 OA
ATOM     36  C   UNL     1      30.704 -24.871 -15.040  0.00  0.00    +0.314 C 
BRANCH  36  37
ATOM     37  O   UNL     1      31.103 -24.148 -16.118  0.00  0.00    -0.480 OA
ATOM     38  H   UNL     1      30.981 -23.219 -16.132  0.00  0.00    +0.295 HD
ENDBRANCH  36  37
ENDBRANCH  34  36
ENDBRANCH  33  34
ENDBRANCH   1  33
TORSDOF 11
ENDMDL
MODEL 8
REMARK VINA RESULT:     -10.1      3.596      6.098
REMARK  Name = 16048422
REMARK  11 active torsions:
REMARK  status: ('A' for Active; 'I' for Inactive)
REMARK    1  A    between atoms: C_1  and  C_4
REMARK    2  A    between atoms: C_1  and  N_18
REMARK    3  A    between atoms: C_1  and  C_33
REMARK    4  A    between atoms: N_3  and  C_6
REMARK    5  A    between atoms: C_6  and  C_9
REMARK    6  A    between atoms: C_9  and  C_11
REMARK    7  A    between atoms: C_19  and  C_21
REMARK    8  A    between atoms: C_24  and  C_27
REMARK    9  A    between atoms: C_33  and  C_34
REMARK   10  A    between atoms: C_34  and  C_36
REMARK   11  A    between atoms: C_36  and  O_37
REMARK                            x       y       z     vdW  Elec       q    Type
REMARK                         _______ _______ _______ _____ _____    ______ ____
ROOT
ATOM      1  C   UNL     1      35.734 -23.234 -15.749  0.00  0.00    +0.149 C 
ENDROOT
BRANCH   1   4
ATOM      2  O   UNL     1      38.086 -22.673 -15.661  0.00  0.00    -0.273 OA
ATOM      3  N   UNL     1      37.449 -24.871 -15.264  0.00  0.00    -0.306 N 
ATOM      4  C   UNL     1      37.214 -23.534 -15.548  0.00  0.00    +0.240 C 
ATOM      5  H   UNL     1      36.676 -25.478 -15.196  0.00  0.00    +0.149 HD
BRANCH   3   6
ATOM      6  C   UNL     1      38.772 -25.417 -15.063  0.00  0.00    +0.061 C 
ATOM      7  C   UNL     1      38.764 -26.908 -15.430  0.00  0.00    +0.020 C 
ATOM      8  C   UNL     1      39.737 -24.684 -16.010  0.00  0.00    +0.020 C 
BRANCH   6   9
ATOM      9  C   UNL     1      39.243 -25.185 -13.604  0.00  0.00    +0.044 C 
BRANCH   9  11
ATOM     10  F   UNL     1      35.194 -23.997  -9.860  0.00  0.00    -0.204 F 
ATOM     11  C   UNL     1      38.157 -24.866 -12.600  0.00  0.00    -0.020 C 
ATOM     12  C   UNL     1      37.177 -25.815 -12.308  0.00  0.00    -0.002 C 
ATOM     13  C   UNL     1      38.136 -23.624 -11.967  0.00  0.00    -0.002 C 
ATOM     14  C   UNL     1      36.177 -25.522 -11.382  0.00  0.00    +0.029 C 
ATOM     15  C   UNL     1      37.136 -23.330 -11.041  0.00  0.00    +0.029 C 
ATOM     16  C   UNL     1      36.156 -24.279 -10.749  0.00  0.00    +0.140 C 
ENDBRANCH   9  11
ENDBRANCH   6   9
ENDBRANCH   3   6
ENDBRANCH   1   4
BRANCH   1  18
ATOM     17  O   UNL     1      34.099 -23.692 -18.064  0.00  0.00    -0.270 OA
ATOM     18  N   UNL     1      35.663 -22.409 -16.930  0.00  0.00    -0.295 N 
ATOM     19  C   UNL     1      34.838 -22.713 -18.003  0.00  0.00    +0.246 C 
ATOM     20  H   UNL     1      36.220 -21.599 -16.977  0.00  0.00    +0.150 HD
BRANCH  19  21
ATOM     21  C   UNL     1      34.899 -21.778 -19.156  0.00  0.00    +0.053 C 
ATOM     22  C   UNL     1      33.722 -21.340 -19.763  0.00  0.00    +0.005 C 
ATOM     23  C   UNL     1      36.134 -21.338 -19.631  0.00  0.00    +0.005 C 
ATOM     24  C   UNL     1      35.015 -20.022 -21.320  0.00  0.00    +0.000 C 
ATOM     25  C   UNL     1      33.780 -20.462 -20.846  0.00  0.00    +0.000 C 
ATOM     26  C   UNL     1      36.193 -20.459 -20.713  0.00  0.00    +0.000 C 
BRANCH  24  27
ATOM     27  C   UNL     1      35.076 -19.112 -22.443  0.00  0.00    +0.000 C 
ATOM     28  C   UNL     1      35.606 -17.832 -22.275  0.00  0.00    +0.000 C 
ATOM     29  C   UNL     1      34.607 -19.513 -23.694  0.00  0.00    +0.000 C 
ATOM     30  C   UNL     1      35.666 -16.954 -23.358  0.00  0.00    +0.000 C 
ATOM     31  C   UNL     1      34.667 -18.635 -24.776  0.00  0.00    +0.000 C 
ATOM     32  C   UNL     1      35.196 -17.356 -24.608  0.00  0.00    +0.000 C 
ENDBRANCH  24  27
ENDBRANCH  19  21
ENDBRANCH   1  18
BRANCH   1  33
ATOM     33  C   UNL     1      34.914 -24.516 -15.933  0.00  0.00    +0.041 C 
BRANCH  33  34
ATOM     34  C   UNL     1      34.020 -24.868 -14.742  0.00  0.00    +0.112 C 
BRANCH  34  36
ATOM     35  O   UNL     1      32.253 -23.255 -15.199  0.00  0.00    -0.250 OA
ATOM     36  C   UNL     1      33.017 -23.787 -14.406  0.00  0.00    +0.314 C 
BRANCH  36  37
ATOM     37  O   UNL     1      33.039 -23.483 -13.082  0.00  0.00    -0.480 OA
ATOM     38  H   UNL     1      32.324 -23.016 -12.696  0.00  0.00    +0.295 HD
ENDBRANCH  36  37
ENDBRANCH  34  36
ENDBRANCH  33  34
ENDBRANCH   1  33
TORSDOF 11
ENDMDL
MODEL 9
REMARK VINA RESULT:     -10.1      9.805     14.448
REMARK  Name = 16048422
REMARK  11 active torsions:
REMARK  status: ('A' for Active; 'I' for Inactive)
REMARK    1  A    between atoms: C_1  and  C_4
REMARK    2  A    between atoms: C_1  and  N_18
REMARK    3  A    between atoms: C_1  and  C_33
REMARK    4  A    between atoms: N_3  and  C_6
REMARK    5  A    between atoms: C_6  and  C_9
REMARK    6  A    between atoms: C_9  and  C_11
REMARK    7  A    between atoms: C_19  and  C_21
REMARK    8  A    between atoms: C_24  and  C_27
REMARK    9  A    between atoms: C_33  and  C_34
REMARK   10  A    between atoms: C_34  and  C_36
REMARK   11  A    between atoms: C_36  and  O_37
REMARK                            x       y       z     vdW  Elec       q    Type
REMARK                         _______ _______ _______ _____ _____    ______ ____
ROOT
ATOM      1  C   UNL     1      32.205 -11.212 -21.432  0.00  0.00    +0.149 C 
ENDROOT
BRANCH   1   4
ATOM      2  O   UNL     1      32.394 -13.582 -21.877  0.00  0.00    -0.273 OA
ATOM      3  N   UNL     1      33.364 -12.088 -23.367  0.00  0.00    -0.306 N 
ATOM      4  C   UNL     1      32.642 -12.431 -22.234  0.00  0.00    +0.240 C 
ATOM      5  H   UNL     1      33.506 -11.133 -23.561  0.00  0.00    +0.149 HD
BRANCH   3   6
ATOM      6  C   UNL     1      33.920 -13.064 -24.277  0.00  0.00    +0.061 C 
ATOM      7  C   UNL     1      32.792 -13.966 -24.801  0.00  0.00    +0.020 C 
ATOM      8  C   UNL     1      34.536 -12.308 -25.467  0.00  0.00    +0.020 C 
BRANCH   6   9
ATOM      9  C   UNL     1      35.038 -13.884 -23.583  0.00  0.00    +0.044 C 
BRANCH   9  11
ATOM     10  F   UNL     1      35.030 -19.431 -24.610  0.00  0.00    -0.204 F 
ATOM     11  C   UNL     1      35.036 -15.371 -23.858  0.00  0.00    -0.020 C 
ATOM     12  C   UNL     1      35.317 -16.271 -22.830  0.00  0.00    -0.002 C 
ATOM     13  C   UNL     1      34.753 -15.842 -25.140  0.00  0.00    -0.002 C 
ATOM     14  C   UNL     1      35.314 -17.643 -23.084  0.00  0.00    +0.029 C 
ATOM     15  C   UNL     1      34.750 -17.214 -25.394  0.00  0.00    +0.029 C 
ATOM     16  C   UNL     1      35.031 -18.114 -24.365  0.00  0.00    +0.140 C 
ENDBRANCH   9  11
ENDBRANCH   6   9
ENDBRANCH   3   6
ENDBRANCH   1   4
BRANCH   1  18
ATOM     17  O   UNL     1      32.943  -8.549 -20.653  0.00  0.00    -0.270 OA
ATOM     18  N   UNL     1      32.401 -10.082 -22.307  0.00  0.00    -0.295 N 
ATOM     19  C   UNL     1      32.760  -8.827 -21.835  0.00  0.00    +0.246 C 
ATOM     20  H   UNL     1      32.277 -10.205 -23.275  0.00  0.00    +0.150 HD
BRANCH  19  21
ATOM     21  C   UNL     1      32.896  -7.762 -22.861  0.00  0.00    +0.053 C 
ATOM     22  C   UNL     1      31.760  -7.235 -23.475  0.00  0.00    +0.005 C 
ATOM     23  C   UNL     1      34.161  -7.288 -23.210  0.00  0.00    +0.005 C 
ATOM     24  C   UNL     1      33.153  -5.761 -24.788  0.00  0.00    +0.000 C 
ATOM     25  C   UNL     1      31.889  -6.234 -24.439  0.00  0.00    +0.000 C 
ATOM     26  C   UNL     1      34.290  -6.287 -24.174  0.00  0.00    +0.000 C 
BRANCH  24  27
ATOM     27  C   UNL     1      33.287  -4.723 -25.787  0.00  0.00    +0.000 C 
ATOM     28  C   UNL     1      32.700  -3.475 -25.579  0.00  0.00    +0.000 C 
ATOM     29  C   UNL     1      34.004  -4.970 -26.958  0.00  0.00    +0.000 C 
ATOM     30  C   UNL     1      32.831  -2.474 -26.542  0.00  0.00    +0.000 C 
ATOM     31  C   UNL     1      34.134  -3.969 -27.921  0.00  0.00    +0.000 C 
ATOM     32  C   UNL     1      33.547  -2.721 -27.713  0.00  0.00    +0.000 C 
ENDBRANCH  24  27
ENDBRANCH  19  21
ENDBRANCH   1  18
BRANCH   1  33
ATOM     33  C   UNL     1      30.738 -11.312 -20.998  0.00  0.00    +0.041 C 
BRANCH  33  34
ATOM     34  C   UNL     1      30.473 -10.854 -19.562  0.00  0.00    +0.112 C 
BRANCH  34  36
ATOM     35  O   UNL     1      31.777 -12.288 -18.086  0.00  0.00    -0.250 OA
ATOM     36  C   UNL     1      31.596 -11.197 -18.608  0.00  0.00    +0.314 C 
BRANCH  36  37
ATOM     37  O   UNL     1      32.423 -10.137 -18.412  0.00  0.00    -0.480 OA
ATOM     38  H   UNL     1      33.221 -10.068 -18.896  0.00  0.00    +0.295 HD
ENDBRANCH  36  37
ENDBRANCH  34  36
ENDBRANCH  33  34
ENDBRANCH   1  33
TORSDOF 11
ENDMDL
