MODEL 1
REMARK VINA RESULT:     -11.6      0.000      0.000
REMARK  Name = 447656
REMARK  5 active torsions:
REMARK  status: ('A' for Active; 'I' for Inactive)
REMARK    1  A    between atoms: N_5  and  C_14
REMARK    2  A    between atoms: C_6  and  O_25
REMARK    3  A    between atoms: C_17  and  C_22
REMARK    4  A    between atoms: O_25  and  C_26
REMARK    5  A    between atoms: C_26  and  C_27
REMARK                            x       y       z     vdW  Elec       q    Type
REMARK                         _______ _______ _______ _____ _____    ______ ____
ROOT
ATOM      1  N   UNL     1      34.070 -23.881 -16.301  0.00  0.00    -0.293 NA
ATOM      2  N   UNL     1      30.732 -22.603 -17.167  0.00  0.00    -0.266 NA
ATOM      3  N   UNL     1      32.425 -24.098 -14.513  0.00  0.00    -0.316 NA
ATOM      4  N   UNL     1      30.222 -23.250 -15.096  0.00  0.00    -0.296 N 
ATOM      5  N   UNL     1      34.630 -24.829 -14.234  0.00  0.00    -0.238 N 
ATOM      6  C   UNL     1      33.165 -23.310 -17.123  0.00  0.00    +0.288 C 
ATOM      7  C   UNL     1      31.882 -23.128 -16.649  0.00  0.00    +0.215 C 
ATOM      8  C   UNL     1      31.539 -23.522 -15.362  0.00  0.00    +0.196 C 
ATOM      9  C   UNL     1      33.651 -24.235 -15.063  0.00  0.00    +0.207 C 
ATOM     10  C   UNL     1      29.767 -22.698 -16.201  0.00  0.00    +0.164 C 
ATOM     11  H   UNL     1      30.619 -22.226 -18.069  0.00  0.00    +0.126 HD
ATOM     12  H   UNL     1      29.727 -23.428 -14.263  0.00  0.00    +0.150 HD
ATOM     13  H   UNL     1      34.296 -25.077 -13.341  0.00  0.00    +0.166 HD
ENDROOT
BRANCH   5  14
ATOM     14  C   UNL     1      35.987 -25.137 -14.435  0.00  0.00    +0.058 C 
ATOM     15  C   UNL     1      36.980 -24.305 -13.911  0.00  0.00    +0.015 C 
ATOM     16  C   UNL     1      36.349 -26.274 -15.161  0.00  0.00    +0.015 C 
ATOM     17  C   UNL     1      38.684 -25.746 -14.835  0.00  0.00    +0.053 C 
ATOM     18  C   UNL     1      38.327 -24.610 -14.110  0.00  0.00    +0.006 C 
ATOM     19  C   UNL     1      37.696 -26.579 -15.360  0.00  0.00    +0.006 C 
BRANCH  17  22
ATOM     20  O   UNL     1      40.638 -25.883 -16.144  0.00  0.00    -0.270 OA
ATOM     21  N   UNL     1      40.806 -26.562 -13.959  0.00  0.00    -0.325 N 
ATOM     22  C   UNL     1      40.087 -26.064 -15.043  0.00  0.00    +0.243 C 
ATOM     23  H   UNL     1      41.759 -26.789 -14.063  0.00  0.00    +0.145 HD
ATOM     24  H   UNL     1      40.361 -26.689 -13.090  0.00  0.00    +0.145 HD
ENDBRANCH  17  22
ENDBRANCH   5  14
BRANCH   6  25
ATOM     25  O   UNL     1      33.557 -22.938 -18.386  0.00  0.00    -0.453 OA
BRANCH  25  26
ATOM     26  C   UNL     1      34.914 -22.571 -18.555  0.00  0.00    +0.208 C 
BRANCH  26  27
ATOM     27  C   UNL     1      35.048 -21.803 -19.869  0.00  0.00    +0.044 C 
ATOM     28  C   UNL     1      33.787 -20.973 -20.142  0.00  0.00    +0.004 C 
ATOM     29  C   UNL     1      36.296 -20.910 -19.850  0.00  0.00    +0.004 C 
ATOM     30  C   UNL     1      33.917 -20.154 -21.424  0.00  0.00    +0.000 C 
ATOM     31  C   UNL     1      36.422 -20.091 -21.132  0.00  0.00    +0.000 C 
ATOM     32  C   UNL     1      35.163 -19.275 -21.406  0.00  0.00    +0.000 C 
ENDBRANCH  26  27
ENDBRANCH  25  26
ENDBRANCH   6  25
TORSDOF 5
ENDMDL
MODEL 2
REMARK VINA RESULT:     -11.4      2.192      6.581
REMARK  Name = 447656
REMARK  5 active torsions:
REMARK  status: ('A' for Active; 'I' for Inactive)
REMARK    1  A    between atoms: N_5  and  C_14
REMARK    2  A    between atoms: C_6  and  O_25
REMARK    3  A    between atoms: C_17  and  C_22
REMARK    4  A    between atoms: O_25  and  C_26
REMARK    5  A    between atoms: C_26  and  C_27
REMARK                            x       y       z     vdW  Elec       q    Type
REMARK                         _______ _______ _______ _____ _____    ______ ____
ROOT
ATOM      1  N   UNL     1      34.562 -24.115 -14.847  0.00  0.00    -0.293 NA
ATOM      2  N   UNL     1      38.080 -24.274 -13.790  0.00  0.00    -0.266 NA
ATOM      3  N   UNL     1      34.869 -24.498 -12.457  0.00  0.00    -0.316 NA
ATOM      4  N   UNL     1      37.198 -24.602 -11.769  0.00  0.00    -0.296 N 
ATOM      5  N   UNL     1      32.733 -24.353 -13.403  0.00  0.00    -0.238 N 
ATOM      6  C   UNL     1      35.895 -24.076 -15.056  0.00  0.00    +0.288 C 
ATOM      7  C   UNL     1      36.726 -24.249 -13.968  0.00  0.00    +0.215 C 
ATOM      8  C   UNL     1      36.201 -24.455 -12.699  0.00  0.00    +0.196 C 
ATOM      9  C   UNL     1      34.136 -24.320 -13.578  0.00  0.00    +0.207 C 
ATOM     10  C   UNL     1      38.314 -24.488 -12.458  0.00  0.00    +0.164 C 
ATOM     11  H   UNL     1      38.763 -24.159 -14.491  0.00  0.00    +0.126 HD
ATOM     12  H   UNL     1      37.101 -24.758 -10.802  0.00  0.00    +0.150 HD
ATOM     13  H   UNL     1      32.453 -24.503 -12.471  0.00  0.00    +0.166 HD
ENDROOT
BRANCH   5  14
ATOM     14  C   UNL     1      31.660 -24.212 -14.300  0.00  0.00    +0.058 C 
ATOM     15  C   UNL     1      31.419 -22.983 -14.919  0.00  0.00    +0.015 C 
ATOM     16  C   UNL     1      30.829 -25.301 -14.576  0.00  0.00    +0.015 C 
ATOM     17  C   UNL     1      29.527 -23.932 -16.083  0.00  0.00    +0.053 C 
ATOM     18  C   UNL     1      30.355 -22.843 -15.809  0.00  0.00    +0.006 C 
ATOM     19  C   UNL     1      29.764 -25.161 -15.467  0.00  0.00    +0.006 C 
BRANCH  17  22
ATOM     20  O   UNL     1      27.994 -24.753 -17.672  0.00  0.00    -0.270 OA
ATOM     21  N   UNL     1      27.828 -22.531 -17.125  0.00  0.00    -0.325 N 
ATOM     22  C   UNL     1      28.418 -23.787 -17.011  0.00  0.00    +0.243 C 
ATOM     23  H   UNL     1      27.075 -22.395 -17.745  0.00  0.00    +0.145 HD
ATOM     24  H   UNL     1      28.165 -21.778 -16.588  0.00  0.00    +0.145 HD
ENDBRANCH  17  22
ENDBRANCH   5  14
BRANCH   6  25
ATOM     25  O   UNL     1      36.361 -23.871 -16.331  0.00  0.00    -0.453 OA
BRANCH  25  26
ATOM     26  C   UNL     1      36.461 -22.528 -16.770  0.00  0.00    +0.208 C 
BRANCH  26  27
ATOM     27  C   UNL     1      35.927 -22.445 -18.199  0.00  0.00    +0.044 C 
ATOM     28  C   UNL     1      34.393 -22.391 -18.203  0.00  0.00    +0.004 C 
ATOM     29  C   UNL     1      36.518 -21.233 -18.929  0.00  0.00    +0.004 C 
ATOM     30  C   UNL     1      33.837 -22.254 -19.619  0.00  0.00    +0.000 C 
ATOM     31  C   UNL     1      35.958 -21.097 -20.343  0.00  0.00    +0.000 C 
ATOM     32  C   UNL     1      34.434 -21.053 -20.344  0.00  0.00    +0.000 C 
ENDBRANCH  26  27
ENDBRANCH  25  26
ENDBRANCH   6  25
TORSDOF 5
ENDMDL
MODEL 3
REMARK VINA RESULT:     -11.3      7.397     10.944
REMARK  Name = 447656
REMARK  5 active torsions:
REMARK  status: ('A' for Active; 'I' for Inactive)
REMARK    1  A    between atoms: N_5  and  C_14
REMARK    2  A    between atoms: C_6  and  O_25
REMARK    3  A    between atoms: C_17  and  C_22
REMARK    4  A    between atoms: O_25  and  C_26
REMARK    5  A    between atoms: C_26  and  C_27
REMARK                            x       y       z     vdW  Elec       q    Type
REMARK                         _______ _______ _______ _____ _____    ______ ____
ROOT
ATOM      1  N   UNL     1      34.710 -15.851 -23.613  0.00  0.00    -0.293 NA
ATOM      2  N   UNL     1      33.633 -13.002 -25.674  0.00  0.00    -0.266 NA
ATOM      3  N   UNL     1      34.569 -16.342 -25.999  0.00  0.00    -0.316 NA
ATOM      4  N   UNL     1      33.856 -14.452 -27.351  0.00  0.00    -0.296 N 
ATOM      5  N   UNL     1      35.229 -17.973 -24.457  0.00  0.00    -0.238 N 
ATOM      6  C   UNL     1      34.315 -14.575 -23.809  0.00  0.00    +0.288 C 
ATOM      7  C   UNL     1      34.043 -14.171 -25.100  0.00  0.00    +0.215 C 
ATOM      8  C   UNL     1      34.175 -15.056 -26.162  0.00  0.00    +0.196 C 
ATOM      9  C   UNL     1      34.812 -16.645 -24.705  0.00  0.00    +0.207 C 
ATOM     10  C   UNL     1      33.535 -13.219 -27.022  0.00  0.00    +0.164 C 
ATOM     11  H   UNL     1      33.442 -12.158 -25.204  0.00  0.00    +0.126 HD
ATOM     12  H   UNL     1      33.865 -14.852 -28.251  0.00  0.00    +0.150 HD
ATOM     13  H   UNL     1      35.295 -18.527 -25.268  0.00  0.00    +0.166 HD
ENDROOT
BRANCH   5  14
ATOM     14  C   UNL     1      35.570 -18.657 -23.276  0.00  0.00    +0.058 C 
ATOM     15  C   UNL     1      34.638 -19.494 -22.657  0.00  0.00    +0.015 C 
ATOM     16  C   UNL     1      36.841 -18.504 -22.717  0.00  0.00    +0.015 C 
ATOM     17  C   UNL     1      36.245 -20.018 -20.931  0.00  0.00    +0.053 C 
ATOM     18  C   UNL     1      34.975 -20.174 -21.486  0.00  0.00    +0.006 C 
ATOM     19  C   UNL     1      37.178 -19.183 -21.547  0.00  0.00    +0.006 C 
BRANCH  17  22
ATOM     20  O   UNL     1      37.347 -20.217 -18.859  0.00  0.00    -0.270 OA
ATOM     21  N   UNL     1      36.049 -21.991 -19.516  0.00  0.00    -0.325 N 
ATOM     22  C   UNL     1      36.596 -20.726 -19.711  0.00  0.00    +0.243 C 
ATOM     23  H   UNL     1      36.266 -22.501 -18.701  0.00  0.00    +0.145 HD
ATOM     24  H   UNL     1      35.447 -22.377 -20.192  0.00  0.00    +0.145 HD
ENDBRANCH  17  22
ENDBRANCH   5  14
BRANCH   6  25
ATOM     25  O   UNL     1      34.201 -13.742 -22.723  0.00  0.00    -0.453 OA
BRANCH  25  26
ATOM     26  C   UNL     1      33.448 -14.220 -21.623  0.00  0.00    +0.208 C 
BRANCH  26  27
ATOM     27  C   UNL     1      32.349 -13.205 -21.312  0.00  0.00    +0.044 C 
ATOM     28  C   UNL     1      32.447 -12.730 -19.855  0.00  0.00    +0.004 C 
ATOM     29  C   UNL     1      32.418 -12.016 -22.279  0.00  0.00    +0.004 C 
ATOM     30  C   UNL     1      31.391 -11.675 -19.534  0.00  0.00    +0.000 C 
ATOM     31  C   UNL     1      31.363 -10.962 -21.953  0.00  0.00    +0.000 C 
ATOM     32  C   UNL     1      31.458 -10.499 -20.503  0.00  0.00    +0.000 C 
ENDBRANCH  26  27
ENDBRANCH  25  26
ENDBRANCH   6  25
TORSDOF 5
ENDMDL
MODEL 4
REMARK VINA RESULT:     -11.2      1.984      6.650
REMARK  Name = 447656
REMARK  5 active torsions:
REMARK  status: ('A' for Active; 'I' for Inactive)
REMARK    1  A    between atoms: N_5  and  C_14
REMARK    2  A    between atoms: C_6  and  O_25
REMARK    3  A    between atoms: C_17  and  C_22
REMARK    4  A    between atoms: O_25  and  C_26
REMARK    5  A    between atoms: C_26  and  C_27
REMARK                            x       y       z     vdW  Elec       q    Type
REMARK                         _______ _______ _______ _____ _____    ______ ____
ROOT
ATOM      1  N   UNL     1      34.197 -23.645 -16.004  0.00  0.00    -0.293 NA
ATOM      2  N   UNL     1      37.855 -23.916 -15.750  0.00  0.00    -0.266 NA
ATOM      3  N   UNL     1      34.975 -24.801 -14.001  0.00  0.00    -0.316 NA
ATOM      4  N   UNL     1      37.394 -24.975 -13.844  0.00  0.00    -0.296 N 
ATOM      5  N   UNL     1      32.694 -24.487 -14.417  0.00  0.00    -0.238 N 
ATOM      6  C   UNL     1      35.461 -23.447 -16.433  0.00  0.00    +0.288 C 
ATOM      7  C   UNL     1      36.493 -23.924 -15.651  0.00  0.00    +0.215 C 
ATOM      8  C   UNL     1      36.232 -24.587 -14.459  0.00  0.00    +0.196 C 
ATOM      9  C   UNL     1      34.033 -24.301 -14.830  0.00  0.00    +0.207 C 
ATOM     10  C   UNL     1      38.350 -24.557 -14.646  0.00  0.00    +0.164 C 
ATOM     11  H   UNL     1      38.384 -23.522 -16.482  0.00  0.00    +0.126 HD
ATOM     12  H   UNL     1      37.492 -25.459 -12.992  0.00  0.00    +0.150 HD
ATOM     13  H   UNL     1      32.605 -24.966 -13.562  0.00  0.00    +0.166 HD
ENDROOT
BRANCH   5  14
ATOM     14  C   UNL     1      31.463 -24.121 -14.990  0.00  0.00    +0.058 C 
ATOM     15  C   UNL     1      30.632 -25.096 -15.550  0.00  0.00    +0.015 C 
ATOM     16  C   UNL     1      31.064 -22.783 -15.002  0.00  0.00    +0.015 C 
ATOM     17  C   UNL     1      29.016 -23.396 -16.128  0.00  0.00    +0.053 C 
ATOM     18  C   UNL     1      29.411 -24.734 -16.118  0.00  0.00    +0.006 C 
ATOM     19  C   UNL     1      29.842 -22.420 -15.570  0.00  0.00    +0.006 C 
BRANCH  17  22
ATOM     20  O   UNL     1      27.491 -23.245 -17.917  0.00  0.00    -0.270 OA
ATOM     21  N   UNL     1      26.801 -22.409 -15.895  0.00  0.00    -0.325 N 
ATOM     22  C   UNL     1      27.743 -23.018 -16.720  0.00  0.00    +0.243 C 
ATOM     23  H   UNL     1      25.928 -22.139 -16.262  0.00  0.00    +0.145 HD
ATOM     24  H   UNL     1      27.008 -22.247 -14.946  0.00  0.00    +0.145 HD
ENDBRANCH  17  22
ENDBRANCH   5  14
BRANCH   6  25
ATOM     25  O   UNL     1      35.663 -22.786 -17.620  0.00  0.00    -0.453 OA
BRANCH  25  26
ATOM     26  C   UNL     1      34.578 -22.750 -18.528  0.00  0.00    +0.208 C 
BRANCH  26  27
ATOM     27  C   UNL     1      35.016 -21.986 -19.776  0.00  0.00    +0.044 C 
ATOM     28  C   UNL     1      33.941 -20.975 -20.198  0.00  0.00    +0.004 C 
ATOM     29  C   UNL     1      36.360 -21.285 -19.539  0.00  0.00    +0.004 C 
ATOM     30  C   UNL     1      34.378 -20.161 -21.414  0.00  0.00    +0.000 C 
ATOM     31  C   UNL     1      36.793 -20.469 -20.754  0.00  0.00    +0.000 C 
ATOM     32  C   UNL     1      35.718 -19.473 -21.177  0.00  0.00    +0.000 C 
ENDBRANCH  26  27
ENDBRANCH  25  26
ENDBRANCH   6  25
TORSDOF 5
ENDMDL
MODEL 5
REMARK VINA RESULT:     -11.2      2.451      7.073
REMARK  Name = 447656
REMARK  5 active torsions:
REMARK  status: ('A' for Active; 'I' for Inactive)
REMARK    1  A    between atoms: N_5  and  C_14
REMARK    2  A    between atoms: C_6  and  O_25
REMARK    3  A    between atoms: C_17  and  C_22
REMARK    4  A    between atoms: O_25  and  C_26
REMARK    5  A    between atoms: C_26  and  C_27
REMARK                            x       y       z     vdW  Elec       q    Type
REMARK                         _______ _______ _______ _____ _____    ______ ____
ROOT
ATOM      1  N   UNL     1      34.132 -22.830 -16.717  0.00  0.00    -0.293 NA
ATOM      2  N   UNL     1      33.068 -24.694 -13.731  0.00  0.00    -0.266 NA
ATOM      3  N   UNL     1      31.883 -23.764 -16.873  0.00  0.00    -0.316 NA
ATOM      4  N   UNL     1      31.191 -24.995 -14.895  0.00  0.00    -0.296 N 
ATOM      5  N   UNL     1      32.814 -22.531 -18.630  0.00  0.00    -0.238 N 
ATOM      6  C   UNL     1      34.300 -23.331 -15.475  0.00  0.00    +0.288 C 
ATOM      7  C   UNL     1      33.263 -24.053 -14.922  0.00  0.00    +0.215 C 
ATOM      8  C   UNL     1      32.084 -24.254 -15.626  0.00  0.00    +0.196 C 
ATOM      9  C   UNL     1      32.950 -23.073 -17.332  0.00  0.00    +0.207 C 
ATOM     10  C   UNL     1      31.814 -25.242 -13.762  0.00  0.00    +0.164 C 
ATOM     11  H   UNL     1      33.712 -24.752 -12.988  0.00  0.00    +0.126 HD
ATOM     12  H   UNL     1      30.285 -25.278 -15.158  0.00  0.00    +0.150 HD
ATOM     13  H   UNL     1      31.946 -22.723 -19.052  0.00  0.00    +0.166 HD
ENDROOT
BRANCH   5  14
ATOM     14  C   UNL     1      33.678 -21.769 -19.437  0.00  0.00    +0.058 C 
ATOM     15  C   UNL     1      35.053 -22.016 -19.422  0.00  0.00    +0.015 C 
ATOM     16  C   UNL     1      33.165 -20.762 -20.258  0.00  0.00    +0.015 C 
ATOM     17  C   UNL     1      35.395 -20.257 -21.041  0.00  0.00    +0.053 C 
ATOM     18  C   UNL     1      35.910 -21.262 -20.222  0.00  0.00    +0.006 C 
ATOM     19  C   UNL     1      34.022 -20.007 -21.059  0.00  0.00    +0.006 C 
BRANCH  17  22
ATOM     20  O   UNL     1      35.977 -19.152 -23.038  0.00  0.00    -0.270 OA
ATOM     21  N   UNL     1      37.500 -19.065 -21.325  0.00  0.00    -0.325 N 
ATOM     22  C   UNL     1      36.288 -19.470 -21.876  0.00  0.00    +0.243 C 
ATOM     23  H   UNL     1      38.131 -18.531 -21.862  0.00  0.00    +0.145 HD
ATOM     24  H   UNL     1      37.729 -19.313 -20.400  0.00  0.00    +0.145 HD
ENDBRANCH  17  22
ENDBRANCH   5  14
BRANCH   6  25
ATOM     25  O   UNL     1      35.488 -23.103 -14.824  0.00  0.00    -0.453 OA
BRANCH  25  26
ATOM     26  C   UNL     1      36.677 -23.386 -15.537  0.00  0.00    +0.208 C 
BRANCH  26  27
ATOM     27  C   UNL     1      37.469 -24.438 -14.762  0.00  0.00    +0.044 C 
ATOM     28  C   UNL     1      37.596 -24.041 -13.285  0.00  0.00    +0.004 C 
ATOM     29  C   UNL     1      36.816 -25.819 -14.902  0.00  0.00    +0.004 C 
ATOM     30  C   UNL     1      38.338 -25.104 -12.477  0.00  0.00    +0.000 C 
ATOM     31  C   UNL     1      37.558 -26.879 -14.091  0.00  0.00    +0.000 C 
ATOM     32  C   UNL     1      37.691 -26.477 -12.626  0.00  0.00    +0.000 C 
ENDBRANCH  26  27
ENDBRANCH  25  26
ENDBRANCH   6  25
TORSDOF 5
ENDMDL
MODEL 6
REMARK VINA RESULT:     -10.7      2.604      7.339
REMARK  Name = 447656
REMARK  5 active torsions:
REMARK  status: ('A' for Active; 'I' for Inactive)
REMARK    1  A    between atoms: N_5  and  C_14
REMARK    2  A    between atoms: C_6  and  O_25
REMARK    3  A    between atoms: C_17  and  C_22
REMARK    4  A    between atoms: O_25  and  C_26
REMARK    5  A    between atoms: C_26  and  C_27
REMARK                            x       y       z     vdW  Elec       q    Type
REMARK                         _______ _______ _______ _____ _____    ______ ____
ROOT
ATOM      1  N   UNL     1      35.823 -23.755 -15.918  0.00  0.00    -0.293 NA
ATOM      2  N   UNL     1      36.667 -25.677 -12.898  0.00  0.00    -0.266 NA
ATOM      3  N   UNL     1      38.191 -23.703 -15.331  0.00  0.00    -0.316 NA
ATOM      4  N   UNL     1      38.737 -24.976 -13.334  0.00  0.00    -0.296 N 
ATOM      5  N   UNL     1      37.376 -22.566 -17.207  0.00  0.00    -0.238 N 
ATOM      6  C   UNL     1      35.535 -24.542 -14.860  0.00  0.00    +0.288 C 
ATOM      7  C   UNL     1      36.570 -24.916 -14.028  0.00  0.00    +0.215 C 
ATOM      8  C   UNL     1      37.869 -24.492 -14.278  0.00  0.00    +0.196 C 
ATOM      9  C   UNL     1      37.116 -23.389 -16.087  0.00  0.00    +0.207 C 
ATOM     10  C   UNL     1      37.983 -25.683 -12.520  0.00  0.00    +0.164 C 
ATOM     11  H   UNL     1      35.926 -26.136 -12.440  0.00  0.00    +0.126 HD
ATOM     12  H   UNL     1      39.709 -24.827 -13.277  0.00  0.00    +0.150 HD
ATOM     13  H   UNL     1      38.323 -22.316 -17.305  0.00  0.00    +0.166 HD
ENDROOT
BRANCH   5  14
ATOM     14  C   UNL     1      36.545 -22.034 -18.209  0.00  0.00    +0.058 C 
ATOM     15  C   UNL     1      37.060 -21.131 -19.142  0.00  0.00    +0.015 C 
ATOM     16  C   UNL     1      35.200 -22.406 -18.276  0.00  0.00    +0.015 C 
ATOM     17  C   UNL     1      34.894 -20.977 -20.200  0.00  0.00    +0.053 C 
ATOM     18  C   UNL     1      36.236 -20.603 -20.136  0.00  0.00    +0.006 C 
ATOM     19  C   UNL     1      34.376 -21.879 -19.270  0.00  0.00    +0.006 C 
BRANCH  17  22
ATOM     20  O   UNL     1      34.508 -19.857 -22.236  0.00  0.00    -0.270 OA
ATOM     21  N   UNL     1      32.660 -20.581 -21.086  0.00  0.00    -0.325 N 
ATOM     22  C   UNL     1      34.035 -20.429 -21.237  0.00  0.00    +0.243 C 
ATOM     23  H   UNL     1      32.047 -20.221 -21.768  0.00  0.00    +0.145 HD
ATOM     24  H   UNL     1      32.299 -21.046 -20.297  0.00  0.00    +0.145 HD
ENDBRANCH  17  22
ENDBRANCH   5  14
BRANCH   6  25
ATOM     25  O   UNL     1      34.233 -24.932 -14.659  0.00  0.00    -0.453 OA
BRANCH  25  26
ATOM     26  C   UNL     1      33.507 -24.252 -13.651  0.00  0.00    +0.208 C 
BRANCH  26  27
ATOM     27  C   UNL     1      32.088 -24.005 -14.159  0.00  0.00    +0.044 C 
ATOM     28  C   UNL     1      32.116 -23.283 -15.514  0.00  0.00    +0.004 C 
ATOM     29  C   UNL     1      31.310 -25.323 -14.259  0.00  0.00    +0.004 C 
ATOM     30  C   UNL     1      30.709 -23.071 -16.069  0.00  0.00    +0.000 C 
ATOM     31  C   UNL     1      29.905 -25.108 -14.817  0.00  0.00    +0.000 C 
ATOM     32  C   UNL     1      29.937 -24.382 -16.158  0.00  0.00    +0.000 C 
ENDBRANCH  26  27
ENDBRANCH  25  26
ENDBRANCH   6  25
TORSDOF 5
ENDMDL
MODEL 7
REMARK VINA RESULT:     -10.5      2.640      5.467
REMARK  Name = 447656
REMARK  5 active torsions:
REMARK  status: ('A' for Active; 'I' for Inactive)
REMARK    1  A    between atoms: N_5  and  C_14
REMARK    2  A    between atoms: C_6  and  O_25
REMARK    3  A    between atoms: C_17  and  C_22
REMARK    4  A    between atoms: O_25  and  C_26
REMARK    5  A    between atoms: C_26  and  C_27
REMARK                            x       y       z     vdW  Elec       q    Type
REMARK                         _______ _______ _______ _____ _____    ______ ____
ROOT
ATOM      1  N   UNL     1      35.363 -22.613 -17.818  0.00  0.00    -0.293 NA
ATOM      2  N   UNL     1      33.883 -21.093 -20.821  0.00  0.00    -0.266 NA
ATOM      3  N   UNL     1      36.839 -21.053 -18.977  0.00  0.00    -0.316 NA
ATOM      4  N   UNL     1      35.851 -20.055 -20.961  0.00  0.00    -0.296 N 
ATOM      5  N   UNL     1      37.525 -22.164 -17.035  0.00  0.00    -0.238 N 
ATOM      6  C   UNL     1      34.377 -22.415 -18.718  0.00  0.00    +0.288 C 
ATOM      7  C   UNL     1      34.612 -21.536 -19.754  0.00  0.00    +0.215 C 
ATOM      8  C   UNL     1      35.829 -20.877 -19.863  0.00  0.00    +0.196 C 
ATOM      9  C   UNL     1      36.518 -21.929 -17.999  0.00  0.00    +0.207 C 
ATOM     10  C   UNL     1      34.666 -20.208 -21.514  0.00  0.00    +0.164 C 
ATOM     11  H   UNL     1      32.964 -21.361 -21.050  0.00  0.00    +0.126 HD
ATOM     12  H   UNL     1      36.588 -19.478 -21.266  0.00  0.00    +0.150 HD
ATOM     13  H   UNL     1      38.352 -21.654 -17.192  0.00  0.00    +0.166 HD
ENDROOT
BRANCH   5  14
ATOM     14  C   UNL     1      37.575 -22.985 -15.895  0.00  0.00    +0.058 C 
ATOM     15  C   UNL     1      36.669 -22.790 -14.849  0.00  0.00    +0.015 C 
ATOM     16  C   UNL     1      38.531 -23.999 -15.801  0.00  0.00    +0.015 C 
ATOM     17  C   UNL     1      37.674 -24.616 -13.628  0.00  0.00    +0.053 C 
ATOM     18  C   UNL     1      36.718 -23.604 -13.717  0.00  0.00    +0.006 C 
ATOM     19  C   UNL     1      38.581 -24.814 -14.670  0.00  0.00    +0.006 C 
BRANCH  17  22
ATOM     20  O   UNL     1      38.157 -25.041 -11.362  0.00  0.00    -0.270 OA
ATOM     21  N   UNL     1      37.256 -26.770 -12.570  0.00  0.00    -0.325 N 
ATOM     22  C   UNL     1      37.726 -25.465 -12.449  0.00  0.00    +0.243 C 
ATOM     23  H   UNL     1      37.276 -27.374 -11.792  0.00  0.00    +0.145 HD
ATOM     24  H   UNL     1      36.906 -27.090 -13.433  0.00  0.00    +0.145 HD
ENDBRANCH  17  22
ENDBRANCH   5  14
BRANCH   6  25
ATOM     25  O   UNL     1      33.192 -23.093 -18.563  0.00  0.00    -0.453 OA
BRANCH  25  26
ATOM     26  C   UNL     1      32.314 -22.632 -17.553  0.00  0.00    +0.208 C 
BRANCH  26  27
ATOM     27  C   UNL     1      32.188 -23.719 -16.487  0.00  0.00    +0.044 C 
ATOM     28  C   UNL     1      32.978 -23.338 -15.228  0.00  0.00    +0.004 C 
ATOM     29  C   UNL     1      30.714 -23.979 -16.149  0.00  0.00    +0.004 C 
ATOM     30  C   UNL     1      32.824 -24.386 -14.127  0.00  0.00    +0.000 C 
ATOM     31  C   UNL     1      30.564 -25.024 -15.047  0.00  0.00    +0.000 C 
ATOM     32  C   UNL     1      31.358 -24.647 -13.801  0.00  0.00    +0.000 C 
ENDBRANCH  26  27
ENDBRANCH  25  26
ENDBRANCH   6  25
TORSDOF 5
ENDMDL
MODEL 8
REMARK VINA RESULT:     -10.3      6.013      9.045
REMARK  Name = 447656
REMARK  5 active torsions:
REMARK  status: ('A' for Active; 'I' for Inactive)
REMARK    1  A    between atoms: N_5  and  C_14
REMARK    2  A    between atoms: C_6  and  O_25
REMARK    3  A    between atoms: C_17  and  C_22
REMARK    4  A    between atoms: O_25  and  C_26
REMARK    5  A    between atoms: C_26  and  C_27
REMARK                            x       y       z     vdW  Elec       q    Type
REMARK                         _______ _______ _______ _____ _____    ______ ____
ROOT
ATOM      1  N   UNL     1      35.068 -17.583 -21.477  0.00  0.00    -0.293 NA
ATOM      2  N   UNL     1      34.986 -14.580 -23.598  0.00  0.00    -0.266 NA
ATOM      3  N   UNL     1      35.445 -18.025 -23.847  0.00  0.00    -0.316 NA
ATOM      4  N   UNL     1      35.388 -16.033 -25.239  0.00  0.00    -0.296 N 
ATOM      5  N   UNL     1      35.444 -19.754 -22.271  0.00  0.00    -0.238 N 
ATOM      6  C   UNL     1      34.936 -16.258 -21.701  0.00  0.00    +0.288 C 
ATOM      7  C   UNL     1      35.056 -15.805 -22.999  0.00  0.00    +0.215 C 
ATOM      8  C   UNL     1      35.307 -16.691 -24.039  0.00  0.00    +0.196 C 
ATOM      9  C   UNL     1      35.312 -18.374 -22.549  0.00  0.00    +0.207 C 
ATOM     10  C   UNL     1      35.191 -14.767 -24.939  0.00  0.00    +0.164 C 
ATOM     11  H   UNL     1      34.819 -13.720 -23.148  0.00  0.00    +0.126 HD
ATOM     12  H   UNL     1      35.557 -16.422 -26.128  0.00  0.00    +0.150 HD
ATOM     13  H   UNL     1      35.621 -20.304 -23.067  0.00  0.00    +0.166 HD
ENDROOT
BRANCH   5  14
ATOM     14  C   UNL     1      35.373 -20.495 -21.077  0.00  0.00    +0.058 C 
ATOM     15  C   UNL     1      36.537 -20.786 -20.361  0.00  0.00    +0.015 C 
ATOM     16  C   UNL     1      34.138 -20.943 -20.602  0.00  0.00    +0.015 C 
ATOM     17  C   UNL     1      35.232 -21.965 -18.706  0.00  0.00    +0.053 C 
ATOM     18  C   UNL     1      36.467 -21.519 -19.177  0.00  0.00    +0.006 C 
ATOM     19  C   UNL     1      34.067 -21.676 -19.417  0.00  0.00    +0.006 C 
BRANCH  17  22
ATOM     20  O   UNL     1      36.181 -23.020 -16.826  0.00  0.00    -0.270 OA
ATOM     21  N   UNL     1      33.898 -23.112 -17.020  0.00  0.00    -0.325 N 
ATOM     22  C   UNL     1      35.158 -22.729 -17.471  0.00  0.00    +0.243 C 
ATOM     23  H   UNL     1      33.809 -23.631 -16.188  0.00  0.00    +0.145 HD
ATOM     24  H   UNL     1      33.095 -22.865 -17.534  0.00  0.00    +0.145 HD
ENDBRANCH  17  22
ENDBRANCH   5  14
BRANCH   6  25
ATOM     25  O   UNL     1      34.688 -15.427 -20.636  0.00  0.00    -0.453 OA
BRANCH  25  26
ATOM     26  C   UNL     1      33.332 -15.130 -20.355  0.00  0.00    +0.208 C 
BRANCH  26  27
ATOM     27  C   UNL     1      33.105 -13.638 -20.586  0.00  0.00    +0.044 C 
ATOM     28  C   UNL     1      32.468 -13.393 -21.960  0.00  0.00    +0.004 C 
ATOM     29  C   UNL     1      32.239 -13.042 -19.469  0.00  0.00    +0.004 C 
ATOM     30  C   UNL     1      32.182 -11.911 -22.193  0.00  0.00    +0.000 C 
ATOM     31  C   UNL     1      31.953 -11.561 -19.706  0.00  0.00    +0.000 C 
ATOM     32  C   UNL     1      31.329 -11.320 -21.077  0.00  0.00    +0.000 C 
ENDBRANCH  26  27
ENDBRANCH  25  26
ENDBRANCH   6  25
TORSDOF 5
ENDMDL
MODEL 9
REMARK VINA RESULT:     -10.1      3.201      8.129
REMARK  Name = 447656
REMARK  5 active torsions:
REMARK  status: ('A' for Active; 'I' for Inactive)
REMARK    1  A    between atoms: N_5  and  C_14
REMARK    2  A    between atoms: C_6  and  O_25
REMARK    3  A    between atoms: C_17  and  C_22
REMARK    4  A    between atoms: O_25  and  C_26
REMARK    5  A    between atoms: C_26  and  C_27
REMARK                            x       y       z     vdW  Elec       q    Type
REMARK                         _______ _______ _______ _____ _____    ______ ____
ROOT
ATOM      1  N   UNL     1      35.187 -22.020 -18.568  0.00  0.00    -0.293 NA
ATOM      2  N   UNL     1      35.105 -24.112 -15.545  0.00  0.00    -0.266 NA
ATOM      3  N   UNL     1      37.273 -22.027 -17.303  0.00  0.00    -0.316 NA
ATOM      4  N   UNL     1      37.207 -23.412 -15.306  0.00  0.00    -0.296 N 
ATOM      5  N   UNL     1      37.045 -20.780 -19.270  0.00  0.00    -0.238 N 
ATOM      6  C   UNL     1      34.601 -22.860 -17.688  0.00  0.00    +0.288 C 
ATOM      7  C   UNL     1      35.344 -23.290 -16.609  0.00  0.00    +0.215 C 
ATOM      8  C   UNL     1      36.656 -22.869 -16.438  0.00  0.00    +0.196 C 
ATOM      9  C   UNL     1      36.469 -21.660 -18.325  0.00  0.00    +0.207 C 
ATOM     10  C   UNL     1      36.249 -24.154 -14.794  0.00  0.00    +0.164 C 
ATOM     11  H   UNL     1      34.264 -24.587 -15.353  0.00  0.00    +0.126 HD
ATOM     12  H   UNL     1      38.118 -23.278 -14.956  0.00  0.00    +0.150 HD
ATOM     13  H   UNL     1      37.978 -20.537 -19.068  0.00  0.00    +0.166 HD
ENDROOT
BRANCH   5  14
ATOM     14  C   UNL     1      36.547 -20.186 -20.443  0.00  0.00    +0.058 C 
ATOM     15  C   UNL     1      37.336 -19.286 -21.164  0.00  0.00    +0.015 C 
ATOM     16  C   UNL     1      35.260 -20.491 -20.892  0.00  0.00    +0.015 C 
ATOM     17  C   UNL     1      35.557 -19.004 -22.773  0.00  0.00    +0.053 C 
ATOM     18  C   UNL     1      36.842 -18.696 -22.327  0.00  0.00    +0.006 C 
ATOM     19  C   UNL     1      34.765 -19.902 -22.056  0.00  0.00    +0.006 C 
BRANCH  17  22
ATOM     20  O   UNL     1      34.207 -18.970 -24.703  0.00  0.00    -0.270 OA
ATOM     21  N   UNL     1      35.499 -17.117 -24.312  0.00  0.00    -0.325 N 
ATOM     22  C   UNL     1      35.042 -18.390 -23.986  0.00  0.00    +0.243 C 
ATOM     23  H   UNL     1      35.173 -16.670 -25.127  0.00  0.00    +0.145 HD
ATOM     24  H   UNL     1      36.151 -16.663 -23.729  0.00  0.00    +0.145 HD
ENDBRANCH  17  22
ENDBRANCH   5  14
BRANCH   6  25
ATOM     25  O   UNL     1      33.300 -23.245 -17.904  0.00  0.00    -0.453 OA
BRANCH  25  26
ATOM     26  C   UNL     1      32.318 -22.708 -17.037  0.00  0.00    +0.208 C 
BRANCH  26  27
ATOM     27  C   UNL     1      31.388 -23.838 -16.600  0.00  0.00    +0.044 C 
ATOM     28  C   UNL     1      31.712 -24.282 -15.167  0.00  0.00    +0.004 C 
ATOM     29  C   UNL     1      29.920 -23.409 -16.720  0.00  0.00    +0.004 C 
ATOM     30  C   UNL     1      30.760 -25.376 -14.687  0.00  0.00    +0.000 C 
ATOM     31  C   UNL     1      28.972 -24.504 -16.236  0.00  0.00    +0.000 C 
ATOM     32  C   UNL     1      29.302 -24.949 -14.816  0.00  0.00    +0.000 C 
ENDBRANCH  26  27
ENDBRANCH  25  26
ENDBRANCH   6  25
TORSDOF 5
ENDMDL
