MODEL 1
REMARK VINA RESULT:     -12.0      0.000      0.000
REMARK  Name = 46911863
REMARK  3 active torsions:
REMARK  status: ('A' for Active; 'I' for Inactive)
REMARK    1  A    between atoms: C_5  and  C_18
REMARK    2  A    between atoms: C_7  and  C_12
REMARK    3  A    between atoms: C_18  and  C_20
REMARK                            x       y       z     vdW  Elec       q    Type
REMARK                         _______ _______ _______ _____ _____    ______ ____
ROOT
ATOM      1  N   UNL     1      34.711 -22.205 -18.593  0.00  0.00    -0.190 N 
ATOM      2  N   UNL     1      35.724 -22.590 -17.777  0.00  0.00    -0.162 NA
ATOM      3  N   UNL     1      33.618 -21.283 -20.254  0.00  0.00    -0.126 NA
ATOM      4  N   UNL     1      32.705 -21.922 -19.439  0.00  0.00    -0.127 NA
ATOM      5  C   UNL     1      34.811 -21.464 -19.733  0.00  0.00    +0.228 A 
ATOM      6  C   UNL     1      33.369 -22.472 -18.445  0.00  0.00    +0.187 A 
ATOM      7  C   UNL     1      35.336 -23.288 -16.748  0.00  0.00    +0.104 C 
ATOM      8  C   UNL     1      32.981 -23.242 -17.332  0.00  0.00    +0.042 C 
ATOM      9  C   UNL     1      33.912 -23.669 -16.470  0.00  0.00    +0.024 C 
ENDROOT
BRANCH   7  12
ATOM     10  N   UNL     1      37.426 -24.958 -14.293  0.00  0.00    -0.208 N 
ATOM     11  N   UNL     1      38.229 -23.896 -14.480  0.00  0.00    -0.176 NA
ATOM     12  C   UNL     1      36.353 -23.765 -15.775  0.00  0.00    +0.056 C 
ATOM     13  C   UNL     1      36.289 -24.927 -15.045  0.00  0.00    +0.087 C 
ATOM     14  C   UNL     1      37.568 -23.170 -15.386  0.00  0.00    +0.121 C 
ATOM     15  C   UNL     1      37.810 -25.992 -13.363  0.00  0.00    +0.140 C 
ENDBRANCH   7  12
BRANCH   5  18
ATOM     16  F   UNL     1      36.864 -21.995 -20.809  0.00  0.00    -0.191 F 
ATOM     17  F   UNL     1      36.944 -20.542 -19.227  0.00  0.00    -0.191 F 
ATOM     18  C   UNL     1      36.141 -20.943 -20.278  0.00  0.00    +0.335 C 
BRANCH  18  20
ATOM     19  N   UNL     1      35.420 -16.767 -24.027  0.00  0.00    -0.244 NA
ATOM     20  C   UNL     1      35.946 -19.850 -21.272  0.00  0.00    +0.045 C 
ATOM     21  C   UNL     1      35.259 -20.095 -22.457  0.00  0.00    +0.003 C 
ATOM     22  C   UNL     1      35.073 -19.066 -23.397  0.00  0.00    +0.018 C 
ATOM     23  C   UNL     1      36.449 -18.579 -21.021  0.00  0.00    +0.003 C 
ATOM     24  C   UNL     1      35.580 -17.774 -23.148  0.00  0.00    +0.081 C 
ATOM     25  C   UNL     1      36.263 -17.558 -21.955  0.00  0.00    +0.019 C 
ATOM     26  C   UNL     1      34.385 -19.286 -24.598  0.00  0.00    +0.003 C 
ATOM     27  C   UNL     1      34.217 -18.249 -25.505  0.00  0.00    +0.021 C 
ATOM     28  C   UNL     1      34.749 -17.019 -25.174  0.00  0.00    +0.099 C 
ENDBRANCH  18  20
ENDBRANCH   5  18
TORSDOF 3
ENDMDL
MODEL 2
REMARK VINA RESULT:     -11.7      0.802      1.477
REMARK  Name = 46911863
REMARK  3 active torsions:
REMARK  status: ('A' for Active; 'I' for Inactive)
REMARK    1  A    between atoms: C_5  and  C_18
REMARK    2  A    between atoms: C_7  and  C_12
REMARK    3  A    between atoms: C_18  and  C_20
REMARK                            x       y       z     vdW  Elec       q    Type
REMARK                         _______ _______ _______ _____ _____    ______ ____
ROOT
ATOM      1  N   UNL     1      34.678 -22.126 -18.703  0.00  0.00    -0.190 N 
ATOM      2  N   UNL     1      35.728 -22.422 -17.897  0.00  0.00    -0.162 NA
ATOM      3  N   UNL     1      33.498 -21.325 -20.367  0.00  0.00    -0.126 NA
ATOM      4  N   UNL     1      32.642 -21.994 -19.515  0.00  0.00    -0.127 NA
ATOM      5  C   UNL     1      34.709 -21.415 -19.866  0.00  0.00    +0.228 A 
ATOM      6  C   UNL     1      33.358 -22.471 -18.519  0.00  0.00    +0.187 A 
ATOM      7  C   UNL     1      35.403 -23.111 -16.840  0.00  0.00    +0.104 C 
ATOM      8  C   UNL     1      33.040 -23.230 -17.376  0.00  0.00    +0.042 C 
ATOM      9  C   UNL     1      34.012 -23.572 -16.522  0.00  0.00    +0.024 C 
ENDROOT
BRANCH   7  12
ATOM     10  N   UNL     1      37.519 -24.311 -14.144  0.00  0.00    -0.208 N 
ATOM     11  N   UNL     1      38.502 -23.753 -14.872  0.00  0.00    -0.176 NA
ATOM     12  C   UNL     1      36.467 -23.494 -15.875  0.00  0.00    +0.056 C 
ATOM     13  C   UNL     1      36.281 -24.184 -14.701  0.00  0.00    +0.087 C 
ATOM     14  C   UNL     1      37.853 -23.255 -15.928  0.00  0.00    +0.121 C 
ATOM     15  C   UNL     1      37.835 -24.968 -12.898  0.00  0.00    +0.140 C 
ENDBRANCH   7  12
BRANCH   5  18
ATOM     16  F   UNL     1      36.821 -21.858 -20.867  0.00  0.00    -0.191 F 
ATOM     17  F   UNL     1      36.738 -20.248 -19.445  0.00  0.00    -0.191 F 
ATOM     18  C   UNL     1      35.994 -20.831 -20.454  0.00  0.00    +0.335 C 
BRANCH  18  20
ATOM     19  N   UNL     1      34.930 -17.213 -24.673  0.00  0.00    -0.244 NA
ATOM     20  C   UNL     1      35.714 -19.870 -21.558  0.00  0.00    +0.045 C 
ATOM     21  C   UNL     1      35.647 -18.504 -21.298  0.00  0.00    +0.003 C 
ATOM     22  C   UNL     1      35.384 -17.595 -22.337  0.00  0.00    +0.018 C 
ATOM     23  C   UNL     1      35.518 -20.332 -22.854  0.00  0.00    +0.003 C 
ATOM     24  C   UNL     1      35.185 -18.057 -23.654  0.00  0.00    +0.081 C 
ATOM     25  C   UNL     1      35.256 -19.428 -23.885  0.00  0.00    +0.019 C 
ATOM     26  C   UNL     1      35.313 -16.215 -22.103  0.00  0.00    +0.003 C 
ATOM     27  C   UNL     1      35.052 -15.343 -23.151  0.00  0.00    +0.021 C 
ATOM     28  C   UNL     1      34.870 -15.888 -24.405  0.00  0.00    +0.099 C 
ENDBRANCH  18  20
ENDBRANCH   5  18
TORSDOF 3
ENDMDL
MODEL 3
REMARK VINA RESULT:     -11.5      2.200      3.221
REMARK  Name = 46911863
REMARK  3 active torsions:
REMARK  status: ('A' for Active; 'I' for Inactive)
REMARK    1  A    between atoms: C_5  and  C_18
REMARK    2  A    between atoms: C_7  and  C_12
REMARK    3  A    between atoms: C_18  and  C_20
REMARK                            x       y       z     vdW  Elec       q    Type
REMARK                         _______ _______ _______ _____ _____    ______ ____
ROOT
ATOM      1  N   UNL     1      33.077 -23.263 -16.446  0.00  0.00    -0.190 N 
ATOM      2  N   UNL     1      34.120 -23.759 -15.735  0.00  0.00    -0.162 NA
ATOM      3  N   UNL     1      31.881 -22.476 -18.106  0.00  0.00    -0.126 NA
ATOM      4  N   UNL     1      31.084 -22.511 -16.979  0.00  0.00    -0.127 NA
ATOM      5  C   UNL     1      33.067 -22.930 -17.768  0.00  0.00    +0.228 A 
ATOM      6  C   UNL     1      31.809 -22.984 -15.988  0.00  0.00    +0.187 A 
ATOM      7  C   UNL     1      33.846 -23.978 -14.481  0.00  0.00    +0.104 C 
ATOM      8  C   UNL     1      31.537 -23.246 -14.631  0.00  0.00    +0.042 C 
ATOM      9  C   UNL     1      32.507 -23.739 -13.851  0.00  0.00    +0.024 C 
ENDROOT
BRANCH   7  12
ATOM     10  N   UNL     1      36.756 -25.431 -12.867  0.00  0.00    -0.208 N 
ATOM     11  N   UNL     1      36.088 -25.136 -11.738  0.00  0.00    -0.176 NA
ATOM     12  C   UNL     1      34.911 -24.518 -13.595  0.00  0.00    +0.056 C 
ATOM     13  C   UNL     1      36.095 -25.081 -14.006  0.00  0.00    +0.087 C 
ATOM     14  C   UNL     1      34.961 -24.579 -12.190  0.00  0.00    +0.121 C 
ATOM     15  C   UNL     1      38.053 -26.060 -12.788  0.00  0.00    +0.140 C 
ENDBRANCH   7  12
BRANCH   5  18
ATOM     16  F   UNL     1      34.191 -24.265 -19.385  0.00  0.00    -0.191 F 
ATOM     17  F   UNL     1      35.413 -23.297 -17.904  0.00  0.00    -0.191 F 
ATOM     18  C   UNL     1      34.287 -23.081 -18.677  0.00  0.00    +0.335 C 
BRANCH  18  20
ATOM     19  N   UNL     1      34.889 -18.631 -22.120  0.00  0.00    -0.244 NA
ATOM     20  C   UNL     1      34.456 -21.909 -19.582  0.00  0.00    +0.045 C 
ATOM     21  C   UNL     1      35.726 -21.407 -19.847  0.00  0.00    +0.003 C 
ATOM     22  C   UNL     1      35.890 -20.302 -20.701  0.00  0.00    +0.018 C 
ATOM     23  C   UNL     1      33.346 -21.312 -20.167  0.00  0.00    +0.003 C 
ATOM     24  C   UNL     1      34.768 -19.691 -21.298  0.00  0.00    +0.081 C 
ATOM     25  C   UNL     1      33.509 -20.214 -21.014  0.00  0.00    +0.019 C 
ATOM     26  C   UNL     1      37.157 -19.776 -20.985  0.00  0.00    +0.003 C 
ATOM     27  C   UNL     1      37.285 -18.684 -21.832  0.00  0.00    +0.021 C 
ATOM     28  C   UNL     1      36.130 -18.154 -22.369  0.00  0.00    +0.099 C 
ENDBRANCH  18  20
ENDBRANCH   5  18
TORSDOF 3
ENDMDL
MODEL 4
REMARK VINA RESULT:     -11.4      3.131      5.495
REMARK  Name = 46911863
REMARK  3 active torsions:
REMARK  status: ('A' for Active; 'I' for Inactive)
REMARK    1  A    between atoms: C_5  and  C_18
REMARK    2  A    between atoms: C_7  and  C_12
REMARK    3  A    between atoms: C_18  and  C_20
REMARK                            x       y       z     vdW  Elec       q    Type
REMARK                         _______ _______ _______ _____ _____    ______ ____
ROOT
ATOM      1  N   UNL     1      33.117 -23.045 -16.949  0.00  0.00    -0.190 N 
ATOM      2  N   UNL     1      31.799 -22.960 -17.256  0.00  0.00    -0.162 NA
ATOM      3  N   UNL     1      35.298 -23.094 -17.154  0.00  0.00    -0.126 NA
ATOM      4  N   UNL     1      34.987 -23.269 -15.821  0.00  0.00    -0.127 NA
ATOM      5  C   UNL     1      34.169 -22.961 -17.813  0.00  0.00    +0.228 A 
ATOM      6  C   UNL     1      33.676 -23.238 -15.707  0.00  0.00    +0.187 A 
ATOM      7  C   UNL     1      31.008 -23.084 -16.228  0.00  0.00    +0.104 C 
ATOM      8  C   UNL     1      32.798 -23.353 -14.611  0.00  0.00    +0.042 C 
ATOM      9  C   UNL     1      31.478 -23.280 -14.817  0.00  0.00    +0.024 C 
ENDROOT
BRANCH   7  12
ATOM     10  N   UNL     1      27.414 -22.571 -16.188  0.00  0.00    -0.208 N 
ATOM     11  N   UNL     1      27.453 -23.286 -17.326  0.00  0.00    -0.176 NA
ATOM     12  C   UNL     1      29.538 -23.015 -16.435  0.00  0.00    +0.056 C 
ATOM     13  C   UNL     1      28.636 -22.380 -15.615  0.00  0.00    +0.087 C 
ATOM     14  C   UNL     1      28.753 -23.555 -17.471  0.00  0.00    +0.121 C 
ATOM     15  C   UNL     1      26.149 -22.086 -15.690  0.00  0.00    +0.140 C 
ENDBRANCH   7  12
BRANCH   5  18
ATOM     16  F   UNL     1      32.695 -22.379 -19.587  0.00  0.00    -0.191 F 
ATOM     17  F   UNL     1      34.101 -23.959 -19.970  0.00  0.00    -0.191 F 
ATOM     18  C   UNL     1      34.000 -22.745 -19.317  0.00  0.00    +0.335 C 
BRANCH  18  20
ATOM     19  N   UNL     1      37.723 -18.979 -21.311  0.00  0.00    -0.244 NA
ATOM     20  C   UNL     1      34.974 -21.749 -19.849  0.00  0.00    +0.045 C 
ATOM     21  C   UNL     1      34.602 -20.886 -20.875  0.00  0.00    +0.003 C 
ATOM     22  C   UNL     1      35.517 -19.946 -21.380  0.00  0.00    +0.018 C 
ATOM     23  C   UNL     1      36.258 -21.678 -19.323  0.00  0.00    +0.003 C 
ATOM     24  C   UNL     1      36.822 -19.867 -20.851  0.00  0.00    +0.081 C 
ATOM     25  C   UNL     1      37.167 -20.743 -19.826  0.00  0.00    +0.019 C 
ATOM     26  C   UNL     1      35.169 -19.064 -22.412  0.00  0.00    +0.003 C 
ATOM     27  C   UNL     1      36.095 -18.147 -22.888  0.00  0.00    +0.021 C 
ATOM     28  C   UNL     1      37.347 -18.145 -22.308  0.00  0.00    +0.099 C 
ENDBRANCH  18  20
ENDBRANCH   5  18
TORSDOF 3
ENDMDL
MODEL 5
REMARK VINA RESULT:     -11.1      2.761      9.436
REMARK  Name = 46911863
REMARK  3 active torsions:
REMARK  status: ('A' for Active; 'I' for Inactive)
REMARK    1  A    between atoms: C_5  and  C_18
REMARK    2  A    between atoms: C_7  and  C_12
REMARK    3  A    between atoms: C_18  and  C_20
REMARK                            x       y       z     vdW  Elec       q    Type
REMARK                         _______ _______ _______ _____ _____    ______ ____
ROOT
ATOM      1  N   UNL     1      34.931 -17.662 -24.043  0.00  0.00    -0.190 N 
ATOM      2  N   UNL     1      34.778 -16.432 -23.493  0.00  0.00    -0.162 NA
ATOM      3  N   UNL     1      35.439 -19.780 -24.286  0.00  0.00    -0.126 NA
ATOM      4  N   UNL     1      34.914 -19.323 -25.478  0.00  0.00    -0.127 NA
ATOM      5  C   UNL     1      35.440 -18.774 -23.440  0.00  0.00    +0.228 A 
ATOM      6  C   UNL     1      34.612 -18.051 -25.324  0.00  0.00    +0.187 A 
ATOM      7  C   UNL     1      34.271 -15.549 -24.306  0.00  0.00    +0.104 C 
ATOM      8  C   UNL     1      34.050 -17.081 -26.176  0.00  0.00    +0.042 C 
ATOM      9  C   UNL     1      33.860 -15.837 -25.719  0.00  0.00    +0.024 C 
ENDROOT
BRANCH   7  12
ATOM     10  N   UNL     1      33.948 -11.982 -23.714  0.00  0.00    -0.208 N 
ATOM     11  N   UNL     1      33.544 -12.376 -22.493  0.00  0.00    -0.176 NA
ATOM     12  C   UNL     1      34.059 -14.160 -23.822  0.00  0.00    +0.056 C 
ATOM     13  C   UNL     1      34.268 -13.012 -24.547  0.00  0.00    +0.087 C 
ATOM     14  C   UNL     1      33.615 -13.708 -22.566  0.00  0.00    +0.121 C 
ATOM     15  C   UNL     1      34.007 -10.575 -24.029  0.00  0.00    +0.140 C 
ENDBRANCH   7  12
BRANCH   5  18
ATOM     16  F   UNL     1      35.882 -17.509 -21.475  0.00  0.00    -0.191 F 
ATOM     17  F   UNL     1      37.284 -19.064 -21.966  0.00  0.00    -0.191 F 
ATOM     18  C   UNL     1      35.929 -18.791 -21.992  0.00  0.00    +0.335 C 
BRANCH  18  20
ATOM     19  N   UNL     1      32.963 -22.428 -18.831  0.00  0.00    -0.244 NA
ATOM     20  C   UNL     1      35.156 -19.752 -21.155  0.00  0.00    +0.045 C 
ATOM     21  C   UNL     1      35.808 -20.536 -20.208  0.00  0.00    +0.003 C 
ATOM     22  C   UNL     1      35.083 -21.444 -19.416  0.00  0.00    +0.018 C 
ATOM     23  C   UNL     1      33.781 -19.870 -21.315  0.00  0.00    +0.003 C 
ATOM     24  C   UNL     1      33.687 -21.569 -19.573  0.00  0.00    +0.081 C 
ATOM     25  C   UNL     1      33.062 -20.773 -20.528  0.00  0.00    +0.019 C 
ATOM     26  C   UNL     1      35.714 -22.245 -18.455  0.00  0.00    +0.003 C 
ATOM     27  C   UNL     1      34.970 -23.131 -17.689  0.00  0.00    +0.021 C 
ATOM     28  C   UNL     1      33.609 -23.184 -17.914  0.00  0.00    +0.099 C 
ENDBRANCH  18  20
ENDBRANCH   5  18
TORSDOF 3
ENDMDL
MODEL 6
REMARK VINA RESULT:     -11.0      7.169     12.755
REMARK  Name = 46911863
REMARK  3 active torsions:
REMARK  status: ('A' for Active; 'I' for Inactive)
REMARK    1  A    between atoms: C_5  and  C_18
REMARK    2  A    between atoms: C_7  and  C_12
REMARK    3  A    between atoms: C_18  and  C_20
REMARK                            x       y       z     vdW  Elec       q    Type
REMARK                         _______ _______ _______ _____ _____    ______ ____
ROOT
ATOM      1  N   UNL     1      32.841 -11.229 -22.889  0.00  0.00    -0.190 N 
ATOM      2  N   UNL     1      33.251 -10.096 -23.510  0.00  0.00    -0.162 NA
ATOM      3  N   UNL     1      32.546 -13.349 -22.417  0.00  0.00    -0.126 NA
ATOM      4  N   UNL     1      31.871 -12.601 -21.475  0.00  0.00    -0.127 NA
ATOM      5  C   UNL     1      33.121 -12.513 -23.253  0.00  0.00    +0.228 A 
ATOM      6  C   UNL     1      32.053 -11.329 -21.766  0.00  0.00    +0.187 A 
ATOM      7  C   UNL     1      32.825  -9.001 -22.946  0.00  0.00    +0.104 C 
ATOM      8  C   UNL     1      31.620 -10.130 -21.168  0.00  0.00    +0.042 C 
ATOM      9  C   UNL     1      31.977  -8.959 -21.710  0.00  0.00    +0.024 C 
ENDROOT
BRANCH   7  12
ATOM     10  N   UNL     1      33.118  -5.670 -24.360  0.00  0.00    -0.208 N 
ATOM     11  N   UNL     1      34.428  -5.971 -24.407  0.00  0.00    -0.176 NA
ATOM     12  C   UNL     1      33.203  -7.691 -23.537  0.00  0.00    +0.056 C 
ATOM     13  C   UNL     1      32.342  -6.666 -23.847  0.00  0.00    +0.087 C 
ATOM     14  C   UNL     1      34.473  -7.207 -23.904  0.00  0.00    +0.121 C 
ATOM     15  C   UNL     1      32.661  -4.384 -24.829  0.00  0.00    +0.140 C 
ENDBRANCH   7  12
BRANCH   5  18
ATOM     16  F   UNL     1      35.174 -12.176 -24.406  0.00  0.00    -0.191 F 
ATOM     17  F   UNL     1      33.401 -12.350 -25.609  0.00  0.00    -0.191 F 
ATOM     18  C   UNL     1      33.980 -12.870 -24.466  0.00  0.00    +0.335 C 
BRANCH  18  20
ATOM     19  N   UNL     1      34.798 -18.449 -24.931  0.00  0.00    -0.244 NA
ATOM     20  C   UNL     1      34.200 -14.340 -24.580  0.00  0.00    +0.045 C 
ATOM     21  C   UNL     1      34.891 -15.023 -23.583  0.00  0.00    +0.003 C 
ATOM     22  C   UNL     1      35.100 -16.409 -23.686  0.00  0.00    +0.018 C 
ATOM     23  C   UNL     1      33.719 -15.035 -25.681  0.00  0.00    +0.003 C 
ATOM     24  C   UNL     1      34.614 -17.122 -24.801  0.00  0.00    +0.081 C 
ATOM     25  C   UNL     1      33.928 -16.413 -25.783  0.00  0.00    +0.019 C 
ATOM     26  C   UNL     1      35.791 -17.122 -22.697  0.00  0.00    +0.003 C 
ATOM     27  C   UNL     1      35.981 -18.490 -22.828  0.00  0.00    +0.021 C 
ATOM     28  C   UNL     1      35.469 -19.101 -23.954  0.00  0.00    +0.099 C 
ENDBRANCH  18  20
ENDBRANCH   5  18
TORSDOF 3
ENDMDL
MODEL 7
REMARK VINA RESULT:     -10.7      5.515      9.004
REMARK  Name = 46911863
REMARK  3 active torsions:
REMARK  status: ('A' for Active; 'I' for Inactive)
REMARK    1  A    between atoms: C_5  and  C_18
REMARK    2  A    between atoms: C_7  and  C_12
REMARK    3  A    between atoms: C_18  and  C_20
REMARK                            x       y       z     vdW  Elec       q    Type
REMARK                         _______ _______ _______ _____ _____    ______ ____
ROOT
ATOM      1  N   UNL     1      34.286 -15.671 -24.242  0.00  0.00    -0.190 N 
ATOM      2  N   UNL     1      34.798 -16.377 -23.203  0.00  0.00    -0.162 NA
ATOM      3  N   UNL     1      33.391 -14.044 -25.407  0.00  0.00    -0.126 NA
ATOM      4  N   UNL     1      33.594 -15.117 -26.250  0.00  0.00    -0.127 NA
ATOM      5  C   UNL     1      33.811 -14.393 -24.211  0.00  0.00    +0.228 A 
ATOM      6  C   UNL     1      34.131 -16.089 -25.543  0.00  0.00    +0.187 A 
ATOM      7  C   UNL     1      35.169 -17.586 -23.520  0.00  0.00    +0.104 C 
ATOM      8  C   UNL     1      34.557 -17.393 -25.860  0.00  0.00    +0.042 C 
ATOM      9  C   UNL     1      35.077 -18.167 -24.899  0.00  0.00    +0.024 C 
ENDROOT
BRANCH   7  12
ATOM     10  N   UNL     1      36.003 -20.041 -20.978  0.00  0.00    -0.208 N 
ATOM     11  N   UNL     1      37.170 -19.373 -20.934  0.00  0.00    -0.176 NA
ATOM     12  C   UNL     1      35.742 -18.463 -22.466  0.00  0.00    +0.056 C 
ATOM     13  C   UNL     1      35.114 -19.535 -21.879  0.00  0.00    +0.087 C 
ATOM     14  C   UNL     1      37.003 -18.410 -21.844  0.00  0.00    +0.121 C 
ATOM     15  C   UNL     1      35.796 -21.179 -20.115  0.00  0.00    +0.140 C 
ENDBRANCH   7  12
BRANCH   5  18
ATOM     16  F   UNL     1      34.907 -13.825 -22.177  0.00  0.00    -0.191 F 
ATOM     17  F   UNL     1      32.762 -13.955 -22.122  0.00  0.00    -0.191 F 
ATOM     18  C   UNL     1      33.793 -13.538 -22.944  0.00  0.00    +0.335 C 
BRANCH  18  20
ATOM     19  N   UNL     1      33.460  -8.019 -24.146  0.00  0.00    -0.244 NA
ATOM     20  C   UNL     1      33.697 -12.083 -23.254  0.00  0.00    +0.045 C 
ATOM     21  C   UNL     1      32.696 -11.308 -22.675  0.00  0.00    +0.003 C 
ATOM     22  C   UNL     1      32.602  -9.936 -22.965  0.00  0.00    +0.018 C 
ATOM     23  C   UNL     1      34.605 -11.493 -24.124  0.00  0.00    +0.003 C 
ATOM     24  C   UNL     1      33.521  -9.330 -23.846  0.00  0.00    +0.081 C 
ATOM     25  C   UNL     1      34.511 -10.129 -24.412  0.00  0.00    +0.019 C 
ATOM     26  C   UNL     1      31.606  -9.133 -22.395  0.00  0.00    +0.003 C 
ATOM     27  C   UNL     1      31.540  -7.781 -22.701  0.00  0.00    +0.021 C 
ATOM     28  C   UNL     1      32.483  -7.277 -23.575  0.00  0.00    +0.099 C 
ENDBRANCH  18  20
ENDBRANCH   5  18
TORSDOF 3
ENDMDL
MODEL 8
REMARK VINA RESULT:     -10.7      2.486      3.810
REMARK  Name = 46911863
REMARK  3 active torsions:
REMARK  status: ('A' for Active; 'I' for Inactive)
REMARK    1  A    between atoms: C_5  and  C_18
REMARK    2  A    between atoms: C_7  and  C_12
REMARK    3  A    between atoms: C_18  and  C_20
REMARK                            x       y       z     vdW  Elec       q    Type
REMARK                         _______ _______ _______ _____ _____    ______ ____
ROOT
ATOM      1  N   UNL     1      35.452 -22.809 -16.904  0.00  0.00    -0.190 N 
ATOM      2  N   UNL     1      34.216 -23.245 -16.555  0.00  0.00    -0.162 NA
ATOM      3  N   UNL     1      37.108 -21.979 -18.076  0.00  0.00    -0.126 NA
ATOM      4  N   UNL     1      37.589 -22.310 -16.826  0.00  0.00    -0.127 NA
ATOM      5  C   UNL     1      35.829 -22.283 -18.105  0.00  0.00    +0.228 A 
ATOM      6  C   UNL     1      36.589 -22.807 -16.129  0.00  0.00    +0.187 A 
ATOM      7  C   UNL     1      34.144 -23.709 -15.340  0.00  0.00    +0.104 C 
ATOM      8  C   UNL     1      36.478 -23.299 -14.814  0.00  0.00    +0.042 C 
ATOM      9  C   UNL     1      35.295 -23.751 -14.379  0.00  0.00    +0.024 C 
ENDROOT
BRANCH   7  12
ATOM     10  N   UNL     1      30.750 -24.837 -14.715  0.00  0.00    -0.208 N 
ATOM     11  N   UNL     1      31.224 -25.090 -13.483  0.00  0.00    -0.176 NA
ATOM     12  C   UNL     1      32.842 -24.222 -14.840  0.00  0.00    +0.056 C 
ATOM     13  C   UNL     1      31.679 -24.316 -15.566  0.00  0.00    +0.087 C 
ATOM     14  C   UNL     1      32.502 -24.712 -13.565  0.00  0.00    +0.121 C 
ATOM     15  C   UNL     1      29.370 -25.123 -15.025  0.00  0.00    +0.140 C 
ENDBRANCH   7  12
BRANCH   5  18
ATOM     16  F   UNL     1      33.603 -21.806 -18.794  0.00  0.00    -0.191 F 
ATOM     17  F   UNL     1      34.661 -23.317 -19.900  0.00  0.00    -0.191 F 
ATOM     18  C   UNL     1      34.865 -22.100 -19.277  0.00  0.00    +0.335 C 
BRANCH  18  20
ATOM     19  N   UNL     1      36.716 -18.160 -22.892  0.00  0.00    -0.244 NA
ATOM     20  C   UNL     1      35.344 -21.063 -20.235  0.00  0.00    +0.045 C 
ATOM     21  C   UNL     1      34.573 -20.725 -21.343  0.00  0.00    +0.003 C 
ATOM     22  C   UNL     1      35.021 -19.747 -22.249  0.00  0.00    +0.018 C 
ATOM     23  C   UNL     1      36.563 -20.430 -20.028  0.00  0.00    +0.003 C 
ATOM     24  C   UNL     1      36.257 -19.100 -22.044  0.00  0.00    +0.081 C 
ATOM     25  C   UNL     1      37.008 -19.459 -20.928  0.00  0.00    +0.019 C 
ATOM     26  C   UNL     1      34.265 -19.387 -23.372  0.00  0.00    +0.003 C 
ATOM     27  C   UNL     1      34.735 -18.418 -24.247  0.00  0.00    +0.021 C 
ATOM     28  C   UNL     1      35.956 -17.840 -23.964  0.00  0.00    +0.099 C 
ENDBRANCH  18  20
ENDBRANCH   5  18
TORSDOF 3
ENDMDL
MODEL 9
REMARK VINA RESULT:     -10.6      2.469      8.684
REMARK  Name = 46911863
REMARK  3 active torsions:
REMARK  status: ('A' for Active; 'I' for Inactive)
REMARK    1  A    between atoms: C_5  and  C_18
REMARK    2  A    between atoms: C_7  and  C_12
REMARK    3  A    between atoms: C_18  and  C_20
REMARK                            x       y       z     vdW  Elec       q    Type
REMARK                         _______ _______ _______ _____ _____    ______ ____
ROOT
ATOM      1  N   UNL     1      35.873 -20.628 -20.283  0.00  0.00    -0.190 N 
ATOM      2  N   UNL     1      35.219 -20.244 -21.407  0.00  0.00    -0.162 NA
ATOM      3  N   UNL     1      36.367 -21.675 -18.423  0.00  0.00    -0.126 NA
ATOM      4  N   UNL     1      37.368 -20.761 -18.680  0.00  0.00    -0.127 NA
ATOM      5  C   UNL     1      35.484 -21.582 -19.391  0.00  0.00    +0.228 A 
ATOM      6  C   UNL     1      37.064 -20.136 -19.799  0.00  0.00    +0.187 A 
ATOM      7  C   UNL     1      35.821 -19.298 -22.071  0.00  0.00    +0.104 C 
ATOM      8  C   UNL     1      37.700 -19.126 -20.545  0.00  0.00    +0.042 C 
ATOM      9  C   UNL     1      37.129 -18.683 -21.672  0.00  0.00    +0.024 C 
ENDROOT
BRANCH   7  12
ATOM     10  N   UNL     1      34.559 -17.481 -24.951  0.00  0.00    -0.208 N 
ATOM     11  N   UNL     1      34.041 -18.676 -25.285  0.00  0.00    -0.176 NA
ATOM     12  C   UNL     1      35.200 -18.786 -23.321  0.00  0.00    +0.056 C 
ATOM     13  C   UNL     1      35.262 -17.494 -23.783  0.00  0.00    +0.087 C 
ATOM     14  C   UNL     1      34.435 -19.468 -24.285  0.00  0.00    +0.121 C 
ATOM     15  C   UNL     1      34.344 -16.341 -25.809  0.00  0.00    +0.140 C 
ENDBRANCH   7  12
BRANCH   5  18
ATOM     16  F   UNL     1      34.435 -23.489 -20.352  0.00  0.00    -0.191 F 
ATOM     17  F   UNL     1      33.285 -21.673 -20.294  0.00  0.00    -0.191 F 
ATOM     18  C   UNL     1      34.197 -22.393 -19.543  0.00  0.00    +0.335 C 
BRANCH  18  20
ATOM     19  N   UNL     1      32.085 -23.925 -14.522  0.00  0.00    -0.244 NA
ATOM     20  C   UNL     1      33.631 -22.793 -18.224  0.00  0.00    +0.045 C 
ATOM     21  C   UNL     1      32.276 -22.615 -17.960  0.00  0.00    +0.003 C 
ATOM     22  C   UNL     1      31.739 -22.992 -16.717  0.00  0.00    +0.018 C 
ATOM     23  C   UNL     1      34.453 -23.346 -17.250  0.00  0.00    +0.003 C 
ATOM     24  C   UNL     1      32.567 -23.554 -15.724  0.00  0.00    +0.081 C 
ATOM     25  C   UNL     1      33.918 -23.720 -16.014  0.00  0.00    +0.019 C 
ATOM     26  C   UNL     1      30.378 -22.824 -16.425  0.00  0.00    +0.003 C 
ATOM     27  C   UNL     1      29.878 -23.207 -15.188  0.00  0.00    +0.021 C 
ATOM     28  C   UNL     1      30.766 -23.747 -14.280  0.00  0.00    +0.099 C 
ENDBRANCH  18  20
ENDBRANCH   5  18
TORSDOF 3
ENDMDL
