MODEL 1
REMARK VINA RESULT:     -12.3      0.000      0.000
REMARK  Name = 5288710
REMARK  3 active torsions:
REMARK  status: ('A' for Active; 'I' for Inactive)
REMARK    1  A    between atoms: C_6  and  N_18
REMARK    2  A    between atoms: C_9  and  C_15
REMARK    3  A    between atoms: N_18  and  C_29
REMARK                            x       y       z     vdW  Elec       q    Type
REMARK                         _______ _______ _______ _____ _____    ______ ____
ROOT
ATOM      1  O   UNL     1      35.186 -24.070 -16.365  0.00  0.00    -0.270 OA
ATOM      2  N   UNL     1      33.218 -24.248 -15.071  0.00  0.00    -0.280 N 
ATOM      3  C   UNL     1      31.704 -23.261 -16.493  0.00  0.00    +0.019 C 
ATOM      4  C   UNL     1      33.022 -23.252 -17.121  0.00  0.00    +0.069 C 
ATOM      5  C   UNL     1      31.881 -23.877 -15.251  0.00  0.00    +0.051 C 
ATOM      6  C   UNL     1      33.371 -22.770 -18.317  0.00  0.00    +0.066 C 
ATOM      7  C   UNL     1      33.995 -23.899 -16.179  0.00  0.00    +0.251 C 
ATOM      8  C   UNL     1      30.459 -22.811 -16.888  0.00  0.00    +0.005 C 
ATOM      9  C   UNL     1      29.389 -22.991 -16.005  0.00  0.00    +0.036 C 
ATOM     10  C   UNL     1      30.839 -24.066 -14.365  0.00  0.00    +0.015 C 
ATOM     11  C   UNL     1      29.576 -23.613 -14.756  0.00  0.00    +0.004 C 
ATOM     12  H   UNL     1      33.566 -24.697 -14.266  0.00  0.00    +0.155 HD
ENDROOT
BRANCH   9  15
ATOM     13  O   UNL     1      27.943 -22.065 -17.647  0.00  0.00    -0.431 OA
ATOM     14  N   UNL     1      25.934 -21.920 -16.619  0.00  0.00    -0.203 NA
ATOM     15  C   UNL     1      28.072 -22.533 -16.379  0.00  0.00    +0.166 C 
ATOM     16  C   UNL     1      26.861 -22.448 -15.757  0.00  0.00    +0.140 C 
ATOM     17  C   UNL     1      26.629 -21.715 -17.714  0.00  0.00    +0.285 C 
ENDBRANCH   9  15
BRANCH   6  18
ATOM     18  N   UNL     1      34.596 -22.769 -18.885  0.00  0.00    -0.311 N 
ATOM     19  H   UNL     1      35.115 -23.599 -18.781  0.00  0.00    +0.152 HD
BRANCH  18  29
ATOM     20  S   UNL     1      35.773 -18.159 -22.951  0.00  0.00    -0.002 S 
ATOM     21  O   UNL     1      36.106 -18.696 -24.256  0.00  0.00    -0.172 OA
ATOM     22  O   UNL     1      35.449 -16.759 -22.766  0.00  0.00    -0.172 OA
ATOM     23  C   UNL     1      34.445 -19.139 -22.271  0.00  0.00    +0.177 C 
ATOM     24  C   UNL     1      37.090 -18.586 -21.823  0.00  0.00    +0.177 C 
ATOM     25  C   UNL     1      35.143 -19.983 -21.259  0.00  0.00    +0.000 C 
ATOM     26  C   UNL     1      36.495 -19.701 -21.030  0.00  0.00    -0.001 C 
ATOM     27  C   UNL     1      34.508 -20.999 -20.548  0.00  0.00    +0.012 C 
ATOM     28  C   UNL     1      37.214 -20.434 -20.089  0.00  0.00    -0.002 C 
ATOM     29  C   UNL     1      35.230 -21.736 -19.608  0.00  0.00    +0.048 C 
ATOM     30  C   UNL     1      36.580 -21.454 -19.379  0.00  0.00    +0.014 C 
ENDBRANCH  18  29
ENDBRANCH   6  18
TORSDOF 3
ENDMDL
MODEL 2
REMARK VINA RESULT:     -11.3      6.957     11.133
REMARK  Name = 5288710
REMARK  3 active torsions:
REMARK  status: ('A' for Active; 'I' for Inactive)
REMARK    1  A    between atoms: C_6  and  N_18
REMARK    2  A    between atoms: C_9  and  C_15
REMARK    3  A    between atoms: N_18  and  C_29
REMARK                            x       y       z     vdW  Elec       q    Type
REMARK                         _______ _______ _______ _____ _____    ______ ____
ROOT
ATOM      1  O   UNL     1      33.660 -14.683 -26.581  0.00  0.00    -0.270 OA
ATOM      2  N   UNL     1      33.970 -16.985 -26.149  0.00  0.00    -0.280 N 
ATOM      3  C   UNL     1      34.927 -16.882 -24.060  0.00  0.00    +0.019 C 
ATOM      4  C   UNL     1      34.648 -15.526 -24.522  0.00  0.00    +0.069 C 
ATOM      5  C   UNL     1      34.495 -17.728 -25.085  0.00  0.00    +0.051 C 
ATOM      6  C   UNL     1      34.882 -14.368 -23.897  0.00  0.00    +0.066 C 
ATOM      7  C   UNL     1      34.026 -15.613 -25.885  0.00  0.00    +0.251 C 
ATOM      8  C   UNL     1      35.482 -17.398 -22.905  0.00  0.00    +0.005 C 
ATOM      9  C   UNL     1      35.597 -18.788 -22.800  0.00  0.00    +0.036 C 
ATOM     10  C   UNL     1      34.598 -19.103 -25.003  0.00  0.00    +0.015 C 
ATOM     11  C   UNL     1      35.160 -19.632 -23.838  0.00  0.00    +0.004 C 
ATOM     12  H   UNL     1      33.609 -17.378 -26.976  0.00  0.00    +0.155 HD
ENDROOT
BRANCH   9  15
ATOM     13  O   UNL     1      35.577 -20.497 -21.150  0.00  0.00    -0.431 OA
ATOM     14  N   UNL     1      37.307 -19.989 -19.783  0.00  0.00    -0.203 NA
ATOM     15  C   UNL     1      36.173 -19.367 -21.610  0.00  0.00    +0.166 C 
ATOM     16  C   UNL     1      37.218 -19.059 -20.788  0.00  0.00    +0.140 C 
ATOM     17  C   UNL     1      36.316 -20.809 -20.050  0.00  0.00    +0.285 C 
ENDBRANCH   9  15
BRANCH   6  18
ATOM     18  N   UNL     1      34.619 -13.120 -24.339  0.00  0.00    -0.311 N 
ATOM     19  H   UNL     1      35.013 -12.883 -25.209  0.00  0.00    +0.152 HD
BRANCH  18  29
ATOM     20  S   UNL     1      32.344  -7.560 -22.580  0.00  0.00    -0.002 S 
ATOM     21  O   UNL     1      33.177  -6.966 -21.553  0.00  0.00    -0.172 OA
ATOM     22  O   UNL     1      31.344  -6.788 -23.288  0.00  0.00    -0.172 OA
ATOM     23  C   UNL     1      33.415  -8.334 -23.782  0.00  0.00    +0.177 C 
ATOM     24  C   UNL     1      31.555  -9.004 -21.886  0.00  0.00    +0.177 C 
ATOM     25  C   UNL     1      33.285  -9.783 -23.454  0.00  0.00    +0.000 C 
ATOM     26  C   UNL     1      32.335 -10.126 -22.485  0.00  0.00    -0.001 C 
ATOM     27  C   UNL     1      34.044 -10.774 -24.073  0.00  0.00    +0.012 C 
ATOM     28  C   UNL     1      32.141 -11.460 -22.134  0.00  0.00    -0.002 C 
ATOM     29  C   UNL     1      33.853 -12.110 -23.719  0.00  0.00    +0.048 C 
ATOM     30  C   UNL     1      32.904 -12.452 -22.751  0.00  0.00    +0.014 C 
ENDBRANCH  18  29
ENDBRANCH   6  18
TORSDOF 3
ENDMDL
MODEL 3
REMARK VINA RESULT:     -11.3      3.548      8.970
REMARK  Name = 5288710
REMARK  3 active torsions:
REMARK  status: ('A' for Active; 'I' for Inactive)
REMARK    1  A    between atoms: C_6  and  N_18
REMARK    2  A    between atoms: C_9  and  C_15
REMARK    3  A    between atoms: N_18  and  C_29
REMARK                            x       y       z     vdW  Elec       q    Type
REMARK                         _______ _______ _______ _____ _____    ______ ____
ROOT
ATOM      1  O   UNL     1      36.457 -22.277 -18.132  0.00  0.00    -0.270 OA
ATOM      2  N   UNL     1      37.288 -20.512 -19.463  0.00  0.00    -0.280 N 
ATOM      3  C   UNL     1      35.624 -20.377 -21.045  0.00  0.00    +0.019 C 
ATOM      4  C   UNL     1      35.295 -21.438 -20.099  0.00  0.00    +0.069 C 
ATOM      5  C   UNL     1      36.843 -19.848 -20.612  0.00  0.00    +0.051 C 
ATOM      6  C   UNL     1      34.227 -22.241 -20.087  0.00  0.00    +0.066 C 
ATOM      7  C   UNL     1      36.391 -21.512 -19.076  0.00  0.00    +0.251 C 
ATOM      8  C   UNL     1      34.994 -19.872 -22.167  0.00  0.00    +0.005 C 
ATOM      9  C   UNL     1      35.617 -18.822 -22.849  0.00  0.00    +0.036 C 
ATOM     10  C   UNL     1      37.475 -18.810 -21.270  0.00  0.00    +0.015 C 
ATOM     11  C   UNL     1      36.845 -18.295 -22.405  0.00  0.00    +0.004 C 
ATOM     12  H   UNL     1      38.125 -20.302 -18.989  0.00  0.00    +0.155 HD
ENDROOT
BRANCH   9  15
ATOM     13  O   UNL     1      35.188 -16.941 -24.235  0.00  0.00    -0.431 OA
ATOM     14  N   UNL     1      33.903 -17.750 -25.912  0.00  0.00    -0.203 NA
ATOM     15  C   UNL     1      34.992 -18.268 -24.026  0.00  0.00    +0.166 C 
ATOM     16  C   UNL     1      34.217 -18.759 -25.037  0.00  0.00    +0.140 C 
ATOM     17  C   UNL     1      34.503 -16.706 -25.388  0.00  0.00    +0.285 C 
ENDBRANCH   9  15
BRANCH   6  18
ATOM     18  N   UNL     1      33.936 -23.220 -19.204  0.00  0.00    -0.311 N 
ATOM     19  H   UNL     1      34.313 -24.106 -19.409  0.00  0.00    +0.152 HD
BRANCH  18  29
ATOM     20  S   UNL     1      31.961 -23.794 -13.293  0.00  0.00    -0.002 S 
ATOM     21  O   UNL     1      31.399 -25.111 -13.064  0.00  0.00    -0.172 OA
ATOM     22  O   UNL     1      32.294 -22.909 -12.195  0.00  0.00    -0.172 OA
ATOM     23  C   UNL     1      33.406 -23.980 -14.325  0.00  0.00    +0.177 C 
ATOM     24  C   UNL     1      30.883 -22.919 -14.415  0.00  0.00    +0.177 C 
ATOM     25  C   UNL     1      32.920 -23.524 -15.658  0.00  0.00    +0.000 C 
ATOM     26  C   UNL     1      31.630 -22.981 -15.705  0.00  0.00    -0.001 C 
ATOM     27  C   UNL     1      33.689 -23.603 -16.817  0.00  0.00    +0.012 C 
ATOM     28  C   UNL     1      31.108 -22.516 -16.910  0.00  0.00    -0.002 C 
ATOM     29  C   UNL     1      33.165 -23.141 -18.025  0.00  0.00    +0.048 C 
ATOM     30  C   UNL     1      31.877 -22.599 -18.071  0.00  0.00    +0.014 C 
ENDBRANCH  18  29
ENDBRANCH   6  18
TORSDOF 3
ENDMDL
MODEL 4
REMARK VINA RESULT:     -11.2      2.205      3.350
REMARK  Name = 5288710
REMARK  3 active torsions:
REMARK  status: ('A' for Active; 'I' for Inactive)
REMARK    1  A    between atoms: C_6  and  N_18
REMARK    2  A    between atoms: C_9  and  C_15
REMARK    3  A    between atoms: N_18  and  C_29
REMARK                            x       y       z     vdW  Elec       q    Type
REMARK                         _______ _______ _______ _____ _____    ______ ____
ROOT
ATOM      1  O   UNL     1      37.311 -21.600 -19.162  0.00  0.00    -0.270 OA
ATOM      2  N   UNL     1      36.203 -22.545 -17.302  0.00  0.00    -0.280 N 
ATOM      3  C   UNL     1      34.025 -22.446 -18.033  0.00  0.00    +0.019 C 
ATOM      4  C   UNL     1      34.897 -21.894 -19.064  0.00  0.00    +0.069 C 
ATOM      5  C   UNL     1      34.869 -22.826 -16.986  0.00  0.00    +0.051 C 
ATOM      6  C   UNL     1      34.563 -21.395 -20.257  0.00  0.00    +0.066 C 
ATOM      7  C   UNL     1      36.313 -21.967 -18.570  0.00  0.00    +0.251 C 
ATOM      8  C   UNL     1      32.658 -22.631 -17.941  0.00  0.00    +0.005 C 
ATOM      9  C   UNL     1      32.155 -23.207 -16.770  0.00  0.00    +0.036 C 
ATOM     10  C   UNL     1      34.393 -23.397 -15.821  0.00  0.00    +0.015 C 
ATOM     11  C   UNL     1      33.013 -23.586 -15.720  0.00  0.00    +0.004 C 
ATOM     12  H   UNL     1      36.966 -22.731 -16.708  0.00  0.00    +0.155 HD
ENDROOT
BRANCH   9  15
ATOM     13  O   UNL     1      29.936 -22.506 -17.252  0.00  0.00    -0.431 OA
ATOM     14  N   UNL     1      28.621 -24.033 -16.225  0.00  0.00    -0.203 NA
ATOM     15  C   UNL     1      30.733 -23.415 -16.633  0.00  0.00    +0.166 C 
ATOM     16  C   UNL     1      29.942 -24.338 -16.013  0.00  0.00    +0.140 C 
ATOM     17  C   UNL     1      28.682 -22.947 -16.960  0.00  0.00    +0.285 C 
ENDBRANCH   9  15
BRANCH   6  18
ATOM     18  N   UNL     1      35.383 -20.887 -21.203  0.00  0.00    -0.311 N 
ATOM     19  H   UNL     1      36.135 -21.463 -21.470  0.00  0.00    +0.152 HD
BRANCH  18  29
ATOM     20  S   UNL     1      34.573 -16.442 -25.534  0.00  0.00    -0.002 S 
ATOM     21  O   UNL     1      35.741 -16.335 -26.386  0.00  0.00    -0.172 OA
ATOM     22  O   UNL     1      33.313 -15.822 -25.891  0.00  0.00    -0.172 OA
ATOM     23  C   UNL     1      34.278 -18.174 -25.212  0.00  0.00    +0.177 C 
ATOM     24  C   UNL     1      35.029 -15.891 -23.897  0.00  0.00    +0.177 C 
ATOM     25  C   UNL     1      34.771 -18.338 -23.815  0.00  0.00    +0.000 C 
ATOM     26  C   UNL     1      35.155 -17.172 -23.142  0.00  0.00    -0.001 C 
ATOM     27  C   UNL     1      34.843 -19.573 -23.174  0.00  0.00    +0.012 C 
ATOM     28  C   UNL     1      35.611 -17.238 -21.828  0.00  0.00    -0.002 C 
ATOM     29  C   UNL     1      35.304 -19.640 -21.858  0.00  0.00    +0.048 C 
ATOM     30  C   UNL     1      35.687 -18.475 -21.188  0.00  0.00    +0.014 C 
ENDBRANCH  18  29
ENDBRANCH   6  18
TORSDOF 3
ENDMDL
MODEL 5
REMARK VINA RESULT:     -11.0      3.489      6.898
REMARK  Name = 5288710
REMARK  3 active torsions:
REMARK  status: ('A' for Active; 'I' for Inactive)
REMARK    1  A    between atoms: C_6  and  N_18
REMARK    2  A    between atoms: C_9  and  C_15
REMARK    3  A    between atoms: N_18  and  C_29
REMARK                            x       y       z     vdW  Elec       q    Type
REMARK                         _______ _______ _______ _____ _____    ______ ____
ROOT
ATOM      1  O   UNL     1      32.452 -22.934 -15.665  0.00  0.00    -0.270 OA
ATOM      2  N   UNL     1      33.864 -23.825 -13.994  0.00  0.00    -0.280 N 
ATOM      3  C   UNL     1      35.778 -24.171 -15.220  0.00  0.00    +0.019 C 
ATOM      4  C   UNL     1      34.752 -23.608 -16.091  0.00  0.00    +0.069 C 
ATOM      5  C   UNL     1      35.186 -24.282 -13.959  0.00  0.00    +0.051 C 
ATOM      6  C   UNL     1      34.833 -23.315 -17.392  0.00  0.00    +0.066 C 
ATOM      7  C   UNL     1      33.511 -23.390 -15.275  0.00  0.00    +0.251 C 
ATOM      8  C   UNL     1      37.088 -24.563 -15.422  0.00  0.00    +0.005 C 
ATOM      9  C   UNL     1      37.794 -25.073 -14.327  0.00  0.00    +0.036 C 
ATOM     10  C   UNL     1      35.865 -24.781 -12.864  0.00  0.00    +0.015 C 
ATOM     11  C   UNL     1      37.189 -25.180 -13.061  0.00  0.00    +0.004 C 
ATOM     12  H   UNL     1      33.260 -23.813 -13.217  0.00  0.00    +0.155 HD
ENDROOT
BRANCH   9  15
ATOM     13  O   UNL     1      39.636 -26.367 -13.570  0.00  0.00    -0.431 OA
ATOM     14  N   UNL     1      41.285 -25.936 -15.057  0.00  0.00    -0.203 NA
ATOM     15  C   UNL     1      39.163 -25.495 -14.497  0.00  0.00    +0.166 C 
ATOM     16  C   UNL     1      40.156 -25.234 -15.397  0.00  0.00    +0.140 C 
ATOM     17  C   UNL     1      40.918 -26.584 -13.976  0.00  0.00    +0.285 C 
ENDBRANCH   9  15
BRANCH   6  18
ATOM     18  N   UNL     1      33.873 -22.794 -18.186  0.00  0.00    -0.311 N 
ATOM     19  H   UNL     1      32.954 -23.093 -17.997  0.00  0.00    +0.152 HD
BRANCH  18  29
ATOM     20  S   UNL     1      36.232 -18.702 -22.292  0.00  0.00    -0.002 S 
ATOM     21  O   UNL     1      36.326 -17.380 -21.705  0.00  0.00    -0.172 OA
ATOM     22  O   UNL     1      36.909 -19.034 -23.529  0.00  0.00    -0.172 OA
ATOM     23  C   UNL     1      36.709 -19.895 -21.051  0.00  0.00    +0.177 C 
ATOM     24  C   UNL     1      34.502 -19.108 -22.470  0.00  0.00    +0.177 C 
ATOM     25  C   UNL     1      35.400 -20.470 -20.627  0.00  0.00    +0.000 C 
ATOM     26  C   UNL     1      34.272 -20.068 -21.352  0.00  0.00    -0.001 C 
ATOM     27  C   UNL     1      35.272 -21.377 -19.577  0.00  0.00    +0.012 C 
ATOM     28  C   UNL     1      33.014 -20.571 -21.028  0.00  0.00    -0.002 C 
ATOM     29  C   UNL     1      34.012 -21.878 -19.250  0.00  0.00    +0.048 C 
ATOM     30  C   UNL     1      32.886 -21.476 -19.973  0.00  0.00    +0.014 C 
ENDBRANCH  18  29
ENDBRANCH   6  18
TORSDOF 3
ENDMDL
MODEL 6
REMARK VINA RESULT:     -10.7      2.567      5.392
REMARK  Name = 5288710
REMARK  3 active torsions:
REMARK  status: ('A' for Active; 'I' for Inactive)
REMARK    1  A    between atoms: C_6  and  N_18
REMARK    2  A    between atoms: C_9  and  C_15
REMARK    3  A    between atoms: N_18  and  C_29
REMARK                            x       y       z     vdW  Elec       q    Type
REMARK                         _______ _______ _______ _____ _____    ______ ____
ROOT
ATOM      1  O   UNL     1      31.608 -22.690 -17.916  0.00  0.00    -0.270 OA
ATOM      2  N   UNL     1      31.722 -23.482 -15.694  0.00  0.00    -0.280 N 
ATOM      3  C   UNL     1      33.999 -23.699 -15.456  0.00  0.00    +0.019 C 
ATOM      4  C   UNL     1      33.707 -23.208 -16.799  0.00  0.00    +0.069 C 
ATOM      5  C   UNL     1      32.759 -23.848 -14.828  0.00  0.00    +0.051 C 
ATOM      6  C   UNL     1      34.562 -22.913 -17.782  0.00  0.00    +0.066 C 
ATOM      7  C   UNL     1      32.219 -23.073 -16.935  0.00  0.00    +0.251 C 
ATOM      8  C   UNL     1      35.171 -24.003 -14.787  0.00  0.00    +0.005 C 
ATOM      9  C   UNL     1      35.070 -24.461 -13.470  0.00  0.00    +0.036 C 
ATOM     10  C   UNL     1      32.638 -24.298 -13.528  0.00  0.00    +0.015 C 
ATOM     11  C   UNL     1      33.817 -24.608 -12.846  0.00  0.00    +0.004 C 
ATOM     12  H   UNL     1      30.767 -23.509 -15.458  0.00  0.00    +0.155 HD
ENDROOT
BRANCH   9  15
ATOM     13  O   UNL     1      37.009 -25.814 -13.237  0.00  0.00    -0.431 OA
ATOM     14  N   UNL     1      38.032 -25.028 -11.379  0.00  0.00    -0.203 NA
ATOM     15  C   UNL     1      36.270 -24.791 -12.738  0.00  0.00    +0.166 C 
ATOM     16  C   UNL     1      36.885 -24.314 -11.617  0.00  0.00    +0.140 C 
ATOM     17  C   UNL     1      38.052 -25.895 -12.365  0.00  0.00    +0.285 C 
ENDBRANCH   9  15
BRANCH   6  18
ATOM     18  N   UNL     1      34.276 -22.459 -19.021  0.00  0.00    -0.311 N 
ATOM     19  H   UNL     1      33.474 -22.845 -19.442  0.00  0.00    +0.152 HD
BRANCH  18  29
ATOM     20  S   UNL     1      35.712 -18.066 -23.241  0.00  0.00    -0.002 S 
ATOM     21  O   UNL     1      35.946 -18.660 -24.543  0.00  0.00    -0.172 OA
ATOM     22  O   UNL     1      35.523 -16.639 -23.080  0.00  0.00    -0.172 OA
ATOM     23  C   UNL     1      34.327 -18.906 -22.490  0.00  0.00    +0.177 C 
ATOM     24  C   UNL     1      37.026 -18.587 -22.149  0.00  0.00    +0.177 C 
ATOM     25  C   UNL     1      34.983 -19.788 -21.483  0.00  0.00    +0.000 C 
ATOM     26  C   UNL     1      36.362 -19.625 -21.308  0.00  0.00    -0.001 C 
ATOM     27  C   UNL     1      34.286 -20.726 -20.724  0.00  0.00    +0.012 C 
ATOM     28  C   UNL     1      37.048 -20.400 -20.375  0.00  0.00    -0.002 C 
ATOM     29  C   UNL     1      34.973 -21.505 -19.792  0.00  0.00    +0.048 C 
ATOM     30  C   UNL     1      36.350 -21.342 -19.618  0.00  0.00    +0.014 C 
ENDBRANCH  18  29
ENDBRANCH   6  18
TORSDOF 3
ENDMDL
MODEL 7
REMARK VINA RESULT:     -10.4      3.426      5.794
REMARK  Name = 5288710
REMARK  3 active torsions:
REMARK  status: ('A' for Active; 'I' for Inactive)
REMARK    1  A    between atoms: C_6  and  N_18
REMARK    2  A    between atoms: C_9  and  C_15
REMARK    3  A    between atoms: N_18  and  C_29
REMARK                            x       y       z     vdW  Elec       q    Type
REMARK                         _______ _______ _______ _____ _____    ______ ____
ROOT
ATOM      1  O   UNL     1      32.831 -21.614 -20.859  0.00  0.00    -0.270 OA
ATOM      2  N   UNL     1      32.614 -22.397 -18.641  0.00  0.00    -0.280 N 
ATOM      3  C   UNL     1      34.828 -22.488 -18.023  0.00  0.00    +0.019 C 
ATOM      4  C   UNL     1      34.738 -22.014 -19.400  0.00  0.00    +0.069 C 
ATOM      5  C   UNL     1      33.510 -22.704 -17.610  0.00  0.00    +0.051 C 
ATOM      6  C   UNL     1      35.728 -21.673 -20.229  0.00  0.00    +0.066 C 
ATOM      7  C   UNL     1      33.289 -21.962 -19.786  0.00  0.00    +0.251 C 
ATOM      8  C   UNL     1      35.885 -22.726 -17.165  0.00  0.00    +0.005 C 
ATOM      9  C   UNL     1      35.590 -23.189 -15.878  0.00  0.00    +0.036 C 
ATOM     10  C   UNL     1      33.196 -23.160 -16.344  0.00  0.00    +0.015 C 
ATOM     11  C   UNL     1      34.259 -23.404 -15.472  0.00  0.00    +0.004 C 
ATOM     12  H   UNL     1      31.636 -22.477 -18.568  0.00  0.00    +0.155 HD
ENDROOT
BRANCH   9  15
ATOM     13  O   UNL     1      36.410 -23.170 -13.649  0.00  0.00    -0.431 OA
ATOM     14  N   UNL     1      38.519 -23.972 -13.812  0.00  0.00    -0.203 NA
ATOM     15  C   UNL     1      36.666 -23.451 -14.952  0.00  0.00    +0.166 C 
ATOM     16  C   UNL     1      37.937 -23.936 -15.053  0.00  0.00    +0.140 C 
ATOM     17  C   UNL     1      37.573 -23.511 -13.027  0.00  0.00    +0.285 C 
ENDBRANCH   9  15
BRANCH   6  18
ATOM     18  N   UNL     1      35.630 -21.236 -21.503  0.00  0.00    -0.311 N 
ATOM     19  H   UNL     1      35.611 -21.937 -22.194  0.00  0.00    +0.152 HD
BRANCH  18  29
ATOM     20  S   UNL     1      34.713 -16.217 -25.128  0.00  0.00    -0.002 S 
ATOM     21  O   UNL     1      35.838 -16.013 -26.019  0.00  0.00    -0.172 OA
ATOM     22  O   UNL     1      33.453 -15.530 -25.326  0.00  0.00    -0.172 OA
ATOM     23  C   UNL     1      34.391 -17.971 -25.033  0.00  0.00    +0.177 C 
ATOM     24  C   UNL     1      35.266 -15.908 -23.458  0.00  0.00    +0.177 C 
ATOM     25  C   UNL     1      34.950 -18.337 -23.701  0.00  0.00    +0.000 C 
ATOM     26  C   UNL     1      35.397 -17.283 -22.895  0.00  0.00    -0.001 C 
ATOM     27  C   UNL     1      35.023 -19.651 -23.241  0.00  0.00    +0.012 C 
ATOM     28  C   UNL     1      35.919 -17.541 -21.629  0.00  0.00    -0.002 C 
ATOM     29  C   UNL     1      35.549 -19.909 -21.975  0.00  0.00    +0.048 C 
ATOM     30  C   UNL     1      35.996 -18.857 -21.171  0.00  0.00    +0.014 C 
ENDBRANCH  18  29
ENDBRANCH   6  18
TORSDOF 3
ENDMDL
MODEL 8
REMARK VINA RESULT:     -10.3     10.748     14.019
REMARK  Name = 5288710
REMARK  3 active torsions:
REMARK  status: ('A' for Active; 'I' for Inactive)
REMARK    1  A    between atoms: C_6  and  N_18
REMARK    2  A    between atoms: C_9  and  C_15
REMARK    3  A    between atoms: N_18  and  C_29
REMARK                            x       y       z     vdW  Elec       q    Type
REMARK                         _______ _______ _______ _____ _____    ______ ____
ROOT
ATOM      1  O   UNL     1      31.491 -10.033 -19.706  0.00  0.00    -0.270 OA
ATOM      2  N   UNL     1      32.344 -12.235 -19.790  0.00  0.00    -0.280 N 
ATOM      3  C   UNL     1      32.749 -12.429 -22.045  0.00  0.00    +0.019 C 
ATOM      4  C   UNL     1      32.202 -11.103 -21.773  0.00  0.00    +0.069 C 
ATOM      5  C   UNL     1      32.814 -13.073 -20.807  0.00  0.00    +0.051 C 
ATOM      6  C   UNL     1      31.949 -10.114 -22.634  0.00  0.00    +0.066 C 
ATOM      7  C   UNL     1      31.944 -10.995 -20.298  0.00  0.00    +0.251 C 
ATOM      8  C   UNL     1      33.164 -13.069 -23.198  0.00  0.00    +0.005 C 
ATOM      9  C   UNL     1      33.646 -14.376 -23.080  0.00  0.00    +0.036 C 
ATOM     10  C   UNL     1      33.288 -14.363 -20.668  0.00  0.00    +0.015 C 
ATOM     11  C   UNL     1      33.708 -15.018 -21.829  0.00  0.00    +0.004 C 
ATOM     12  H   UNL     1      32.300 -12.486 -18.839  0.00  0.00    +0.155 HD
ENDROOT
BRANCH   9  15
ATOM     13  O   UNL     1      34.916 -16.135 -24.048  0.00  0.00    -0.431 OA
ATOM     14  N   UNL     1      34.567 -15.931 -26.274  0.00  0.00    -0.203 NA
ATOM     15  C   UNL     1      34.088 -15.081 -24.260  0.00  0.00    +0.166 C 
ATOM     16  C   UNL     1      33.875 -14.955 -25.602  0.00  0.00    +0.140 C 
ATOM     17  C   UNL     1      35.160 -16.594 -25.307  0.00  0.00    +0.285 C 
ENDBRANCH   9  15
BRANCH   6  18
ATOM     18  N   UNL     1      31.442  -8.891 -22.367  0.00  0.00    -0.311 N 
ATOM     19  H   UNL     1      30.788  -8.852 -21.633  0.00  0.00    +0.152 HD
BRANCH  18  29
ATOM     20  S   UNL     1      31.368  -2.861 -24.040  0.00  0.00    -0.002 S 
ATOM     21  O   UNL     1      30.282  -2.597 -24.964  0.00  0.00    -0.172 OA
ATOM     22  O   UNL     1      32.083  -1.787 -23.382  0.00  0.00    -0.172 OA
ATOM     23  C   UNL     1      30.771  -3.989 -22.792  0.00  0.00    +0.177 C 
ATOM     24  C   UNL     1      32.557  -3.906 -24.867  0.00  0.00    +0.177 C 
ATOM     25  C   UNL     1      31.385  -5.285 -23.199  0.00  0.00    +0.000 C 
ATOM     26  C   UNL     1      32.298  -5.243 -24.259  0.00  0.00    -0.001 C 
ATOM     27  C   UNL     1      31.100  -6.494 -22.566  0.00  0.00    +0.012 C 
ATOM     28  C   UNL     1      32.927  -6.410 -24.689  0.00  0.00    -0.002 C 
ATOM     29  C   UNL     1      31.727  -7.662 -23.000  0.00  0.00    +0.048 C 
ATOM     30  C   UNL     1      32.638  -7.620 -24.059  0.00  0.00    +0.014 C 
ENDBRANCH  18  29
ENDBRANCH   6  18
TORSDOF 3
ENDMDL
MODEL 9
REMARK VINA RESULT:     -10.1      3.293      8.705
REMARK  Name = 5288710
REMARK  3 active torsions:
REMARK  status: ('A' for Active; 'I' for Inactive)
REMARK    1  A    between atoms: C_6  and  N_18
REMARK    2  A    between atoms: C_9  and  C_15
REMARK    3  A    between atoms: N_18  and  C_29
REMARK                            x       y       z     vdW  Elec       q    Type
REMARK                         _______ _______ _______ _____ _____    ______ ____
ROOT
ATOM      1  O   UNL     1      36.999 -21.899 -17.959  0.00  0.00    -0.270 OA
ATOM      2  N   UNL     1      37.556 -20.143 -19.438  0.00  0.00    -0.280 N 
ATOM      3  C   UNL     1      35.838 -20.328 -20.956  0.00  0.00    +0.019 C 
ATOM      4  C   UNL     1      35.676 -21.352 -19.928  0.00  0.00    +0.069 C 
ATOM      5  C   UNL     1      36.993 -19.623 -20.609  0.00  0.00    +0.051 C 
ATOM      6  C   UNL     1      34.720 -22.279 -19.819  0.00  0.00    +0.066 C 
ATOM      7  C   UNL     1      36.806 -21.216 -18.949  0.00  0.00    +0.251 C 
ATOM      8  C   UNL     1      35.112 -19.987 -22.082  0.00  0.00    +0.005 C 
ATOM      9  C   UNL     1      35.574 -18.919 -22.857  0.00  0.00    +0.036 C 
ATOM     10  C   UNL     1      37.467 -18.564 -21.360  0.00  0.00    +0.015 C 
ATOM     11  C   UNL     1      36.739 -18.214 -22.500  0.00  0.00    +0.004 C 
ATOM     12  H   UNL     1      38.374 -19.797 -19.014  0.00  0.00    +0.155 HD
ENDROOT
BRANCH   9  15
ATOM     13  O   UNL     1      33.943 -19.433 -24.505  0.00  0.00    -0.431 OA
ATOM     14  N   UNL     1      33.912 -17.621 -25.860  0.00  0.00    -0.203 NA
ATOM     15  C   UNL     1      34.846 -18.532 -24.042  0.00  0.00    +0.166 C 
ATOM     16  C   UNL     1      34.829 -17.438 -24.857  0.00  0.00    +0.140 C 
ATOM     17  C   UNL     1      33.422 -18.812 -25.600  0.00  0.00    +0.285 C 
ENDBRANCH   9  15
BRANCH   6  18
ATOM     18  N   UNL     1      34.585 -23.221 -18.861  0.00  0.00    -0.311 N 
ATOM     19  H   UNL     1      35.173 -24.006 -18.948  0.00  0.00    +0.152 HD
BRANCH  18  29
ATOM     20  S   UNL     1      29.451 -23.141 -15.282  0.00  0.00    -0.002 S 
ATOM     21  O   UNL     1      28.961 -21.787 -15.117  0.00  0.00    -0.172 OA
ATOM     22  O   UNL     1      28.643 -24.290 -14.929  0.00  0.00    -0.172 OA
ATOM     23  C   UNL     1      29.993 -23.331 -16.973  0.00  0.00    +0.177 C 
ATOM     24  C   UNL     1      31.017 -23.271 -14.433  0.00  0.00    +0.177 C 
ATOM     25  C   UNL     1      31.478 -23.276 -16.851  0.00  0.00    +0.000 C 
ATOM     26  C   UNL     1      32.002 -23.245 -15.553  0.00  0.00    -0.001 C 
ATOM     27  C   UNL     1      32.332 -23.270 -17.952  0.00  0.00    +0.012 C 
ATOM     28  C   UNL     1      33.380 -23.209 -15.354  0.00  0.00    -0.002 C 
ATOM     29  C   UNL     1      33.713 -23.230 -17.752  0.00  0.00    +0.048 C 
ATOM     30  C   UNL     1      34.235 -23.199 -16.456  0.00  0.00    +0.014 C 
ENDBRANCH  18  29
ENDBRANCH   6  18
TORSDOF 3
ENDMDL
