MODEL 1
REMARK VINA RESULT:     -12.0      0.000      0.000
REMARK  Name = 11282283
REMARK  4 active torsions:
REMARK  status: ('A' for Active; 'I' for Inactive)
REMARK    1  A    between atoms: N_3  and  C_21
REMARK    2  A    between atoms: C_21  and  N_22
REMARK    3  A    between atoms: N_22  and  C_24
REMARK    4  A    between atoms: C_24  and  C_27
REMARK                            x       y       z     vdW  Elec       q    Type
REMARK                         _______ _______ _______ _____ _____    ______ ____
ROOT
ATOM      1  O   UNL     1      33.308  -9.952 -22.639  0.00  0.00    -0.466 OA
ATOM      2  N   UNL     1      33.068 -12.766 -21.811  0.00  0.00    -0.290 N 
ATOM      3  N   UNL     1      34.361 -14.949 -23.170  0.00  0.00    -0.288 N 
ATOM      4  N   UNL     1      31.663 -11.928 -20.068  0.00  0.00    -0.230 NA
ATOM      5  N   UNL     1      31.178  -9.546 -19.837  0.00  0.00    -0.245 NA
ATOM      6  C   UNL     1      33.473 -13.971 -21.080  0.00  0.00    +0.113 C 
ATOM      7  C   UNL     1      33.338 -12.698 -23.251  0.00  0.00    +0.113 C 
ATOM      8  C   UNL     1      34.649 -14.655 -21.774  0.00  0.00    +0.114 C 
ATOM      9  C   UNL     1      33.398 -14.100 -23.856  0.00  0.00    +0.114 C 
ATOM     10  C   UNL     1      32.438 -11.710 -21.153  0.00  0.00    +0.152 C 
ATOM     11  C   UNL     1      32.586 -10.408 -21.583  0.00  0.00    +0.258 C 
ATOM     12  C   UNL     1      31.961  -9.356 -20.927  0.00  0.00    +0.106 C 
ATOM     13  C   UNL     1      32.323  -8.176 -21.626  0.00  0.00    +0.051 C 
ATOM     14  C   UNL     1      33.151  -8.596 -22.667  0.00  0.00    +0.141 C 
ATOM     15  C   UNL     1      31.089 -10.849 -19.485  0.00  0.00    +0.251 C 
ATOM     16  C   UNL     1      32.048  -6.804 -21.499  0.00  0.00    +0.004 C 
ATOM     17  C   UNL     1      33.728  -7.735 -23.599  0.00  0.00    +0.037 C 
ATOM     18  C   UNL     1      32.615  -5.915 -22.423  0.00  0.00    +0.000 C 
ATOM     19  C   UNL     1      33.440  -6.375 -23.453  0.00  0.00    +0.003 C 
ENDROOT
BRANCH   3  21
ATOM     20  S   UNL     1      34.788 -16.203 -25.458  0.00  0.00    -0.019 S 
ATOM     21  C   UNL     1      34.970 -15.979 -23.810  0.00  0.00    +0.135 C 
BRANCH  21  22
ATOM     22  N   UNL     1      35.742 -16.829 -23.058  0.00  0.00    -0.312 N 
ATOM     23  H   UNL     1      36.084 -16.483 -22.203  0.00  0.00    +0.149 HD
BRANCH  22  24
ATOM     24  C   UNL     1      36.099 -18.190 -23.407  0.00  0.00    +0.116 C 
BRANCH  24  27
ATOM     25  O   UNL     1      33.120 -20.994 -20.644  0.00  0.00    -0.435 OA
ATOM     26  O   UNL     1      34.935 -21.761 -19.258  0.00  0.00    -0.435 OA
ATOM     27  C   UNL     1      35.822 -19.148 -22.286  0.00  0.00    +0.001 C 
ATOM     28  C   UNL     1      34.519 -19.582 -22.061  0.00  0.00    +0.038 C 
ATOM     29  C   UNL     1      36.884 -19.590 -21.484  0.00  0.00    +0.001 C 
ATOM     30  C   UNL     1      34.315 -20.463 -21.019  0.00  0.00    +0.176 C 
ATOM     31  C   UNL     1      35.352 -20.901 -20.227  0.00  0.00    +0.176 C 
ATOM     32  C   UNL     1      36.651 -20.482 -20.435  0.00  0.00    +0.040 C 
ATOM     33  C   UNL     1      33.520 -21.816 -19.529  0.00  0.00    +0.429 C 
ENDBRANCH  24  27
ENDBRANCH  22  24
ENDBRANCH  21  22
ENDBRANCH   3  21
TORSDOF 4
ENDMDL
MODEL 2
REMARK VINA RESULT:     -11.9      2.346      3.747
REMARK  Name = 11282283
REMARK  4 active torsions:
REMARK  status: ('A' for Active; 'I' for Inactive)
REMARK    1  A    between atoms: N_3  and  C_21
REMARK    2  A    between atoms: C_21  and  N_22
REMARK    3  A    between atoms: N_22  and  C_24
REMARK    4  A    between atoms: C_24  and  C_27
REMARK                            x       y       z     vdW  Elec       q    Type
REMARK                         _______ _______ _______ _____ _____    ______ ____
ROOT
ATOM      1  O   UNL     1      33.046 -13.302 -21.732  0.00  0.00    -0.466 OA
ATOM      2  N   UNL     1      34.436 -14.641 -23.953  0.00  0.00    -0.290 N 
ATOM      3  N   UNL     1      35.186 -17.421 -23.927  0.00  0.00    -0.288 N 
ATOM      4  N   UNL     1      34.353 -12.510 -25.031  0.00  0.00    -0.230 NA
ATOM      5  N   UNL     1      33.328 -10.567 -23.966  0.00  0.00    -0.245 NA
ATOM      6  C   UNL     1      34.507 -15.412 -25.200  0.00  0.00    +0.113 C 
ATOM      7  C   UNL     1      34.755 -15.321 -22.693  0.00  0.00    +0.113 C 
ATOM      8  C   UNL     1      34.272 -16.897 -24.931  0.00  0.00    +0.114 C 
ATOM      9  C   UNL     1      35.706 -16.491 -22.935  0.00  0.00    +0.114 C 
ATOM     10  C   UNL     1      34.076 -13.295 -23.966  0.00  0.00    +0.152 C 
ATOM     11  C   UNL     1      33.423 -12.716 -22.898  0.00  0.00    +0.258 C 
ATOM     12  C   UNL     1      33.063 -11.377 -22.911  0.00  0.00    +0.106 C 
ATOM     13  C   UNL     1      32.421 -11.121 -21.672  0.00  0.00    +0.051 C 
ATOM     14  C   UNL     1      32.436 -12.335 -20.986  0.00  0.00    +0.141 C 
ATOM     15  C   UNL     1      33.968 -11.213 -24.966  0.00  0.00    +0.251 C 
ATOM     16  C   UNL     1      31.830 -10.007 -21.053  0.00  0.00    +0.004 C 
ATOM     17  C   UNL     1      31.898 -12.516 -19.713  0.00  0.00    +0.037 C 
ATOM     18  C   UNL     1      31.281 -10.160 -19.772  0.00  0.00    +0.000 C 
ATOM     19  C   UNL     1      31.316 -11.393 -19.117  0.00  0.00    +0.003 C 
ENDROOT
BRANCH   3  21
ATOM     20  S   UNL     1      34.758 -19.846 -24.887  0.00  0.00    -0.019 S 
ATOM     21  C   UNL     1      35.540 -18.730 -23.916  0.00  0.00    +0.135 C 
BRANCH  21  22
ATOM     22  N   UNL     1      36.564 -19.107 -23.084  0.00  0.00    -0.312 N 
ATOM     23  H   UNL     1      37.368 -19.485 -23.508  0.00  0.00    +0.149 HD
BRANCH  22  24
ATOM     24  C   UNL     1      36.572 -18.998 -21.638  0.00  0.00    +0.116 C 
BRANCH  24  27
ATOM     25  O   UNL     1      35.280 -22.812 -18.781  0.00  0.00    -0.435 OA
ATOM     26  O   UNL     1      32.931 -22.482 -19.203  0.00  0.00    -0.435 OA
ATOM     27  C   UNL     1      35.568 -19.914 -21.001  0.00  0.00    +0.001 C 
ATOM     28  C   UNL     1      36.008 -20.943 -20.174  0.00  0.00    +0.038 C 
ATOM     29  C   UNL     1      34.203 -19.716 -21.251  0.00  0.00    +0.001 C 
ATOM     30  C   UNL     1      35.048 -21.759 -19.611  0.00  0.00    +0.176 C 
ATOM     31  C   UNL     1      33.706 -21.570 -19.852  0.00  0.00    +0.176 C 
ATOM     32  C   UNL     1      33.251 -20.555 -20.669  0.00  0.00    +0.040 C 
ATOM     33  C   UNL     1      33.935 -23.265 -18.526  0.00  0.00    +0.429 C 
ENDBRANCH  24  27
ENDBRANCH  22  24
ENDBRANCH  21  22
ENDBRANCH   3  21
TORSDOF 4
ENDMDL
MODEL 3
REMARK VINA RESULT:     -11.7      3.322     11.294
REMARK  Name = 11282283
REMARK  4 active torsions:
REMARK  status: ('A' for Active; 'I' for Inactive)
REMARK    1  A    between atoms: N_3  and  C_21
REMARK    2  A    between atoms: C_21  and  N_22
REMARK    3  A    between atoms: N_22  and  C_24
REMARK    4  A    between atoms: C_24  and  C_27
REMARK                            x       y       z     vdW  Elec       q    Type
REMARK                         _______ _______ _______ _____ _____    ______ ____
ROOT
ATOM      1  O   UNL     1      34.579 -15.003 -22.878  0.00  0.00    -0.466 OA
ATOM      2  N   UNL     1      33.429 -12.579 -24.086  0.00  0.00    -0.290 N 
ATOM      3  N   UNL     1      32.730 -10.222 -22.589  0.00  0.00    -0.288 N 
ATOM      4  N   UNL     1      33.573 -13.777 -26.149  0.00  0.00    -0.230 NA
ATOM      5  N   UNL     1      34.458 -16.050 -26.260  0.00  0.00    -0.245 NA
ATOM      6  C   UNL     1      33.488 -11.251 -24.706  0.00  0.00    +0.113 C 
ATOM      7  C   UNL     1      33.005 -12.678 -22.685  0.00  0.00    +0.113 C 
ATOM      8  C   UNL     1      33.724 -10.173 -23.650  0.00  0.00    +0.114 C 
ATOM      9  C   UNL     1      32.103 -11.505 -22.309  0.00  0.00    +0.114 C 
ATOM     10  C   UNL     1      33.763 -13.721 -24.812  0.00  0.00    +0.152 C 
ATOM     11  C   UNL     1      34.302 -14.831 -24.196  0.00  0.00    +0.258 C 
ATOM     12  C   UNL     1      34.637 -15.967 -24.919  0.00  0.00    +0.106 C 
ATOM     13  C   UNL     1      35.156 -16.899 -23.983  0.00  0.00    +0.051 C 
ATOM     14  C   UNL     1      35.098 -16.259 -22.746  0.00  0.00    +0.141 C 
ATOM     15  C   UNL     1      33.927 -14.922 -26.782  0.00  0.00    +0.251 C 
ATOM     16  C   UNL     1      35.665 -18.207 -24.039  0.00  0.00    +0.004 C 
ATOM     17  C   UNL     1      35.518 -16.838 -21.549  0.00  0.00    +0.037 C 
ATOM     18  C   UNL     1      36.095 -18.815 -22.851  0.00  0.00    +0.000 C 
ATOM     19  C   UNL     1      36.021 -18.140 -21.630  0.00  0.00    +0.003 C 
ENDROOT
BRANCH   3  21
ATOM     20  S   UNL     1      32.331  -9.134 -20.213  0.00  0.00    -0.019 S 
ATOM     21  C   UNL     1      32.401  -9.110 -21.884  0.00  0.00    +0.135 C 
BRANCH  21  22
ATOM     22  N   UNL     1      32.129  -7.966 -22.590  0.00  0.00    -0.312 N 
ATOM     23  H   UNL     1      31.518  -8.049 -23.357  0.00  0.00    +0.149 HD
BRANCH  22  24
ATOM     24  C   UNL     1      32.657  -6.645 -22.310  0.00  0.00    +0.116 C 
BRANCH  24  27
ATOM     25  O   UNL     1      32.354  -3.237 -25.870  0.00  0.00    -0.435 OA
ATOM     26  O   UNL     1      34.370  -4.008 -26.940  0.00  0.00    -0.435 OA
ATOM     27  C   UNL     1      33.145  -5.960 -23.554  0.00  0.00    +0.001 C 
ATOM     28  C   UNL     1      32.426  -4.888 -24.073  0.00  0.00    +0.038 C 
ATOM     29  C   UNL     1      34.320  -6.414 -24.170  0.00  0.00    +0.001 C 
ATOM     30  C   UNL     1      32.914  -4.291 -25.217  0.00  0.00    +0.176 C 
ATOM     31  C   UNL     1      34.067  -4.731 -25.828  0.00  0.00    +0.176 C 
ATOM     32  C   UNL     1      34.793  -5.793 -25.328  0.00  0.00    +0.040 C 
ATOM     33  C   UNL     1      33.282  -3.063 -26.960  0.00  0.00    +0.429 C 
ENDBRANCH  24  27
ENDBRANCH  22  24
ENDBRANCH  21  22
ENDBRANCH   3  21
TORSDOF 4
ENDMDL
MODEL 4
REMARK VINA RESULT:     -11.3      5.734     11.929
REMARK  Name = 11282283
REMARK  4 active torsions:
REMARK  status: ('A' for Active; 'I' for Inactive)
REMARK    1  A    between atoms: N_3  and  C_21
REMARK    2  A    between atoms: C_21  and  N_22
REMARK    3  A    between atoms: N_22  and  C_24
REMARK    4  A    between atoms: C_24  and  C_27
REMARK                            x       y       z     vdW  Elec       q    Type
REMARK                         _______ _______ _______ _____ _____    ______ ____
ROOT
ATOM      1  O   UNL     1      33.251 -22.945 -16.646  0.00  0.00    -0.466 OA
ATOM      2  N   UNL     1      35.840 -22.381 -17.926  0.00  0.00    -0.290 N 
ATOM      3  N   UNL     1      36.152 -20.662 -20.214  0.00  0.00    -0.288 N 
ATOM      4  N   UNL     1      36.757 -23.828 -16.260  0.00  0.00    -0.230 NA
ATOM      5  N   UNL     1      35.355 -24.901 -14.572  0.00  0.00    -0.245 NA
ATOM      6  C   UNL     1      37.079 -21.624 -18.133  0.00  0.00    +0.113 C 
ATOM      7  C   UNL     1      34.763 -22.241 -18.912  0.00  0.00    +0.113 C 
ATOM      8  C   UNL     1      36.811 -20.363 -18.952  0.00  0.00    +0.114 C 
ATOM      9  C   UNL     1      35.328 -21.859 -20.279  0.00  0.00    +0.114 C 
ATOM     10  C   UNL     1      35.690 -23.216 -16.820  0.00  0.00    +0.152 C 
ATOM     11  C   UNL     1      34.452 -23.445 -16.257  0.00  0.00    +0.258 C 
ATOM     12  C   UNL     1      34.303 -24.275 -15.155  0.00  0.00    +0.106 C 
ATOM     13  C   UNL     1      32.918 -24.284 -14.844  0.00  0.00    +0.051 C 
ATOM     14  C   UNL     1      32.317 -23.452 -15.789  0.00  0.00    +0.141 C 
ATOM     15  C   UNL     1      36.527 -24.621 -15.186  0.00  0.00    +0.251 C 
ATOM     16  C   UNL     1      32.105 -24.899 -13.877  0.00  0.00    +0.004 C 
ATOM     17  C   UNL     1      30.949 -23.189 -15.835  0.00  0.00    +0.037 C 
ATOM     18  C   UNL     1      30.726 -24.652 -13.900  0.00  0.00    +0.000 C 
ATOM     19  C   UNL     1      30.161 -23.811 -14.862  0.00  0.00    +0.003 C 
ENDROOT
BRANCH   3  21
ATOM     20  S   UNL     1      37.720 -19.003 -21.547  0.00  0.00    -0.019 S 
ATOM     21  C   UNL     1      36.301 -19.852 -21.292  0.00  0.00    +0.135 C 
BRANCH  21  22
ATOM     22  N   UNL     1      35.248 -19.755 -22.167  0.00  0.00    -0.312 N 
ATOM     23  H   UNL     1      34.343 -19.818 -21.786  0.00  0.00    +0.149 HD
BRANCH  22  24
ATOM     24  C   UNL     1      35.346 -19.568 -23.602  0.00  0.00    +0.116 C 
BRANCH  24  27
ATOM     25  O   UNL     1      33.701 -16.129 -26.739  0.00  0.00    -0.435 OA
ATOM     26  O   UNL     1      34.219 -14.331 -25.221  0.00  0.00    -0.435 OA
ATOM     27  C   UNL     1      35.056 -18.151 -24.004  0.00  0.00    +0.001 C 
ATOM     28  C   UNL     1      34.492 -17.895 -25.250  0.00  0.00    +0.038 C 
ATOM     29  C   UNL     1      35.360 -17.110 -23.115  0.00  0.00    +0.001 C 
ATOM     30  C   UNL     1      34.244 -16.577 -25.574  0.00  0.00    +0.176 C 
ATOM     31  C   UNL     1      34.539 -15.550 -24.707  0.00  0.00    +0.176 C 
ATOM     32  C   UNL     1      35.100 -15.785 -23.468  0.00  0.00    +0.040 C 
ATOM     33  C   UNL     1      33.688 -14.705 -26.508  0.00  0.00    +0.429 C 
ENDBRANCH  24  27
ENDBRANCH  22  24
ENDBRANCH  21  22
ENDBRANCH   3  21
TORSDOF 4
ENDMDL
MODEL 5
REMARK VINA RESULT:     -11.3      3.366     11.529
REMARK  Name = 11282283
REMARK  4 active torsions:
REMARK  status: ('A' for Active; 'I' for Inactive)
REMARK    1  A    between atoms: N_3  and  C_21
REMARK    2  A    between atoms: C_21  and  N_22
REMARK    3  A    between atoms: N_22  and  C_24
REMARK    4  A    between atoms: C_24  and  C_27
REMARK                            x       y       z     vdW  Elec       q    Type
REMARK                         _______ _______ _______ _____ _____    ______ ____
ROOT
ATOM      1  O   UNL     1      34.579 -14.956 -22.930  0.00  0.00    -0.466 OA
ATOM      2  N   UNL     1      33.461 -12.502 -24.106  0.00  0.00    -0.290 N 
ATOM      3  N   UNL     1      32.832 -10.141 -22.583  0.00  0.00    -0.288 N 
ATOM      4  N   UNL     1      33.551 -13.688 -26.179  0.00  0.00    -0.230 NA
ATOM      5  N   UNL     1      34.388 -15.978 -26.317  0.00  0.00    -0.245 NA
ATOM      6  C   UNL     1      33.539 -11.171 -24.718  0.00  0.00    +0.113 C 
ATOM      7  C   UNL     1      33.056 -12.602 -22.700  0.00  0.00    +0.113 C 
ATOM      8  C   UNL     1      33.812 -10.105 -23.659  0.00  0.00    +0.114 C 
ATOM      9  C   UNL     1      32.183 -11.413 -22.303  0.00  0.00    +0.114 C 
ATOM     10  C   UNL     1      33.762 -13.645 -24.844  0.00  0.00    +0.152 C 
ATOM     11  C   UNL     1      34.287 -14.770 -24.243  0.00  0.00    +0.258 C 
ATOM     12  C   UNL     1      34.589 -15.907 -24.978  0.00  0.00    +0.106 C 
ATOM     13  C   UNL     1      35.102 -16.856 -24.056  0.00  0.00    +0.051 C 
ATOM     14  C   UNL     1      35.075 -16.223 -22.814  0.00  0.00    +0.141 C 
ATOM     15  C   UNL     1      33.873 -14.835 -26.824  0.00  0.00    +0.251 C 
ATOM     16  C   UNL     1      35.584 -18.174 -24.128  0.00  0.00    +0.004 C 
ATOM     17  C   UNL     1      35.500 -16.819 -21.628  0.00  0.00    +0.037 C 
ATOM     18  C   UNL     1      36.018 -18.798 -22.951  0.00  0.00    +0.000 C 
ATOM     19  C   UNL     1      35.976 -18.130 -21.724  0.00  0.00    +0.003 C 
ENDROOT
BRANCH   3  21
ATOM     20  S   UNL     1      32.175  -9.119 -20.235  0.00  0.00    -0.019 S 
ATOM     21  C   UNL     1      32.535  -9.028 -21.867  0.00  0.00    +0.135 C 
BRANCH  21  22
ATOM     22  N   UNL     1      32.543  -7.825 -22.527  0.00  0.00    -0.312 N 
ATOM     23  H   UNL     1      33.419  -7.472 -22.803  0.00  0.00    +0.149 HD
BRANCH  22  24
ATOM     24  C   UNL     1      31.379  -7.025 -22.855  0.00  0.00    +0.116 C 
BRANCH  24  27
ATOM     25  O   UNL     1      33.850  -4.563 -26.349  0.00  0.00    -0.435 OA
ATOM     26  O   UNL     1      32.837  -2.461 -25.748  0.00  0.00    -0.435 OA
ATOM     27  C   UNL     1      31.747  -5.781 -23.611  0.00  0.00    +0.001 C 
ATOM     28  C   UNL     1      32.670  -5.859 -24.650  0.00  0.00    +0.038 C 
ATOM     29  C   UNL     1      31.153  -4.562 -23.256  0.00  0.00    +0.001 C 
ATOM     30  C   UNL     1      32.976  -4.689 -25.314  0.00  0.00    +0.176 C 
ATOM     31  C   UNL     1      32.397  -3.488 -24.971  0.00  0.00    +0.176 C 
ATOM     32  C   UNL     1      31.480  -3.392 -23.944  0.00  0.00    +0.040 C 
ATOM     33  C   UNL     1      33.756  -3.150 -26.620  0.00  0.00    +0.429 C 
ENDBRANCH  24  27
ENDBRANCH  22  24
ENDBRANCH  21  22
ENDBRANCH   3  21
TORSDOF 4
ENDMDL
MODEL 6
REMARK VINA RESULT:     -10.6      8.515     13.928
REMARK  Name = 11282283
REMARK  4 active torsions:
REMARK  status: ('A' for Active; 'I' for Inactive)
REMARK    1  A    between atoms: N_3  and  C_21
REMARK    2  A    between atoms: C_21  and  N_22
REMARK    3  A    between atoms: N_22  and  C_24
REMARK    4  A    between atoms: C_24  and  C_27
REMARK                            x       y       z     vdW  Elec       q    Type
REMARK                         _______ _______ _______ _____ _____    ______ ____
ROOT
ATOM      1  O   UNL     1      37.256 -24.835 -14.836  0.00  0.00    -0.466 OA
ATOM      2  N   UNL     1      34.520 -24.031 -14.115  0.00  0.00    -0.290 N 
ATOM      3  N   UNL     1      32.525 -23.243 -16.036  0.00  0.00    -0.288 N 
ATOM      4  N   UNL     1      35.207 -24.428 -11.861  0.00  0.00    -0.230 NA
ATOM      5  N   UNL     1      37.464 -25.186 -11.317  0.00  0.00    -0.245 NA
ATOM      6  C   UNL     1      33.095 -24.263 -13.856  0.00  0.00    +0.113 C 
ATOM      7  C   UNL     1      34.905 -23.387 -15.376  0.00  0.00    +0.113 C 
ATOM      8  C   UNL     1      32.322 -24.393 -15.167  0.00  0.00    +0.114 C 
ATOM      9  C   UNL     1      33.773 -22.507 -15.901  0.00  0.00    +0.114 C 
ATOM     10  C   UNL     1      35.485 -24.409 -13.184  0.00  0.00    +0.152 C 
ATOM     11  C   UNL     1      36.754 -24.779 -13.576  0.00  0.00    +0.258 C 
ATOM     12  C   UNL     1      37.715 -25.158 -12.649  0.00  0.00    +0.106 C 
ATOM     13  C   UNL     1      38.886 -25.468 -13.389  0.00  0.00    +0.051 C 
ATOM     14  C   UNL     1      38.551 -25.254 -14.726  0.00  0.00    +0.141 C 
ATOM     15  C   UNL     1      36.200 -24.810 -11.021  0.00  0.00    +0.251 C 
ATOM     16  C   UNL     1      40.186 -25.903 -13.083  0.00  0.00    +0.004 C 
ATOM     17  C   UNL     1      39.433 -25.447 -15.788  0.00  0.00    +0.037 C 
ATOM     18  C   UNL     1      41.093 -26.105 -14.132  0.00  0.00    +0.000 C 
ATOM     19  C   UNL     1      40.720 -25.880 -15.460  0.00  0.00    +0.003 C 
ENDROOT
BRANCH   3  21
ATOM     20  S   UNL     1      29.955 -22.917 -16.561  0.00  0.00    -0.019 S 
ATOM     21  C   UNL     1      31.584 -22.872 -16.940  0.00  0.00    +0.135 C 
BRANCH  21  22
ATOM     22  N   UNL     1      32.015 -22.456 -18.174  0.00  0.00    -0.312 N 
ATOM     23  H   UNL     1      31.451 -21.802 -18.647  0.00  0.00    +0.149 HD
BRANCH  22  24
ATOM     24  C   UNL     1      33.224 -22.889 -18.846  0.00  0.00    +0.116 C 
BRANCH  24  27
ATOM     25  O   UNL     1      37.022 -20.188 -20.479  0.00  0.00    -0.435 OA
ATOM     26  O   UNL     1      35.606 -18.833 -21.880  0.00  0.00    -0.435 OA
ATOM     27  C   UNL     1      33.831 -21.792 -19.673  0.00  0.00    +0.001 C 
ATOM     28  C   UNL     1      35.203 -21.573 -19.620  0.00  0.00    +0.038 C 
ATOM     29  C   UNL     1      33.000 -21.008 -20.486  0.00  0.00    +0.001 C 
ATOM     30  C   UNL     1      35.714 -20.554 -20.398  0.00  0.00    +0.176 C 
ATOM     31  C   UNL     1      34.905 -19.780 -21.199  0.00  0.00    +0.176 C 
ATOM     32  C   UNL     1      33.541 -19.983 -21.265  0.00  0.00    +0.040 C 
ATOM     33  C   UNL     1      36.946 -19.098 -21.420  0.00  0.00    +0.429 C 
ENDBRANCH  24  27
ENDBRANCH  22  24
ENDBRANCH  21  22
ENDBRANCH   3  21
TORSDOF 4
ENDMDL
MODEL 7
REMARK VINA RESULT:     -10.4      2.486      3.841
REMARK  Name = 11282283
REMARK  4 active torsions:
REMARK  status: ('A' for Active; 'I' for Inactive)
REMARK    1  A    between atoms: N_3  and  C_21
REMARK    2  A    between atoms: C_21  and  N_22
REMARK    3  A    between atoms: N_22  and  C_24
REMARK    4  A    between atoms: C_24  and  C_27
REMARK                            x       y       z     vdW  Elec       q    Type
REMARK                         _______ _______ _______ _____ _____    ______ ____
ROOT
ATOM      1  O   UNL     1      33.050 -13.361 -21.414  0.00  0.00    -0.466 OA
ATOM      2  N   UNL     1      34.568 -14.837 -23.457  0.00  0.00    -0.290 N 
ATOM      3  N   UNL     1      35.459 -17.555 -23.134  0.00  0.00    -0.288 N 
ATOM      4  N   UNL     1      34.406 -12.831 -24.745  0.00  0.00    -0.230 NA
ATOM      5  N   UNL     1      33.253 -10.849 -23.904  0.00  0.00    -0.245 NA
ATOM      6  C   UNL     1      34.713 -15.722 -24.618  0.00  0.00    +0.113 C 
ATOM      7  C   UNL     1      34.886 -15.370 -22.128  0.00  0.00    +0.113 C 
ATOM      8  C   UNL     1      34.548 -17.183 -24.207  0.00  0.00    +0.114 C 
ATOM      9  C   UNL     1      35.902 -16.505 -22.230  0.00  0.00    +0.114 C 
ATOM     10  C   UNL     1      34.140 -13.520 -23.613  0.00  0.00    +0.152 C 
ATOM     11  C   UNL     1      33.429 -12.874 -22.624  0.00  0.00    +0.258 C 
ATOM     12  C   UNL     1      33.001 -11.563 -22.780  0.00  0.00    +0.106 C 
ATOM     13  C   UNL     1      32.312 -11.222 -21.587  0.00  0.00    +0.051 C 
ATOM     14  C   UNL     1      32.370 -12.359 -20.782  0.00  0.00    +0.141 C 
ATOM     15  C   UNL     1      33.952 -11.556 -24.820  0.00  0.00    +0.251 C 
ATOM     16  C   UNL     1      31.648 -10.085 -21.096  0.00  0.00    +0.004 C 
ATOM     17  C   UNL     1      31.807 -12.441 -19.510  0.00  0.00    +0.037 C 
ATOM     18  C   UNL     1      31.072 -10.140 -19.820  0.00  0.00    +0.000 C 
ATOM     19  C   UNL     1      31.151 -11.298 -19.043  0.00  0.00    +0.003 C 
ENDROOT
BRANCH   3  21
ATOM     20  S   UNL     1      37.502 -19.197 -22.791  0.00  0.00    -0.019 S 
ATOM     21  C   UNL     1      35.880 -18.836 -22.984  0.00  0.00    +0.135 C 
BRANCH  21  22
ATOM     22  N   UNL     1      34.928 -19.825 -22.994  0.00  0.00    -0.312 N 
ATOM     23  H   UNL     1      35.007 -20.514 -23.692  0.00  0.00    +0.149 HD
BRANCH  22  24
ATOM     24  C   UNL     1      33.818 -19.949 -22.069  0.00  0.00    +0.116 C 
BRANCH  24  27
ATOM     25  O   UNL     1      32.705 -22.704 -18.126  0.00  0.00    -0.435 OA
ATOM     26  O   UNL     1      35.024 -23.051 -17.569  0.00  0.00    -0.435 OA
ATOM     27  C   UNL     1      34.177 -20.776 -20.869  0.00  0.00    +0.001 C 
ATOM     28  C   UNL     1      33.165 -21.332 -20.093  0.00  0.00    +0.038 C 
ATOM     29  C   UNL     1      35.528 -20.974 -20.551  0.00  0.00    +0.001 C 
ATOM     30  C   UNL     1      33.544 -22.085 -19.000  0.00  0.00    +0.176 C 
ATOM     31  C   UNL     1      34.868 -22.283 -18.682  0.00  0.00    +0.176 C 
ATOM     32  C   UNL     1      35.886 -21.739 -19.440  0.00  0.00    +0.040 C 
ATOM     33  C   UNL     1      33.649 -23.315 -17.223  0.00  0.00    +0.429 C 
ENDBRANCH  24  27
ENDBRANCH  22  24
ENDBRANCH  21  22
ENDBRANCH   3  21
TORSDOF 4
ENDMDL
MODEL 8
REMARK VINA RESULT:     -10.4      6.480     13.065
REMARK  Name = 11282283
REMARK  4 active torsions:
REMARK  status: ('A' for Active; 'I' for Inactive)
REMARK    1  A    between atoms: N_3  and  C_21
REMARK    2  A    between atoms: C_21  and  N_22
REMARK    3  A    between atoms: N_22  and  C_24
REMARK    4  A    between atoms: C_24  and  C_27
REMARK                            x       y       z     vdW  Elec       q    Type
REMARK                         _______ _______ _______ _____ _____    ______ ____
ROOT
ATOM      1  O   UNL     1      37.866 -24.309 -15.925  0.00  0.00    -0.466 OA
ATOM      2  N   UNL     1      35.318 -23.019 -16.635  0.00  0.00    -0.290 N 
ATOM      3  N   UNL     1      34.847 -21.682 -19.140  0.00  0.00    -0.288 N 
ATOM      4  N   UNL     1      34.580 -23.734 -14.478  0.00  0.00    -0.230 NA
ATOM      5  N   UNL     1      36.036 -24.984 -12.967  0.00  0.00    -0.245 NA
ATOM      6  C   UNL     1      33.974 -22.974 -17.221  0.00  0.00    +0.113 C 
ATOM      7  C   UNL     1      36.417 -22.368 -17.357  0.00  0.00    +0.113 C 
ATOM      8  C   UNL     1      34.051 -22.832 -18.739  0.00  0.00    +0.114 C 
ATOM      9  C   UNL     1      35.891 -21.232 -18.232  0.00  0.00    +0.114 C 
ATOM     10  C   UNL     1      35.546 -23.664 -15.421  0.00  0.00    +0.152 C 
ATOM     11  C   UNL     1      36.760 -24.255 -15.138  0.00  0.00    +0.258 C 
ATOM     12  C   UNL     1      36.986 -24.899 -13.930  0.00  0.00    +0.106 C 
ATOM     13  C   UNL     1      38.319 -25.382 -13.977  0.00  0.00    +0.051 C 
ATOM     14  C   UNL     1      38.815 -24.994 -15.221  0.00  0.00    +0.141 C 
ATOM     15  C   UNL     1      34.881 -24.381 -13.325  0.00  0.00    +0.251 C 
ATOM     16  C   UNL     1      39.163 -26.100 -13.112  0.00  0.00    +0.004 C 
ATOM     17  C   UNL     1      40.105 -25.276 -15.668  0.00  0.00    +0.037 C 
ATOM     18  C   UNL     1      40.466 -26.397 -13.535  0.00  0.00    +0.000 C 
ATOM     19  C   UNL     1      40.926 -25.991 -14.791  0.00  0.00    +0.003 C 
ENDROOT
BRANCH   3  21
ATOM     20  S   UNL     1      33.075 -20.629 -20.796  0.00  0.00    -0.019 S 
ATOM     21  C   UNL     1      34.623 -21.051 -20.320  0.00  0.00    +0.135 C 
BRANCH  21  22
ATOM     22  N   UNL     1      35.710 -20.769 -21.109  0.00  0.00    -0.312 N 
ATOM     23  H   UNL     1      36.160 -21.532 -21.539  0.00  0.00    +0.149 HD
BRANCH  22  24
ATOM     24  C   UNL     1      36.256 -19.452 -21.370  0.00  0.00    +0.116 C 
BRANCH  24  27
ATOM     25  O   UNL     1      35.085 -15.667 -24.316  0.00  0.00    -0.435 OA
ATOM     26  O   UNL     1      34.260 -17.122 -26.051  0.00  0.00    -0.435 OA
ATOM     27  C   UNL     1      35.714 -18.860 -22.638  0.00  0.00    +0.001 C 
ATOM     28  C   UNL     1      35.695 -17.478 -22.796  0.00  0.00    +0.038 C 
ATOM     29  C   UNL     1      35.235 -19.713 -23.643  0.00  0.00    +0.001 C 
ATOM     30  C   UNL     1      35.188 -16.981 -23.979  0.00  0.00    +0.176 C 
ATOM     31  C   UNL     1      34.717 -17.812 -24.970  0.00  0.00    +0.176 C 
ATOM     32  C   UNL     1      34.727 -19.185 -24.831  0.00  0.00    +0.040 C 
ATOM     33  C   UNL     1      34.498 -15.763 -25.630  0.00  0.00    +0.429 C 
ENDBRANCH  24  27
ENDBRANCH  22  24
ENDBRANCH  21  22
ENDBRANCH   3  21
TORSDOF 4
ENDMDL
MODEL 9
REMARK VINA RESULT:     -10.2      5.911     12.562
REMARK  Name = 11282283
REMARK  4 active torsions:
REMARK  status: ('A' for Active; 'I' for Inactive)
REMARK    1  A    between atoms: N_3  and  C_21
REMARK    2  A    between atoms: C_21  and  N_22
REMARK    3  A    between atoms: N_22  and  C_24
REMARK    4  A    between atoms: C_24  and  C_27
REMARK                            x       y       z     vdW  Elec       q    Type
REMARK                         _______ _______ _______ _____ _____    ______ ____
ROOT
ATOM      1  O   UNL     1      37.194 -23.843 -16.156  0.00  0.00    -0.466 OA
ATOM      2  N   UNL     1      35.198 -22.398 -17.763  0.00  0.00    -0.290 N 
ATOM      3  N   UNL     1      35.844 -20.850 -20.102  0.00  0.00    -0.288 N 
ATOM      4  N   UNL     1      33.608 -23.248 -16.194  0.00  0.00    -0.230 NA
ATOM      5  N   UNL     1      34.276 -24.671 -14.326  0.00  0.00    -0.245 NA
ATOM      6  C   UNL     1      34.231 -22.251 -18.856  0.00  0.00    +0.113 C 
ATOM      7  C   UNL     1      36.502 -21.738 -17.889  0.00  0.00    +0.113 C 
ATOM      8  C   UNL     1      34.948 -21.994 -20.180  0.00  0.00    +0.114 C 
ATOM      9  C   UNL     1      36.403 -20.516 -18.801  0.00  0.00    +0.114 C 
ATOM     10  C   UNL     1      34.883 -23.144 -16.629  0.00  0.00    +0.152 C 
ATOM     11  C   UNL     1      35.859 -23.805 -15.912  0.00  0.00    +0.258 C 
ATOM     12  C   UNL     1      35.546 -24.550 -14.783  0.00  0.00    +0.106 C 
ATOM     13  C   UNL     1      36.770 -25.082 -14.303  0.00  0.00    +0.051 C 
ATOM     14  C   UNL     1      37.750 -24.619 -15.180  0.00  0.00    +0.141 C 
ATOM     15  C   UNL     1      33.386 -23.994 -15.085  0.00  0.00    +0.251 C 
ATOM     16  C   UNL     1      37.162 -25.900 -13.229  0.00  0.00    +0.004 C 
ATOM     17  C   UNL     1      39.107 -24.919 -15.060  0.00  0.00    +0.037 C 
ATOM     18  C   UNL     1      38.520 -26.217 -13.084  0.00  0.00    +0.000 C 
ATOM     19  C   UNL     1      39.472 -25.734 -13.985  0.00  0.00    +0.003 C 
ENDROOT
BRANCH   3  21
ATOM     20  S   UNL     1      37.647 -19.401 -21.382  0.00  0.00    -0.019 S 
ATOM     21  C   UNL     1      36.147 -20.120 -21.205  0.00  0.00    +0.135 C 
BRANCH  21  22
ATOM     22  N   UNL     1      35.181 -19.994 -22.172  0.00  0.00    -0.312 N 
ATOM     23  H   UNL     1      34.245 -20.083 -21.882  0.00  0.00    +0.149 HD
BRANCH  22  24
ATOM     24  C   UNL     1      35.412 -19.742 -23.580  0.00  0.00    +0.116 C 
BRANCH  24  27
ATOM     25  O   UNL     1      33.717 -16.259 -26.642  0.00  0.00    -0.435 OA
ATOM     26  O   UNL     1      34.222 -14.486 -25.092  0.00  0.00    -0.435 OA
ATOM     27  C   UNL     1      35.106 -18.320 -23.954  0.00  0.00    +0.001 C 
ATOM     28  C   UNL     1      34.533 -18.045 -25.192  0.00  0.00    +0.038 C 
ATOM     29  C   UNL     1      35.403 -17.294 -23.046  0.00  0.00    +0.001 C 
ATOM     30  C   UNL     1      34.269 -16.724 -25.489  0.00  0.00    +0.176 C 
ATOM     31  C   UNL     1      34.558 -15.711 -24.603  0.00  0.00    +0.176 C 
ATOM     32  C   UNL     1      35.126 -15.964 -23.371  0.00  0.00    +0.040 C 
ATOM     33  C   UNL     1      33.689 -14.841 -26.383  0.00  0.00    +0.429 C 
ENDBRANCH  24  27
ENDBRANCH  22  24
ENDBRANCH  21  22
ENDBRANCH   3  21
TORSDOF 4
ENDMDL
