MODEL 1
REMARK VINA RESULT:     -11.5      0.000      0.000
REMARK  Name = 24958200
REMARK  3 active torsions:
REMARK  status: ('A' for Active; 'I' for Inactive)
REMARK    1  A    between atoms: N_1  and  C_13
REMARK    2  A    between atoms: C_6  and  C_26
REMARK    3  A    between atoms: C_10  and  C_17
REMARK                            x       y       z     vdW  Elec       q    Type
REMARK                         _______ _______ _______ _____ _____    ______ ____
ROOT
ATOM      1  N   UNL     1      32.735 -22.901 -17.508  0.00  0.00    -0.189 N 
ATOM      2  N   UNL     1      31.390 -22.954 -17.554  0.00  0.00    -0.174 NA
ATOM      3  C   UNL     1      32.228 -23.990 -15.714  0.00  0.00    +0.036 C 
ATOM      4  C   UNL     1      33.294 -23.509 -16.422  0.00  0.00    +0.091 C 
ATOM      5  C   UNL     1      31.037 -23.629 -16.445  0.00  0.00    +0.105 C 
ATOM      6  C   UNL     1      29.765 -23.990 -15.963  0.00  0.00    +0.072 C 
ATOM      7  C   UNL     1      32.300 -24.691 -14.518  0.00  0.00    +0.003 C 
ATOM      8  C   UNL     1      29.805 -24.706 -14.746  0.00  0.00    +0.006 C 
ATOM      9  C   UNL     1      31.015 -25.039 -14.059  0.00  0.00    +0.000 C 
ENDROOT
BRANCH   1  13
ATOM     10  C   UNL     1      34.856 -20.984 -20.546  0.00  0.00    -0.024 C 
ATOM     11  C   UNL     1      33.474 -20.822 -20.451  0.00  0.00    -0.003 C 
ATOM     12  C   UNL     1      35.530 -21.786 -19.624  0.00  0.00    -0.003 C 
ATOM     13  C   UNL     1      33.438 -22.266 -18.515  0.00  0.00    +0.074 C 
ATOM     14  C   UNL     1      32.765 -21.463 -19.436  0.00  0.00    +0.016 C 
ATOM     15  C   UNL     1      34.821 -22.427 -18.609  0.00  0.00    +0.016 C 
BRANCH  10  17
ATOM     16  N   UNL     1      35.457 -18.904 -23.705  0.00  0.00    +0.384 N 
ATOM     17  C   UNL     1      35.628 -20.288 -21.652  0.00  0.00    +0.001 C 
ATOM     18  C   UNL     1      36.696 -19.334 -21.091  0.00  0.00    +0.000 C 
ATOM     19  C   UNL     1      34.697 -19.545 -22.629  0.00  0.00    -0.077 C 
ATOM     20  C   UNL     1      37.417 -18.615 -22.228  0.00  0.00    -0.023 C 
ATOM     21  C   UNL     1      36.427 -17.945 -23.178  0.00  0.00    -0.082 C 
ATOM     22  H   UNL     1      34.809 -18.415 -24.323  0.00  0.00    -0.085 HD
ATOM     23  H   UNL     1      35.966 -19.628 -24.213  0.00  0.00    -0.085 HD
ENDBRANCH  10  17
ENDBRANCH   1  13
BRANCH   6  26
ATOM     24  O   UNL     1      28.127 -24.319 -17.623  0.00  0.00    -0.270 OA
ATOM     25  N   UNL     1      27.783 -22.587 -16.160  0.00  0.00    -0.325 N 
ATOM     26  C   UNL     1      28.531 -23.661 -16.643  0.00  0.00    +0.244 C 
ATOM     27  H   UNL     1      26.938 -22.338 -16.600  0.00  0.00    +0.145 HD
ATOM     28  H   UNL     1      28.099 -22.079 -15.378  0.00  0.00    +0.145 HD
ENDBRANCH   6  26
TORSDOF 3
ENDMDL
MODEL 2
REMARK VINA RESULT:     -10.9      2.180      3.228
REMARK  Name = 24958200
REMARK  3 active torsions:
REMARK  status: ('A' for Active; 'I' for Inactive)
REMARK    1  A    between atoms: N_1  and  C_13
REMARK    2  A    between atoms: C_6  and  C_26
REMARK    3  A    between atoms: C_10  and  C_17
REMARK                            x       y       z     vdW  Elec       q    Type
REMARK                         _______ _______ _______ _____ _____    ______ ____
ROOT
ATOM      1  N   UNL     1      33.135 -22.951 -17.302  0.00  0.00    -0.189 N 
ATOM      2  N   UNL     1      33.849 -23.336 -16.227  0.00  0.00    -0.174 NA
ATOM      3  C   UNL     1      31.650 -23.869 -16.033  0.00  0.00    +0.036 C 
ATOM      4  C   UNL     1      31.804 -23.247 -17.239  0.00  0.00    +0.091 C 
ATOM      5  C   UNL     1      32.951 -23.916 -15.410  0.00  0.00    +0.105 C 
ATOM      6  C   UNL     1      33.117 -24.504 -14.143  0.00  0.00    +0.072 C 
ATOM      7  C   UNL     1      30.455 -24.359 -15.522  0.00  0.00    +0.003 C 
ATOM      8  C   UNL     1      31.919 -25.012 -13.595  0.00  0.00    +0.006 C 
ATOM      9  C   UNL     1      30.651 -24.942 -14.254  0.00  0.00    +0.000 C 
ENDROOT
BRANCH   1  13
ATOM     10  C   UNL     1      35.020 -21.013 -20.480  0.00  0.00    -0.024 C 
ATOM     11  C   UNL     1      35.778 -21.715 -19.542  0.00  0.00    -0.003 C 
ATOM     12  C   UNL     1      33.631 -20.960 -20.355  0.00  0.00    -0.003 C 
ATOM     13  C   UNL     1      33.760 -22.309 -18.354  0.00  0.00    +0.074 C 
ATOM     14  C   UNL     1      35.148 -22.363 -18.480  0.00  0.00    +0.016 C 
ATOM     15  C   UNL     1      33.001 -21.607 -19.293  0.00  0.00    +0.016 C 
BRANCH  10  17
ATOM     16  N   UNL     1      35.376 -18.931 -23.674  0.00  0.00    +0.384 N 
ATOM     17  C   UNL     1      35.706 -20.307 -21.635  0.00  0.00    +0.001 C 
ATOM     18  C   UNL     1      36.792 -19.335 -21.147  0.00  0.00    +0.000 C 
ATOM     19  C   UNL     1      34.699 -19.582 -22.549  0.00  0.00    -0.077 C 
ATOM     20  C   UNL     1      37.424 -18.607 -22.330  0.00  0.00    -0.023 C 
ATOM     21  C   UNL     1      36.363 -17.955 -23.213  0.00  0.00    -0.082 C 
ATOM     22  H   UNL     1      34.680 -18.454 -24.247  0.00  0.00    -0.085 HD
ATOM     23  H   UNL     1      35.862 -19.648 -24.214  0.00  0.00    -0.085 HD
ENDBRANCH  10  17
ENDBRANCH   1  13
BRANCH   6  26
ATOM     24  O   UNL     1      34.535 -24.179 -12.292  0.00  0.00    -0.270 OA
ATOM     25  N   UNL     1      35.465 -25.155 -14.146  0.00  0.00    -0.325 N 
ATOM     26  C   UNL     1      34.391 -24.586 -13.462  0.00  0.00    +0.244 C 
ATOM     27  H   UNL     1      36.346 -25.225 -13.711  0.00  0.00    +0.145 HD
ATOM     28  H   UNL     1      35.343 -25.486 -15.065  0.00  0.00    +0.145 HD
ENDBRANCH   6  26
TORSDOF 3
ENDMDL
MODEL 3
REMARK VINA RESULT:     -10.9      3.361      4.572
REMARK  Name = 24958200
REMARK  3 active torsions:
REMARK  status: ('A' for Active; 'I' for Inactive)
REMARK    1  A    between atoms: N_1  and  C_13
REMARK    2  A    between atoms: C_6  and  C_26
REMARK    3  A    between atoms: C_10  and  C_17
REMARK                            x       y       z     vdW  Elec       q    Type
REMARK                         _______ _______ _______ _____ _____    ______ ____
ROOT
ATOM      1  N   UNL     1      34.951 -22.223 -18.253  0.00  0.00    -0.189 N 
ATOM      2  N   UNL     1      36.008 -22.466 -17.454  0.00  0.00    -0.174 NA
ATOM      3  C   UNL     1      34.108 -23.450 -16.690  0.00  0.00    +0.036 C 
ATOM      4  C   UNL     1      33.781 -22.791 -17.841  0.00  0.00    +0.091 C 
ATOM      5  C   UNL     1      35.517 -23.233 -16.463  0.00  0.00    +0.105 C 
ATOM      6  C   UNL     1      36.156 -23.791 -15.341  0.00  0.00    +0.072 C 
ATOM      7  C   UNL     1      33.234 -24.186 -15.901  0.00  0.00    +0.003 C 
ATOM      8  C   UNL     1      35.292 -24.546 -14.518  0.00  0.00    +0.006 C 
ATOM      9  C   UNL     1      33.899 -24.733 -14.787  0.00  0.00    +0.000 C 
ENDROOT
BRANCH   1  13
ATOM     10  C   UNL     1      35.416 -19.885 -21.678  0.00  0.00    -0.024 C 
ATOM     11  C   UNL     1      34.143 -20.295 -21.280  0.00  0.00    -0.003 C 
ATOM     12  C   UNL     1      36.534 -20.257 -20.930  0.00  0.00    -0.003 C 
ATOM     13  C   UNL     1      35.105 -21.449 -19.388  0.00  0.00    +0.074 C 
ATOM     14  C   UNL     1      33.988 -21.076 -20.136  0.00  0.00    +0.016 C 
ATOM     15  C   UNL     1      36.378 -21.038 -19.785  0.00  0.00    +0.016 C 
BRANCH  10  17
ATOM     16  N   UNL     1      34.710 -18.536 -25.191  0.00  0.00    +0.384 N 
ATOM     17  C   UNL     1      35.586 -19.035 -22.924  0.00  0.00    +0.001 C 
ATOM     18  C   UNL     1      35.605 -17.534 -22.593  0.00  0.00    +0.000 C 
ATOM     19  C   UNL     1      34.513 -19.344 -23.985  0.00  0.00    -0.077 C 
ATOM     20  C   UNL     1      35.726 -16.710 -23.873  0.00  0.00    -0.023 C 
ATOM     21  C   UNL     1      34.660 -17.105 -24.891  0.00  0.00    -0.082 C 
ATOM     22  H   UNL     1      33.976 -18.760 -25.863  0.00  0.00    -0.085 HD
ATOM     23  H   UNL     1      35.631 -18.752 -25.574  0.00  0.00    -0.085 HD
ENDBRANCH  10  17
ENDBRANCH   1  13
BRANCH   6  26
ATOM     24  O   UNL     1      37.974 -23.419 -13.892  0.00  0.00    -0.270 OA
ATOM     25  N   UNL     1      38.463 -23.687 -16.116  0.00  0.00    -0.325 N 
ATOM     26  C   UNL     1      37.563 -23.615 -15.053  0.00  0.00    +0.244 C 
ATOM     27  H   UNL     1      39.428 -23.572 -15.954  0.00  0.00    +0.145 HD
ATOM     28  H   UNL     1      38.135 -23.855 -17.029  0.00  0.00    +0.145 HD
ENDBRANCH   6  26
TORSDOF 3
ENDMDL
MODEL 4
REMARK VINA RESULT:     -10.8      4.219      5.502
REMARK  Name = 24958200
REMARK  3 active torsions:
REMARK  status: ('A' for Active; 'I' for Inactive)
REMARK    1  A    between atoms: N_1  and  C_13
REMARK    2  A    between atoms: C_6  and  C_26
REMARK    3  A    between atoms: C_10  and  C_17
REMARK                            x       y       z     vdW  Elec       q    Type
REMARK                         _______ _______ _______ _____ _____    ______ ____
ROOT
ATOM      1  N   UNL     1      36.134 -23.221 -16.032  0.00  0.00    -0.189 N 
ATOM      2  N   UNL     1      37.056 -24.176 -15.804  0.00  0.00    -0.174 NA
ATOM      3  C   UNL     1      35.697 -23.850 -14.014  0.00  0.00    +0.036 C 
ATOM      4  C   UNL     1      35.288 -22.982 -14.988  0.00  0.00    +0.091 C 
ATOM      5  C   UNL     1      36.812 -24.593 -14.549  0.00  0.00    +0.105 C 
ATOM      6  C   UNL     1      37.456 -25.575 -13.773  0.00  0.00    +0.072 C 
ATOM      7  C   UNL     1      35.129 -23.977 -12.753  0.00  0.00    +0.003 C 
ATOM      8  C   UNL     1      36.902 -25.727 -12.483  0.00  0.00    +0.006 C 
ATOM      9  C   UNL     1      35.793 -24.964 -11.999  0.00  0.00    +0.000 C 
ENDROOT
BRANCH   1  13
ATOM     10  C   UNL     1      36.032 -21.251 -19.709  0.00  0.00    -0.024 C 
ATOM     11  C   UNL     1      37.150 -21.132 -18.884  0.00  0.00    -0.003 C 
ATOM     12  C   UNL     1      34.946 -22.029 -19.304  0.00  0.00    -0.003 C 
ATOM     13  C   UNL     1      36.100 -22.567 -17.250  0.00  0.00    +0.074 C 
ATOM     14  C   UNL     1      37.184 -21.790 -17.655  0.00  0.00    +0.016 C 
ATOM     15  C   UNL     1      34.981 -22.688 -18.075  0.00  0.00    +0.016 C 
BRANCH  10  17
ATOM     16  N   UNL     1      34.559 -19.352 -22.690  0.00  0.00    +0.384 N 
ATOM     17  C   UNL     1      35.993 -20.533 -21.046  0.00  0.00    +0.001 C 
ATOM     18  C   UNL     1      37.019 -19.390 -21.109  0.00  0.00    +0.000 C 
ATOM     19  C   UNL     1      34.582 -20.016 -21.384  0.00  0.00    -0.077 C 
ATOM     20  C   UNL     1      36.918 -18.660 -22.446  0.00  0.00    -0.023 C 
ATOM     21  C   UNL     1      35.485 -18.221 -22.733  0.00  0.00    -0.082 C 
ATOM     22  H   UNL     1      33.614 -19.015 -22.873  0.00  0.00    -0.085 HD
ATOM     23  H   UNL     1      34.846 -20.028 -23.398  0.00  0.00    -0.085 HD
ENDBRANCH  10  17
ENDBRANCH   1  13
BRANCH   6  26
ATOM     24  O   UNL     1      38.430 -27.289 -15.060  0.00  0.00    -0.270 OA
ATOM     25  N   UNL     1      39.849 -26.028 -13.776  0.00  0.00    -0.325 N 
ATOM     26  C   UNL     1      38.578 -26.357 -14.246  0.00  0.00    +0.244 C 
ATOM     27  H   UNL     1      40.635 -26.540 -14.078  0.00  0.00    +0.145 HD
ATOM     28  H   UNL     1      39.963 -25.282 -13.143  0.00  0.00    +0.145 HD
ENDBRANCH   6  26
TORSDOF 3
ENDMDL
MODEL 5
REMARK VINA RESULT:     -10.5      8.204     12.390
REMARK  Name = 24958200
REMARK  3 active torsions:
REMARK  status: ('A' for Active; 'I' for Inactive)
REMARK    1  A    between atoms: N_1  and  C_13
REMARK    2  A    between atoms: C_6  and  C_26
REMARK    3  A    between atoms: C_10  and  C_17
REMARK                            x       y       z     vdW  Elec       q    Type
REMARK                         _______ _______ _______ _____ _____    ______ ____
ROOT
ATOM      1  N   UNL     1      33.752 -13.273 -23.771  0.00  0.00    -0.189 N 
ATOM      2  N   UNL     1      34.221 -14.106 -22.821  0.00  0.00    -0.174 NA
ATOM      3  C   UNL     1      34.226 -15.062 -24.882  0.00  0.00    +0.036 C 
ATOM      4  C   UNL     1      33.732 -13.797 -25.031  0.00  0.00    +0.091 C 
ATOM      5  C   UNL     1      34.528 -15.237 -23.481  0.00  0.00    +0.105 C 
ATOM      6  C   UNL     1      35.057 -16.452 -23.010  0.00  0.00    +0.072 C 
ATOM      7  C   UNL     1      34.397 -15.990 -25.901  0.00  0.00    +0.003 C 
ATOM      8  C   UNL     1      35.243 -17.418 -24.023  0.00  0.00    +0.006 C 
ATOM      9  C   UNL     1      34.928 -17.195 -25.401  0.00  0.00    +0.000 C 
ENDROOT
BRANCH   1  13
ATOM     10  C   UNL     1      32.497  -9.428 -22.746  0.00  0.00    -0.024 C 
ATOM     11  C   UNL     1      33.437  -9.608 -23.760  0.00  0.00    -0.003 C 
ATOM     12  C   UNL     1      31.975 -10.535 -22.074  0.00  0.00    -0.003 C 
ATOM     13  C   UNL     1      33.337 -11.999 -23.431  0.00  0.00    +0.074 C 
ATOM     14  C   UNL     1      33.857 -10.893 -24.102  0.00  0.00    +0.016 C 
ATOM     15  C   UNL     1      32.395 -11.820 -22.417  0.00  0.00    +0.016 C 
BRANCH  10  17
ATOM     16  N   UNL     1      32.733  -5.834 -21.445  0.00  0.00    +0.384 N 
ATOM     17  C   UNL     1      32.040  -8.030 -22.371  0.00  0.00    +0.001 C 
ATOM     18  C   UNL     1      31.345  -7.323 -23.546  0.00  0.00    +0.000 C 
ATOM     19  C   UNL     1      33.197  -7.170 -21.828  0.00  0.00    -0.077 C 
ATOM     20  C   UNL     1      30.946  -5.904 -23.150  0.00  0.00    -0.023 C 
ATOM     21  C   UNL     1      32.132  -5.131 -22.578  0.00  0.00    -0.082 C 
ATOM     22  H   UNL     1      33.527  -5.294 -21.102  0.00  0.00    -0.085 HD
ATOM     23  H   UNL     1      32.023  -5.938 -20.719  0.00  0.00    -0.085 HD
ENDBRANCH  10  17
ENDBRANCH   1  13
BRANCH   6  26
ATOM     24  O   UNL     1      36.058 -17.685 -21.270  0.00  0.00    -0.270 OA
ATOM     25  N   UNL     1      34.936 -15.777 -20.672  0.00  0.00    -0.325 N 
ATOM     26  C   UNL     1      35.383 -16.696 -21.621  0.00  0.00    +0.244 C 
ATOM     27  H   UNL     1      35.141 -15.913 -19.718  0.00  0.00    +0.145 HD
ATOM     28  H   UNL     1      34.415 -14.991 -20.955  0.00  0.00    +0.145 HD
ENDBRANCH   6  26
TORSDOF 3
ENDMDL
MODEL 6
REMARK VINA RESULT:     -10.4      4.315      9.125
REMARK  Name = 24958200
REMARK  3 active torsions:
REMARK  status: ('A' for Active; 'I' for Inactive)
REMARK    1  A    between atoms: N_1  and  C_13
REMARK    2  A    between atoms: C_6  and  C_26
REMARK    3  A    between atoms: C_10  and  C_17
REMARK                            x       y       z     vdW  Elec       q    Type
REMARK                         _______ _______ _______ _____ _____    ______ ____
ROOT
ATOM      1  N   UNL     1      35.122 -19.121 -22.067  0.00  0.00    -0.189 N 
ATOM      2  N   UNL     1      35.067 -17.802 -21.797  0.00  0.00    -0.174 NA
ATOM      3  C   UNL     1      35.018 -18.225 -24.028  0.00  0.00    +0.036 C 
ATOM      4  C   UNL     1      35.096 -19.434 -23.395  0.00  0.00    +0.091 C 
ATOM      5  C   UNL     1      35.001 -17.210 -23.003  0.00  0.00    +0.105 C 
ATOM      6  C   UNL     1      34.925 -15.847 -23.346  0.00  0.00    +0.072 C 
ATOM      7  C   UNL     1      34.964 -18.034 -25.402  0.00  0.00    +0.003 C 
ATOM      8  C   UNL     1      34.870 -15.619 -24.739  0.00  0.00    +0.006 C 
ATOM      9  C   UNL     1      34.889 -16.663 -25.717  0.00  0.00    +0.000 C 
ENDROOT
BRANCH   1  13
ATOM     10  C   UNL     1      35.358 -21.885 -18.950  0.00  0.00    -0.024 C 
ATOM     11  C   UNL     1      34.122 -21.578 -19.519  0.00  0.00    -0.003 C 
ATOM     12  C   UNL     1      36.516 -21.268 -19.424  0.00  0.00    -0.003 C 
ATOM     13  C   UNL     1      35.200 -20.036 -21.034  0.00  0.00    +0.074 C 
ATOM     14  C   UNL     1      34.043 -20.654 -20.560  0.00  0.00    +0.016 C 
ATOM     15  C   UNL     1      36.437 -20.344 -20.466  0.00  0.00    +0.016 C 
BRANCH  10  17
ATOM     16  N   UNL     1      36.619 -23.509 -15.720  0.00  0.00    +0.384 N 
ATOM     17  C   UNL     1      35.444 -22.890 -17.815  0.00  0.00    +0.001 C 
ATOM     18  C   UNL     1      34.087 -23.082 -17.119  0.00  0.00    +0.000 C 
ATOM     19  C   UNL     1      36.531 -22.514 -16.791  0.00  0.00    -0.077 C 
ATOM     20  C   UNL     1      34.222 -24.059 -15.954  0.00  0.00    -0.023 C 
ATOM     21  C   UNL     1      35.348 -23.645 -15.010  0.00  0.00    -0.082 C 
ATOM     22  H   UNL     1      37.340 -23.220 -15.058  0.00  0.00    -0.085 HD
ATOM     23  H   UNL     1      36.851 -24.410 -16.138  0.00  0.00    -0.085 HD
ENDBRANCH  10  17
ENDBRANCH   1  13
BRANCH   6  26
ATOM     24  O   UNL     1      34.932 -13.579 -22.714  0.00  0.00    -0.270 OA
ATOM     25  N   UNL     1      34.832 -15.123 -21.022  0.00  0.00    -0.325 N 
ATOM     26  C   UNL     1      34.904 -14.778 -22.372  0.00  0.00    +0.244 C 
ATOM     27  H   UNL     1      34.816 -14.420 -20.333  0.00  0.00    +0.145 HD
ATOM     28  H   UNL     1      34.798 -16.071 -20.757  0.00  0.00    +0.145 HD
ENDBRANCH   6  26
TORSDOF 3
ENDMDL
MODEL 7
REMARK VINA RESULT:     -10.2      8.032     12.275
REMARK  Name = 24958200
REMARK  3 active torsions:
REMARK  status: ('A' for Active; 'I' for Inactive)
REMARK    1  A    between atoms: N_1  and  C_13
REMARK    2  A    between atoms: C_6  and  C_26
REMARK    3  A    between atoms: C_10  and  C_17
REMARK                            x       y       z     vdW  Elec       q    Type
REMARK                         _______ _______ _______ _____ _____    ______ ____
ROOT
ATOM      1  N   UNL     1      34.008 -13.392 -24.014  0.00  0.00    -0.189 N 
ATOM      2  N   UNL     1      34.444 -14.184 -23.015  0.00  0.00    -0.174 NA
ATOM      3  C   UNL     1      34.280 -15.299 -24.988  0.00  0.00    +0.036 C 
ATOM      4  C   UNL     1      33.890 -14.011 -25.225  0.00  0.00    +0.091 C 
ATOM      5  C   UNL     1      34.625 -15.387 -23.589  0.00  0.00    +0.105 C 
ATOM      6  C   UNL     1      35.069 -16.603 -23.037  0.00  0.00    +0.072 C 
ATOM      7  C   UNL     1      34.329 -16.317 -25.932  0.00  0.00    +0.003 C 
ATOM      8  C   UNL     1      35.128 -17.659 -23.973  0.00  0.00    +0.006 C 
ATOM      9  C   UNL     1      34.775 -17.521 -25.352  0.00  0.00    +0.000 C 
ENDROOT
BRANCH   1  13
ATOM     10  C   UNL     1      33.132  -9.381 -23.267  0.00  0.00    -0.024 C 
ATOM     11  C   UNL     1      32.407 -10.385 -22.625  0.00  0.00    -0.003 C 
ATOM     12  C   UNL     1      34.151  -9.719 -24.159  0.00  0.00    -0.003 C 
ATOM     13  C   UNL     1      33.717 -12.063 -23.767  0.00  0.00    +0.074 C 
ATOM     14  C   UNL     1      32.699 -11.726 -22.875  0.00  0.00    +0.016 C 
ATOM     15  C   UNL     1      34.444 -11.059 -24.409  0.00  0.00    +0.016 C 
BRANCH  10  17
ATOM     16  N   UNL     1      31.175  -6.091 -23.344  0.00  0.00    +0.384 N 
ATOM     17  C   UNL     1      32.813  -7.922 -22.997  0.00  0.00    +0.001 C 
ATOM     18  C   UNL     1      32.873  -7.594 -21.496  0.00  0.00    +0.000 C 
ATOM     19  C   UNL     1      31.453  -7.508 -23.589  0.00  0.00    -0.077 C 
ATOM     20  C   UNL     1      32.498  -6.133 -21.257  0.00  0.00    -0.023 C 
ATOM     21  C   UNL     1      31.164  -5.787 -21.913  0.00  0.00    -0.082 C 
ATOM     22  H   UNL     1      30.264  -5.858 -23.740  0.00  0.00    -0.085 HD
ATOM     23  H   UNL     1      31.913  -5.539 -23.783  0.00  0.00    -0.085 HD
ENDBRANCH  10  17
ENDBRANCH   1  13
BRANCH   6  26
ATOM     24  O   UNL     1      36.148 -17.707 -21.259  0.00  0.00    -0.270 OA
ATOM     25  N   UNL     1      34.969 -15.813 -20.735  0.00  0.00    -0.325 N 
ATOM     26  C   UNL     1      35.431 -16.763 -21.646  0.00  0.00    +0.244 C 
ATOM     27  H   UNL     1      35.198 -15.892 -19.780  0.00  0.00    +0.145 HD
ATOM     28  H   UNL     1      34.414 -15.061 -21.046  0.00  0.00    +0.145 HD
ENDBRANCH   6  26
TORSDOF 3
ENDMDL
MODEL 8
REMARK VINA RESULT:     -10.1     11.283     14.635
REMARK  Name = 24958200
REMARK  3 active torsions:
REMARK  status: ('A' for Active; 'I' for Inactive)
REMARK    1  A    between atoms: N_1  and  C_13
REMARK    2  A    between atoms: C_6  and  C_26
REMARK    3  A    between atoms: C_10  and  C_17
REMARK                            x       y       z     vdW  Elec       q    Type
REMARK                         _______ _______ _______ _____ _____    ______ ____
ROOT
ATOM      1  N   UNL     1      32.090 -10.027 -22.025  0.00  0.00    -0.189 N 
ATOM      2  N   UNL     1      32.686 -10.889 -22.871  0.00  0.00    -0.174 NA
ATOM      3  C   UNL     1      32.160 -11.858 -20.885  0.00  0.00    +0.036 C 
ATOM      4  C   UNL     1      31.752 -10.556 -20.813  0.00  0.00    +0.091 C 
ATOM      5  C   UNL     1      32.746 -12.048 -22.190  0.00  0.00    +0.105 C 
ATOM      6  C   UNL     1      33.265 -13.300 -22.567  0.00  0.00    +0.072 C 
ATOM      7  C   UNL     1      32.026 -12.805 -19.878  0.00  0.00    +0.003 C 
ATOM      8  C   UNL     1      33.144 -14.286 -21.563  0.00  0.00    +0.006 C 
ATOM      9  C   UNL     1      32.553 -14.048 -20.282  0.00  0.00    +0.000 C 
ENDROOT
BRANCH   1  13
ATOM     10  C   UNL     1      31.422  -6.078 -23.196  0.00  0.00    -0.024 C 
ATOM     11  C   UNL     1      31.874  -6.356 -21.906  0.00  0.00    -0.003 C 
ATOM     12  C   UNL     1      31.194  -7.120 -24.095  0.00  0.00    -0.003 C 
ATOM     13  C   UNL     1      31.868  -8.718 -22.413  0.00  0.00    +0.074 C 
ATOM     14  C   UNL     1      32.097  -7.676 -21.515  0.00  0.00    +0.016 C 
ATOM     15  C   UNL     1      31.417  -8.440 -23.704  0.00  0.00    +0.016 C 
BRANCH  10  17
ATOM     16  N   UNL     1      30.555  -2.363 -22.863  0.00  0.00    +0.384 N 
ATOM     17  C   UNL     1      31.177  -4.642 -23.622  0.00  0.00    +0.001 C 
ATOM     18  C   UNL     1      32.373  -4.065 -24.397  0.00  0.00    +0.000 C 
ATOM     19  C   UNL     1      30.816  -3.738 -22.429  0.00  0.00    -0.077 C 
ATOM     20  C   UNL     1      32.113  -2.606 -24.765  0.00  0.00    -0.023 C 
ATOM     21  C   UNL     1      31.716  -1.786 -23.540  0.00  0.00    -0.082 C 
ATOM     22  H   UNL     1      30.331  -1.795 -22.046  0.00  0.00    -0.085 HD
ATOM     23  H   UNL     1      29.775  -2.377 -23.520  0.00  0.00    -0.085 HD
ENDBRANCH  10  17
ENDBRANCH   1  13
BRANCH   6  26
ATOM     24  O   UNL     1      33.780 -14.677 -24.406  0.00  0.00    -0.270 OA
ATOM     25  N   UNL     1      34.537 -12.515 -24.490  0.00  0.00    -0.325 N 
ATOM     26  C   UNL     1      33.865 -13.561 -23.857  0.00  0.00    +0.244 C 
ATOM     27  H   UNL     1      34.956 -12.659 -25.370  0.00  0.00    +0.145 HD
ATOM     28  H   UNL     1      34.591 -11.631 -24.059  0.00  0.00    +0.145 HD
ENDBRANCH   6  26
TORSDOF 3
ENDMDL
MODEL 9
REMARK VINA RESULT:      -9.9      8.703     12.597
REMARK  Name = 24958200
REMARK  3 active torsions:
REMARK  status: ('A' for Active; 'I' for Inactive)
REMARK    1  A    between atoms: N_1  and  C_13
REMARK    2  A    between atoms: C_6  and  C_26
REMARK    3  A    between atoms: C_10  and  C_17
REMARK                            x       y       z     vdW  Elec       q    Type
REMARK                         _______ _______ _______ _____ _____    ______ ____
ROOT
ATOM      1  N   UNL     1      33.629 -12.926 -22.759  0.00  0.00    -0.189 N 
ATOM      2  N   UNL     1      33.741 -13.643 -23.893  0.00  0.00    -0.174 NA
ATOM      3  C   UNL     1      34.487 -14.786 -22.077  0.00  0.00    +0.036 C 
ATOM      4  C   UNL     1      34.063 -13.565 -21.633  0.00  0.00    +0.091 C 
ATOM      5  C   UNL     1      34.275 -14.815 -23.504  0.00  0.00    +0.105 C 
ATOM      6  C   UNL     1      34.619 -15.954 -24.256  0.00  0.00    +0.072 C 
ATOM      7  C   UNL     1      35.018 -15.795 -21.285  0.00  0.00    +0.003 C 
ATOM      8  C   UNL     1      35.163 -17.000 -23.478  0.00  0.00    +0.006 C 
ATOM      9  C   UNL     1      35.353 -16.922 -22.062  0.00  0.00    +0.000 C 
ENDROOT
BRANCH   1  13
ATOM     10  C   UNL     1      32.056  -9.063 -22.874  0.00  0.00    -0.024 C 
ATOM     11  C   UNL     1      31.594  -9.977 -21.927  0.00  0.00    -0.003 C 
ATOM     12  C   UNL     1      33.046  -9.441 -23.783  0.00  0.00    -0.003 C 
ATOM     13  C   UNL     1      33.107 -11.647 -22.797  0.00  0.00    +0.074 C 
ATOM     14  C   UNL     1      32.119 -11.268 -21.888  0.00  0.00    +0.016 C 
ATOM     15  C   UNL     1      33.571 -10.732 -23.745  0.00  0.00    +0.016 C 
BRANCH  10  17
ATOM     16  N   UNL     1      31.273  -5.499 -21.712  0.00  0.00    +0.384 N 
ATOM     17  C   UNL     1      31.483  -7.658 -22.918  0.00  0.00    +0.001 C 
ATOM     18  C   UNL     1      31.899  -6.912 -24.196  0.00  0.00    +0.000 C 
ATOM     19  C   UNL     1      31.857  -6.842 -21.666  0.00  0.00    -0.077 C 
ATOM     20  C   UNL     1      31.348  -5.488 -24.182  0.00  0.00    -0.023 C 
ATOM     21  C   UNL     1      31.720  -4.760 -22.893  0.00  0.00    -0.082 C 
ATOM     22  H   UNL     1      31.551  -4.988 -20.875  0.00  0.00    -0.085 HD
ATOM     23  H   UNL     1      30.257  -5.594 -21.759  0.00  0.00    -0.085 HD
ENDBRANCH  10  17
ENDBRANCH   1  13
BRANCH   6  26
ATOM     24  O   UNL     1      35.125 -16.820 -26.386  0.00  0.00    -0.270 OA
ATOM     25  N   UNL     1      33.437 -15.272 -26.274  0.00  0.00    -0.325 N 
ATOM     26  C   UNL     1      34.433 -16.053 -25.687  0.00  0.00    +0.244 C 
ATOM     27  H   UNL     1      33.285 -15.316 -27.246  0.00  0.00    +0.145 HD
ATOM     28  H   UNL     1      32.885 -14.677 -25.716  0.00  0.00    +0.145 HD
ENDBRANCH   6  26
TORSDOF 3
ENDMDL
