MODEL 1
REMARK VINA RESULT:     -12.2      0.000      0.000
REMARK  Name = 25025505
REMARK  6 active torsions:
REMARK  status: ('A' for Active; 'I' for Inactive)
REMARK    1  A    between atoms: C_3  and  C_9
REMARK    2  A    between atoms: C_4  and  C_20
REMARK    3  A    between atoms: C_17  and  C_18
REMARK    4  A    between atoms: C_20  and  O_21
REMARK    5  A    between atoms: O_21  and  C_22
REMARK    6  A    between atoms: C_25  and  N_28
REMARK                            x       y       z     vdW  Elec       q    Type
REMARK                         _______ _______ _______ _____ _____    ______ ____
ROOT
ATOM      1  S   UNL     1      34.470 -16.038 -25.360  0.00  0.00    -0.079 S 
ATOM      2  N   UNL     1      34.807 -15.669 -22.824  0.00  0.00    -0.404 NA
ATOM      3  C   UNL     1      34.306 -15.131 -23.912  0.00  0.00    +0.134 C 
ATOM      4  C   UNL     1      35.365 -16.891 -23.146  0.00  0.00    +0.142 C 
ATOM      5  C   UNL     1      35.280 -17.261 -24.472  0.00  0.00    +0.122 C 
ENDROOT
BRANCH   3   9
ATOM      6  N   UNL     1      33.224 -10.995 -23.290  0.00  0.00    -0.253 N 
ATOM      7  N   UNL     1      33.819  -8.764 -23.641  0.00  0.00    -0.203 NA
ATOM      8  N   UNL     1      31.992  -9.348 -22.183  0.00  0.00    -0.181 NA
ATOM      9  C   UNL     1      33.607 -13.785 -23.961  0.00  0.00    +0.062 C 
ATOM     10  C   UNL     1      33.092 -13.351 -22.580  0.00  0.00    +0.030 C 
ATOM     11  C   UNL     1      34.509 -12.685 -24.541  0.00  0.00    +0.030 C 
ATOM     12  C   UNL     1      32.371 -12.004 -22.651  0.00  0.00    +0.102 C 
ATOM     13  C   UNL     1      33.777 -11.345 -24.606  0.00  0.00    +0.102 C 
ATOM     14  C   UNL     1      33.001  -9.639 -23.026  0.00  0.00    +0.090 C 
ATOM     15  C   UNL     1      33.577  -7.466 -23.363  0.00  0.00    +0.161 C 
ATOM     16  C   UNL     1      31.806  -8.032 -21.950  0.00  0.00    +0.104 C 
ATOM     17  C   UNL     1      32.575  -7.036 -22.517  0.00  0.00    +0.001 C 
BRANCH  17  18
ATOM     18  C   UNL     1      32.341  -5.600 -22.237  0.00  0.00    +0.026 C 
ATOM     19  C   UNL     1      30.855  -5.258 -22.116  0.00  0.00    +0.005 C 
ENDBRANCH  17  18
ENDBRANCH   3   9
BRANCH   4  20
ATOM     20  C   UNL     1      35.994 -17.681 -22.069  0.00  0.00    +0.260 C 
BRANCH  20  21
ATOM     21  O   UNL     1      35.955 -19.069 -22.397  0.00  0.00    -0.468 OA
BRANCH  21  22
ATOM     22  C   UNL     1      35.551 -19.922 -21.407  0.00  0.00    +0.139 C 
ATOM     23  C   UNL     1      36.497 -20.550 -20.597  0.00  0.00    +0.038 C 
ATOM     24  C   UNL     1      34.192 -20.163 -21.206  0.00  0.00    +0.038 C 
ATOM     25  C   UNL     1      34.726 -21.661 -19.388  0.00  0.00    +0.078 C 
ATOM     26  C   UNL     1      36.085 -21.420 -19.588  0.00  0.00    +0.020 C 
ATOM     27  C   UNL     1      33.779 -21.032 -20.197  0.00  0.00    +0.020 C 
BRANCH  25  28
ATOM     28  N   UNL     1      34.317 -22.523 -18.386  0.00  0.00    -0.149 N 
ATOM     29  N   UNL     1      35.186 -23.171 -17.598  0.00  0.00    -0.048 NA
ATOM     30  N   UNL     1      33.094 -23.701 -17.038  0.00  0.00    -0.107 NA
ATOM     31  N   UNL     1      34.432 -23.890 -16.775  0.00  0.00    -0.024 NA
ATOM     32  C   UNL     1      33.045 -22.852 -18.038  0.00  0.00    +0.215 C 
ENDBRANCH  25  28
ENDBRANCH  21  22
ENDBRANCH  20  21
ENDBRANCH   4  20
TORSDOF 6
ENDMDL
MODEL 2
REMARK VINA RESULT:     -11.9      0.961      1.651
REMARK  Name = 25025505
REMARK  6 active torsions:
REMARK  status: ('A' for Active; 'I' for Inactive)
REMARK    1  A    between atoms: C_3  and  C_9
REMARK    2  A    between atoms: C_4  and  C_20
REMARK    3  A    between atoms: C_17  and  C_18
REMARK    4  A    between atoms: C_20  and  O_21
REMARK    5  A    between atoms: O_21  and  C_22
REMARK    6  A    between atoms: C_25  and  N_28
REMARK                            x       y       z     vdW  Elec       q    Type
REMARK                         _______ _______ _______ _____ _____    ______ ____
ROOT
ATOM      1  S   UNL     1      33.752 -15.263 -25.795  0.00  0.00    -0.079 S 
ATOM      2  N   UNL     1      35.055 -15.830 -23.636  0.00  0.00    -0.404 NA
ATOM      3  C   UNL     1      34.459 -14.855 -24.285  0.00  0.00    +0.134 C 
ATOM      4  C   UNL     1      34.952 -16.990 -24.379  0.00  0.00    +0.142 C 
ATOM      5  C   UNL     1      34.279 -16.880 -25.578  0.00  0.00    +0.122 C 
ENDROOT
BRANCH   3   9
ATOM      6  N   UNL     1      33.273 -10.746 -23.681  0.00  0.00    -0.253 N 
ATOM      7  N   UNL     1      31.603  -9.305 -22.913  0.00  0.00    -0.203 NA
ATOM      8  N   UNL     1      33.514  -8.463 -24.115  0.00  0.00    -0.181 NA
ATOM      9  C   UNL     1      34.362 -13.425 -23.787  0.00  0.00    +0.062 C 
ATOM     10  C   UNL     1      34.623 -12.405 -24.905  0.00  0.00    +0.030 C 
ATOM     11  C   UNL     1      33.005 -13.132 -23.130  0.00  0.00    +0.030 C 
ATOM     12  C   UNL     1      34.544 -10.970 -24.381  0.00  0.00    +0.102 C 
ATOM     13  C   UNL     1      32.940 -11.696 -22.611  0.00  0.00    +0.102 C 
ATOM     14  C   UNL     1      32.774  -9.443 -23.564  0.00  0.00    +0.090 C 
ATOM     15  C   UNL     1      31.150  -8.037 -22.819  0.00  0.00    +0.161 C 
ATOM     16  C   UNL     1      33.002  -7.221 -23.985  0.00  0.00    +0.104 C 
ATOM     17  C   UNL     1      31.813  -6.946 -23.341  0.00  0.00    +0.001 C 
BRANCH  17  18
ATOM     18  C   UNL     1      31.282  -5.567 -23.218  0.00  0.00    +0.026 C 
ATOM     19  C   UNL     1      30.623  -5.309 -21.862  0.00  0.00    +0.005 C 
ENDBRANCH  17  18
ENDBRANCH   3   9
BRANCH   4  20
ATOM     20  C   UNL     1      35.556 -18.224 -23.840  0.00  0.00    +0.260 C 
BRANCH  20  21
ATOM     21  O   UNL     1      35.825 -18.068 -22.447  0.00  0.00    -0.468 OA
BRANCH  21  22
ATOM     22  C   UNL     1      35.522 -19.131 -21.642  0.00  0.00    +0.139 C 
ATOM     23  C   UNL     1      36.543 -19.834 -21.000  0.00  0.00    +0.038 C 
ATOM     24  C   UNL     1      34.194 -19.514 -21.462  0.00  0.00    +0.038 C 
ATOM     25  C   UNL     1      34.905 -21.300 -20.000  0.00  0.00    +0.078 C 
ATOM     26  C   UNL     1      36.234 -20.918 -20.179  0.00  0.00    +0.020 C 
ATOM     27  C   UNL     1      33.884 -20.598 -20.641  0.00  0.00    +0.020 C 
BRANCH  25  28
ATOM     28  N   UNL     1      34.599 -22.376 -19.186  0.00  0.00    -0.149 N 
ATOM     29  N   UNL     1      33.904 -23.434 -19.626  0.00  0.00    -0.048 NA
ATOM     30  N   UNL     1      34.442 -23.705 -17.479  0.00  0.00    -0.107 NA
ATOM     31  N   UNL     1      33.811 -24.244 -18.579  0.00  0.00    -0.024 NA
ATOM     32  C   UNL     1      34.922 -22.550 -17.877  0.00  0.00    +0.215 C 
ENDBRANCH  25  28
ENDBRANCH  21  22
ENDBRANCH  20  21
ENDBRANCH   4  20
TORSDOF 6
ENDMDL
MODEL 3
REMARK VINA RESULT:     -11.6      3.226     11.590
REMARK  Name = 25025505
REMARK  6 active torsions:
REMARK  status: ('A' for Active; 'I' for Inactive)
REMARK    1  A    between atoms: C_3  and  C_9
REMARK    2  A    between atoms: C_4  and  C_20
REMARK    3  A    between atoms: C_17  and  C_18
REMARK    4  A    between atoms: C_20  and  O_21
REMARK    5  A    between atoms: O_21  and  C_22
REMARK    6  A    between atoms: C_25  and  N_28
REMARK                            x       y       z     vdW  Elec       q    Type
REMARK                         _______ _______ _______ _____ _____    ______ ____
ROOT
ATOM      1  S   UNL     1      37.200 -19.130 -21.447  0.00  0.00    -0.079 S 
ATOM      2  N   UNL     1      34.937 -18.981 -22.688  0.00  0.00    -0.404 NA
ATOM      3  C   UNL     1      35.597 -19.651 -21.771  0.00  0.00    +0.134 C 
ATOM      4  C   UNL     1      35.750 -17.977 -23.179  0.00  0.00    +0.142 C 
ATOM      5  C   UNL     1      37.012 -17.901 -22.628  0.00  0.00    +0.122 C 
ENDROOT
BRANCH   3   9
ATOM      6  N   UNL     1      33.895 -22.166 -18.699  0.00  0.00    -0.253 N 
ATOM      7  N   UNL     1      32.013 -22.625 -17.393  0.00  0.00    -0.203 NA
ATOM      8  N   UNL     1      34.125 -23.695 -16.948  0.00  0.00    -0.181 NA
ATOM      9  C   UNL     1      35.035 -20.831 -21.000  0.00  0.00    +0.062 C 
ATOM     10  C   UNL     1      35.881 -21.170 -19.764  0.00  0.00    +0.030 C 
ATOM     11  C   UNL     1      33.576 -20.604 -20.577  0.00  0.00    +0.030 C 
ATOM     12  C   UNL     1      35.314 -22.374 -19.012  0.00  0.00    +0.102 C 
ATOM     13  C   UNL     1      33.021 -21.815 -19.827  0.00  0.00    +0.102 C 
ATOM     14  C   UNL     1      33.317 -22.862 -17.630  0.00  0.00    +0.090 C 
ATOM     15  C   UNL     1      31.489 -23.310 -16.356  0.00  0.00    +0.161 C 
ATOM     16  C   UNL     1      33.536 -24.348 -15.924  0.00  0.00    +0.104 C 
ATOM     17  C   UNL     1      32.209 -24.193 -15.578  0.00  0.00    +0.001 C 
BRANCH  17  18
ATOM     18  C   UNL     1      31.596 -24.928 -14.446  0.00  0.00    +0.026 C 
ATOM     19  C   UNL     1      30.198 -25.456 -14.773  0.00  0.00    +0.005 C 
ENDBRANCH  17  18
ENDBRANCH   3   9
BRANCH   4  20
ATOM     20  C   UNL     1      35.213 -17.090 -24.229  0.00  0.00    +0.260 C 
BRANCH  20  21
ATOM     21  O   UNL     1      35.636 -15.747 -23.996  0.00  0.00    -0.468 OA
BRANCH  21  22
ATOM     22  C   UNL     1      34.789 -14.955 -23.272  0.00  0.00    +0.139 C 
ATOM     23  C   UNL     1      34.819 -14.991 -21.877  0.00  0.00    +0.038 C 
ATOM     24  C   UNL     1      33.893 -14.109 -23.927  0.00  0.00    +0.038 C 
ATOM     25  C   UNL     1      33.059 -13.340 -21.795  0.00  0.00    +0.078 C 
ATOM     26  C   UNL     1      33.954 -14.184 -21.139  0.00  0.00    +0.020 C 
ATOM     27  C   UNL     1      33.028 -13.301 -23.189  0.00  0.00    +0.020 C 
BRANCH  25  28
ATOM     28  N   UNL     1      32.202 -12.538 -21.062  0.00  0.00    -0.149 N 
ATOM     29  N   UNL     1      31.261 -11.779 -21.640  0.00  0.00    -0.048 NA
ATOM     30  N   UNL     1      31.197 -11.532 -19.425  0.00  0.00    -0.107 NA
ATOM     31  N   UNL     1      30.649 -11.166 -20.634  0.00  0.00    -0.024 NA
ATOM     32  C   UNL     1      32.155 -12.382 -19.713  0.00  0.00    +0.215 C 
ENDBRANCH  25  28
ENDBRANCH  21  22
ENDBRANCH  20  21
ENDBRANCH   4  20
TORSDOF 6
ENDMDL
MODEL 4
REMARK VINA RESULT:     -11.0      2.266     12.356
REMARK  Name = 25025505
REMARK  6 active torsions:
REMARK  status: ('A' for Active; 'I' for Inactive)
REMARK    1  A    between atoms: C_3  and  C_9
REMARK    2  A    between atoms: C_4  and  C_20
REMARK    3  A    between atoms: C_17  and  C_18
REMARK    4  A    between atoms: C_20  and  O_21
REMARK    5  A    between atoms: O_21  and  C_22
REMARK    6  A    between atoms: C_25  and  N_28
REMARK                            x       y       z     vdW  Elec       q    Type
REMARK                         _______ _______ _______ _____ _____    ______ ____
ROOT
ATOM      1  S   UNL     1      35.307 -19.436 -23.977  0.00  0.00    -0.079 S 
ATOM      2  N   UNL     1      35.314 -17.933 -21.874  0.00  0.00    -0.404 NA
ATOM      3  C   UNL     1      35.377 -19.181 -22.281  0.00  0.00    +0.134 C 
ATOM      4  C   UNL     1      35.203 -17.109 -22.976  0.00  0.00    +0.142 C 
ATOM      5  C   UNL     1      35.183 -17.741 -24.202  0.00  0.00    +0.122 C 
ENDROOT
BRANCH   3   9
ATOM      6  N   UNL     1      35.427 -21.761 -18.817  0.00  0.00    -0.253 N 
ATOM      7  N   UNL     1      34.156 -22.783 -17.145  0.00  0.00    -0.203 NA
ATOM      8  N   UNL     1      36.564 -22.825 -17.076  0.00  0.00    -0.181 NA
ATOM      9  C   UNL     1      35.504 -20.380 -21.359  0.00  0.00    +0.062 C 
ATOM     10  C   UNL     1      36.599 -20.181 -20.301  0.00  0.00    +0.030 C 
ATOM     11  C   UNL     1      34.176 -20.720 -20.667  0.00  0.00    +0.030 C 
ATOM     12  C   UNL     1      36.729 -21.406 -19.395  0.00  0.00    +0.102 C 
ATOM     13  C   UNL     1      34.320 -21.946 -19.766  0.00  0.00    +0.102 C 
ATOM     14  C   UNL     1      35.380 -22.491 -17.624  0.00  0.00    +0.090 C 
ATOM     15  C   UNL     1      34.148 -23.486 -15.993  0.00  0.00    +0.161 C 
ATOM     16  C   UNL     1      36.482 -23.526 -15.926  0.00  0.00    +0.104 C 
ATOM     17  C   UNL     1      35.290 -23.888 -15.332  0.00  0.00    +0.001 C 
BRANCH  17  18
ATOM     18  C   UNL     1      35.239 -24.660 -14.067  0.00  0.00    +0.026 C 
ATOM     19  C   UNL     1      36.013 -23.985 -12.933  0.00  0.00    +0.005 C 
ENDBRANCH  17  18
ENDBRANCH   3   9
BRANCH   4  20
ATOM     20  C   UNL     1      35.116 -15.651 -22.757  0.00  0.00    +0.260 C 
BRANCH  20  21
ATOM     21  O   UNL     1      34.299 -15.054 -23.763  0.00  0.00    -0.468 OA
BRANCH  21  22
ATOM     22  C   UNL     1      33.874 -13.776 -23.527  0.00  0.00    +0.139 C 
ATOM     23  C   UNL     1      34.329 -12.730 -24.331  0.00  0.00    +0.038 C 
ATOM     24  C   UNL     1      32.986 -13.517 -22.484  0.00  0.00    +0.038 C 
ATOM     25  C   UNL     1      33.008 -11.168 -23.046  0.00  0.00    +0.078 C 
ATOM     26  C   UNL     1      33.896 -11.426 -24.090  0.00  0.00    +0.020 C 
ATOM     27  C   UNL     1      32.553 -12.213 -22.243  0.00  0.00    +0.020 C 
BRANCH  25  28
ATOM     28  N   UNL     1      32.579  -9.875 -22.808  0.00  0.00    -0.149 N 
ATOM     29  N   UNL     1      32.472  -8.963 -23.784  0.00  0.00    -0.048 NA
ATOM     30  N   UNL     1      31.870  -8.074 -21.830  0.00  0.00    -0.107 NA
ATOM     31  N   UNL     1      32.038  -7.863 -23.180  0.00  0.00    -0.024 NA
ATOM     32  C   UNL     1      32.209  -9.325 -21.621  0.00  0.00    +0.215 C 
ENDBRANCH  25  28
ENDBRANCH  21  22
ENDBRANCH  20  21
ENDBRANCH   4  20
TORSDOF 6
ENDMDL
MODEL 5
REMARK VINA RESULT:     -10.9      3.581     12.753
REMARK  Name = 25025505
REMARK  6 active torsions:
REMARK  status: ('A' for Active; 'I' for Inactive)
REMARK    1  A    between atoms: C_3  and  C_9
REMARK    2  A    between atoms: C_4  and  C_20
REMARK    3  A    between atoms: C_17  and  C_18
REMARK    4  A    between atoms: C_20  and  O_21
REMARK    5  A    between atoms: O_21  and  C_22
REMARK    6  A    between atoms: C_25  and  N_28
REMARK                            x       y       z     vdW  Elec       q    Type
REMARK                         _______ _______ _______ _____ _____    ______ ____
ROOT
ATOM      1  S   UNL     1      34.024 -20.893 -20.690  0.00  0.00    -0.079 S 
ATOM      2  N   UNL     1      36.481 -20.094 -20.767  0.00  0.00    -0.404 NA
ATOM      3  C   UNL     1      35.656 -20.918 -20.160  0.00  0.00    +0.134 C 
ATOM      4  C   UNL     1      35.781 -19.386 -21.724  0.00  0.00    +0.142 C 
ATOM      5  C   UNL     1      34.438 -19.681 -21.830  0.00  0.00    +0.122 C 
ENDROOT
BRANCH   3   9
ATOM      6  N   UNL     1      36.337 -22.719 -16.294  0.00  0.00    -0.253 N 
ATOM      7  N   UNL     1      35.352 -23.634 -14.383  0.00  0.00    -0.203 NA
ATOM      8  N   UNL     1      37.716 -23.177 -14.465  0.00  0.00    -0.181 NA
ATOM      9  C   UNL     1      36.056 -21.866 -19.045  0.00  0.00    +0.062 C 
ATOM     10  C   UNL     1      37.112 -21.251 -18.114  0.00  0.00    +0.030 C 
ATOM     11  C   UNL     1      34.848 -22.327 -18.217  0.00  0.00    +0.030 C 
ATOM     12  C   UNL     1      37.519 -22.227 -17.010  0.00  0.00    +0.102 C 
ATOM     13  C   UNL     1      35.269 -23.302 -17.118  0.00  0.00    +0.102 C 
ATOM     14  C   UNL     1      36.475 -23.200 -14.986  0.00  0.00    +0.090 C 
ATOM     15  C   UNL     1      35.521 -24.089 -13.124  0.00  0.00    +0.161 C 
ATOM     16  C   UNL     1      37.813 -23.646 -13.204  0.00  0.00    +0.104 C 
ATOM     17  C   UNL     1      36.740 -24.119 -12.477  0.00  0.00    +0.001 C 
BRANCH  17  18
ATOM     18  C   UNL     1      36.885 -24.627 -11.091  0.00  0.00    +0.026 C 
ATOM     19  C   UNL     1      35.544 -24.751 -10.365  0.00  0.00    +0.005 C 
ENDBRANCH  17  18
ENDBRANCH   3   9
BRANCH   4  20
ATOM     20  C   UNL     1      36.511 -18.393 -22.536  0.00  0.00    +0.260 C 
BRANCH  20  21
ATOM     21  O   UNL     1      35.709 -17.983 -23.643  0.00  0.00    -0.468 OA
BRANCH  21  22
ATOM     22  C   UNL     1      35.241 -16.698 -23.617  0.00  0.00    +0.139 C 
ATOM     23  C   UNL     1      35.203 -15.993 -22.413  0.00  0.00    +0.038 C 
ATOM     24  C   UNL     1      34.801 -16.092 -24.793  0.00  0.00    +0.038 C 
ATOM     25  C   UNL     1      34.284 -14.078 -23.564  0.00  0.00    +0.078 C 
ATOM     26  C   UNL     1      34.724 -14.683 -22.387  0.00  0.00    +0.020 C 
ATOM     27  C   UNL     1      34.323 -14.782 -24.768  0.00  0.00    +0.020 C 
BRANCH  25  28
ATOM     28  N   UNL     1      33.810 -12.779 -23.537  0.00  0.00    -0.149 N 
ATOM     29  N   UNL     1      32.859 -12.380 -22.683  0.00  0.00    -0.048 NA
ATOM     30  N   UNL     1      33.498 -10.678 -23.973  0.00  0.00    -0.107 NA
ATOM     31  N   UNL     1      32.671 -11.094 -22.953  0.00  0.00    -0.024 NA
ATOM     32  C   UNL     1      34.194 -11.736 -24.319  0.00  0.00    +0.215 C 
ENDBRANCH  25  28
ENDBRANCH  21  22
ENDBRANCH  20  21
ENDBRANCH   4  20
TORSDOF 6
ENDMDL
MODEL 6
REMARK VINA RESULT:     -10.8      2.731     12.239
REMARK  Name = 25025505
REMARK  6 active torsions:
REMARK  status: ('A' for Active; 'I' for Inactive)
REMARK    1  A    between atoms: C_3  and  C_9
REMARK    2  A    between atoms: C_4  and  C_20
REMARK    3  A    between atoms: C_17  and  C_18
REMARK    4  A    between atoms: C_20  and  O_21
REMARK    5  A    between atoms: O_21  and  C_22
REMARK    6  A    between atoms: C_25  and  N_28
REMARK                            x       y       z     vdW  Elec       q    Type
REMARK                         _______ _______ _______ _____ _____    ______ ____
ROOT
ATOM      1  S   UNL     1      37.309 -19.034 -21.503  0.00  0.00    -0.079 S 
ATOM      2  N   UNL     1      35.038 -19.860 -22.420  0.00  0.00    -0.404 NA
ATOM      3  C   UNL     1      35.953 -20.085 -21.503  0.00  0.00    +0.134 C 
ATOM      4  C   UNL     1      35.428 -18.778 -23.184  0.00  0.00    +0.142 C 
ATOM      5  C   UNL     1      36.631 -18.198 -22.838  0.00  0.00    +0.122 C 
ENDROOT
BRANCH   3   9
ATOM      6  N   UNL     1      35.414 -22.313 -17.842  0.00  0.00    -0.253 N 
ATOM      7  N   UNL     1      33.890 -23.071 -16.242  0.00  0.00    -0.203 NA
ATOM      8  N   UNL     1      36.265 -23.285 -15.895  0.00  0.00    -0.181 NA
ATOM      9  C   UNL     1      35.879 -21.195 -20.471  0.00  0.00    +0.062 C 
ATOM     10  C   UNL     1      36.867 -20.976 -19.316  0.00  0.00    +0.030 C 
ATOM     11  C   UNL     1      34.461 -21.367 -19.908  0.00  0.00    +0.030 C 
ATOM     12  C   UNL     1      36.795 -22.113 -18.296  0.00  0.00    +0.102 C 
ATOM     13  C   UNL     1      34.403 -22.507 -18.891  0.00  0.00    +0.102 C 
ATOM     14  C   UNL     1      35.179 -22.919 -16.602  0.00  0.00    +0.090 C 
ATOM     15  C   UNL     1      33.699 -23.656 -15.042  0.00  0.00    +0.161 C 
ATOM     16  C   UNL     1      36.001 -23.863 -14.705  0.00  0.00    +0.104 C 
ATOM     17  C   UNL     1      34.726 -24.076 -14.222  0.00  0.00    +0.001 C 
BRANCH  17  18
ATOM     18  C   UNL     1      34.476 -24.715 -12.908  0.00  0.00    +0.026 C 
ATOM     19  C   UNL     1      35.631 -24.515 -11.925  0.00  0.00    +0.005 C 
ENDBRANCH  17  18
ENDBRANCH   3   9
BRANCH   4  20
ATOM     20  C   UNL     1      34.546 -18.341 -24.284  0.00  0.00    +0.260 C 
BRANCH  20  21
ATOM     21  O   UNL     1      35.156 -17.270 -25.002  0.00  0.00    -0.468 OA
BRANCH  21  22
ATOM     22  C   UNL     1      34.739 -16.006 -24.687  0.00  0.00    +0.139 C 
ATOM     23  C   UNL     1      35.121 -15.425 -23.477  0.00  0.00    +0.038 C 
ATOM     24  C   UNL     1      33.931 -15.296 -25.575  0.00  0.00    +0.038 C 
ATOM     25  C   UNL     1      33.887 -13.428 -24.044  0.00  0.00    +0.078 C 
ATOM     26  C   UNL     1      34.695 -14.137 -23.156  0.00  0.00    +0.020 C 
ATOM     27  C   UNL     1      33.505 -14.007 -25.255  0.00  0.00    +0.020 C 
BRANCH  25  28
ATOM     28  N   UNL     1      33.465 -12.150 -23.726  0.00  0.00    -0.149 N 
ATOM     29  N   UNL     1      33.841 -11.074 -24.430  0.00  0.00    -0.048 NA
ATOM     30  N   UNL     1      32.497 -10.468 -22.758  0.00  0.00    -0.107 NA
ATOM     31  N   UNL     1      33.246 -10.048 -23.834  0.00  0.00    -0.024 NA
ATOM     32  C   UNL     1      32.646 -11.772 -22.710  0.00  0.00    +0.215 C 
ENDBRANCH  25  28
ENDBRANCH  21  22
ENDBRANCH  20  21
ENDBRANCH   4  20
TORSDOF 6
ENDMDL
MODEL 7
REMARK VINA RESULT:     -10.7      2.300     12.043
REMARK  Name = 25025505
REMARK  6 active torsions:
REMARK  status: ('A' for Active; 'I' for Inactive)
REMARK    1  A    between atoms: C_3  and  C_9
REMARK    2  A    between atoms: C_4  and  C_20
REMARK    3  A    between atoms: C_17  and  C_18
REMARK    4  A    between atoms: C_20  and  O_21
REMARK    5  A    between atoms: O_21  and  C_22
REMARK    6  A    between atoms: C_25  and  N_28
REMARK                            x       y       z     vdW  Elec       q    Type
REMARK                         _______ _______ _______ _____ _____    ______ ____
ROOT
ATOM      1  S   UNL     1      36.520 -18.259 -21.810  0.00  0.00    -0.079 S 
ATOM      2  N   UNL     1      34.730 -18.901 -23.560  0.00  0.00    -0.404 NA
ATOM      3  C   UNL     1      35.255 -19.252 -22.408  0.00  0.00    +0.134 C 
ATOM      4  C   UNL     1      35.368 -17.762 -24.013  0.00  0.00    +0.142 C 
ATOM      5  C   UNL     1      36.366 -17.267 -23.200  0.00  0.00    +0.122 C 
ENDROOT
BRANCH   3   9
ATOM      6  N   UNL     1      33.934 -21.843 -19.214  0.00  0.00    -0.253 N 
ATOM      7  N   UNL     1      32.189 -22.391 -17.761  0.00  0.00    -0.203 NA
ATOM      8  N   UNL     1      34.381 -23.356 -17.491  0.00  0.00    -0.181 NA
ATOM      9  C   UNL     1      34.816 -20.457 -21.597  0.00  0.00    +0.062 C 
ATOM     10  C   UNL     1      35.776 -20.752 -20.435  0.00  0.00    +0.030 C 
ATOM     11  C   UNL     1      33.387 -20.301 -21.056  0.00  0.00    +0.030 C 
ATOM     12  C   UNL     1      35.331 -21.982 -19.642  0.00  0.00    +0.102 C 
ATOM     13  C   UNL     1      32.955 -21.537 -20.266  0.00  0.00    +0.102 C 
ATOM     14  C   UNL     1      33.480 -22.564 -18.103  0.00  0.00    +0.090 C 
ATOM     15  C   UNL     1      31.786 -23.100 -16.686  0.00  0.00    +0.161 C 
ATOM     16  C   UNL     1      33.910 -24.035 -16.424  0.00  0.00    +0.104 C 
ATOM     17  C   UNL     1      32.609 -23.945 -15.971  0.00  0.00    +0.001 C 
BRANCH  17  18
ATOM     18  C   UNL     1      32.128 -24.707 -14.794  0.00  0.00    +0.026 C 
ATOM     19  C   UNL     1      30.690 -25.202 -14.961  0.00  0.00    +0.005 C 
ENDBRANCH  17  18
ENDBRANCH   3   9
BRANCH   4  20
ATOM     20  C   UNL     1      34.939 -17.182 -25.301  0.00  0.00    +0.260 C 
BRANCH  20  21
ATOM     21  O   UNL     1      33.728 -16.447 -25.126  0.00  0.00    -0.468 OA
BRANCH  21  22
ATOM     22  C   UNL     1      33.854 -15.102 -24.916  0.00  0.00    +0.139 C 
ATOM     23  C   UNL     1      33.739 -14.214 -25.987  0.00  0.00    +0.038 C 
ATOM     24  C   UNL     1      34.097 -14.615 -23.632  0.00  0.00    +0.038 C 
ATOM     25  C   UNL     1      34.112 -12.357 -24.489  0.00  0.00    +0.078 C 
ATOM     26  C   UNL     1      33.868 -12.842 -25.773  0.00  0.00    +0.020 C 
ATOM     27  C   UNL     1      34.226 -13.243 -23.418  0.00  0.00    +0.020 C 
BRANCH  25  28
ATOM     28  N   UNL     1      34.240 -10.996 -24.277  0.00  0.00    -0.149 N 
ATOM     29  N   UNL     1      35.333 -10.313 -24.642  0.00  0.00    -0.048 NA
ATOM     30  N   UNL     1      33.852  -8.945 -23.691  0.00  0.00    -0.107 NA
ATOM     31  N   UNL     1      35.091  -9.059 -24.281  0.00  0.00    -0.024 NA
ATOM     32  C   UNL     1      33.342 -10.154 -23.699  0.00  0.00    +0.215 C 
ENDBRANCH  25  28
ENDBRANCH  21  22
ENDBRANCH  20  21
ENDBRANCH   4  20
TORSDOF 6
ENDMDL
MODEL 8
REMARK VINA RESULT:     -10.7      1.588      1.945
REMARK  Name = 25025505
REMARK  6 active torsions:
REMARK  status: ('A' for Active; 'I' for Inactive)
REMARK    1  A    between atoms: C_3  and  C_9
REMARK    2  A    between atoms: C_4  and  C_20
REMARK    3  A    between atoms: C_17  and  C_18
REMARK    4  A    between atoms: C_20  and  O_21
REMARK    5  A    between atoms: O_21  and  C_22
REMARK    6  A    between atoms: C_25  and  N_28
REMARK                            x       y       z     vdW  Elec       q    Type
REMARK                         _______ _______ _______ _____ _____    ______ ____
ROOT
ATOM      1  S   UNL     1      34.013 -14.442 -21.046  0.00  0.00    -0.079 S 
ATOM      2  N   UNL     1      34.667 -14.935 -23.497  0.00  0.00    -0.404 NA
ATOM      3  C   UNL     1      34.079 -14.056 -22.717  0.00  0.00    +0.134 C 
ATOM      4  C   UNL     1      35.100 -15.996 -22.727  0.00  0.00    +0.142 C 
ATOM      5  C   UNL     1      34.837 -15.909 -21.376  0.00  0.00    +0.122 C 
ENDROOT
BRANCH   3   9
ATOM      6  N   UNL     1      33.070  -9.885 -23.211  0.00  0.00    -0.253 N 
ATOM      7  N   UNL     1      33.830  -7.772 -23.855  0.00  0.00    -0.203 NA
ATOM      8  N   UNL     1      31.692  -8.049 -22.779  0.00  0.00    -0.181 NA
ATOM      9  C   UNL     1      33.471 -12.752 -23.198  0.00  0.00    +0.062 C 
ATOM     10  C   UNL     1      32.672 -12.044 -22.093  0.00  0.00    +0.030 C 
ATOM     11  C   UNL     1      34.531 -11.792 -23.759  0.00  0.00    +0.030 C 
ATOM     12  C   UNL     1      32.049 -10.744 -22.601  0.00  0.00    +0.102 C 
ATOM     13  C   UNL     1      33.895 -10.497 -24.263  0.00  0.00    +0.102 C 
ATOM     14  C   UNL     1      32.854  -8.504 -23.286  0.00  0.00    +0.090 C 
ATOM     15  C   UNL     1      33.589  -6.446 -23.909  0.00  0.00    +0.161 C 
ATOM     16  C   UNL     1      31.517  -6.715 -22.867  0.00  0.00    +0.104 C 
ATOM     17  C   UNL     1      32.440  -5.855 -23.426  0.00  0.00    +0.001 C 
BRANCH  17  18
ATOM     18  C   UNL     1      32.212  -4.392 -23.504  0.00  0.00    +0.026 C 
ATOM     19  C   UNL     1      30.875  -4.038 -24.158  0.00  0.00    +0.005 C 
ENDBRANCH  17  18
ENDBRANCH   3   9
BRANCH   4  20
ATOM     20  C   UNL     1      35.795 -17.113 -23.399  0.00  0.00    +0.260 C 
BRANCH  20  21
ATOM     21  O   UNL     1      34.999 -18.295 -23.328  0.00  0.00    -0.468 OA
BRANCH  21  22
ATOM     22  C   UNL     1      35.219 -19.118 -22.258  0.00  0.00    +0.139 C 
ATOM     23  C   UNL     1      36.508 -19.262 -21.741  0.00  0.00    +0.038 C 
ATOM     24  C   UNL     1      34.157 -19.814 -21.683  0.00  0.00    +0.038 C 
ATOM     25  C   UNL     1      35.669 -20.798 -20.077  0.00  0.00    +0.078 C 
ATOM     26  C   UNL     1      36.732 -20.102 -20.651  0.00  0.00    +0.020 C 
ATOM     27  C   UNL     1      34.381 -20.655 -20.592  0.00  0.00    +0.020 C 
BRANCH  25  28
ATOM     28  N   UNL     1      35.892 -21.631 -18.995  0.00  0.00    -0.149 N 
ATOM     29  N   UNL     1      34.986 -22.527 -18.582  0.00  0.00    -0.048 NA
ATOM     30  N   UNL     1      36.802 -22.616 -17.291  0.00  0.00    -0.107 NA
ATOM     31  N   UNL     1      35.548 -23.128 -17.539  0.00  0.00    -0.024 NA
ATOM     32  C   UNL     1      36.995 -21.693 -18.204  0.00  0.00    +0.215 C 
ENDBRANCH  25  28
ENDBRANCH  21  22
ENDBRANCH  20  21
ENDBRANCH   4  20
TORSDOF 6
ENDMDL
MODEL 9
REMARK VINA RESULT:     -10.4      2.228     12.070
REMARK  Name = 25025505
REMARK  6 active torsions:
REMARK  status: ('A' for Active; 'I' for Inactive)
REMARK    1  A    between atoms: C_3  and  C_9
REMARK    2  A    between atoms: C_4  and  C_20
REMARK    3  A    between atoms: C_17  and  C_18
REMARK    4  A    between atoms: C_20  and  O_21
REMARK    5  A    between atoms: O_21  and  C_22
REMARK    6  A    between atoms: C_25  and  N_28
REMARK                            x       y       z     vdW  Elec       q    Type
REMARK                         _______ _______ _______ _____ _____    ______ ____
ROOT
ATOM      1  S   UNL     1      34.917 -18.115 -25.150  0.00  0.00    -0.079 S 
ATOM      2  N   UNL     1      35.280 -16.601 -23.087  0.00  0.00    -0.404 NA
ATOM      3  C   UNL     1      35.337 -17.844 -23.508  0.00  0.00    +0.134 C 
ATOM      4  C   UNL     1      34.875 -15.793 -24.131  0.00  0.00    +0.142 C 
ATOM      5  C   UNL     1      34.631 -16.433 -25.329  0.00  0.00    +0.122 C 
ENDROOT
BRANCH   3   9
ATOM      6  N   UNL     1      35.904 -20.561 -20.199  0.00  0.00    -0.253 N 
ATOM      7  N   UNL     1      34.876 -22.023 -18.695  0.00  0.00    -0.203 NA
ATOM      8  N   UNL     1      37.186 -21.392 -18.431  0.00  0.00    -0.181 NA
ATOM      9  C   UNL     1      35.743 -19.025 -22.646  0.00  0.00    +0.062 C 
ATOM     10  C   UNL     1      36.666 -18.607 -21.492  0.00  0.00    +0.030 C 
ATOM     11  C   UNL     1      34.527 -19.777 -22.085  0.00  0.00    +0.030 C 
ATOM     12  C   UNL     1      37.084 -19.812 -20.647  0.00  0.00    +0.102 C 
ATOM     13  C   UNL     1      34.958 -20.978 -21.243  0.00  0.00    +0.102 C 
ATOM     14  C   UNL     1      35.993 -21.364 -19.055  0.00  0.00    +0.090 C 
ATOM     15  C   UNL     1      34.996 -22.785 -17.588  0.00  0.00    +0.161 C 
ATOM     16  C   UNL     1      37.236 -22.173 -17.332  0.00  0.00    +0.104 C 
ATOM     17  C   UNL     1      36.162 -22.899 -16.858  0.00  0.00    +0.001 C 
BRANCH  17  18
ATOM     18  C   UNL     1      36.255 -23.748 -15.646  0.00  0.00    +0.026 C 
ATOM     19  C   UNL     1      37.245 -23.200 -14.617  0.00  0.00    +0.005 C 
ENDBRANCH  17  18
ENDBRANCH   3   9
BRANCH   4  20
ATOM     20  C   UNL     1      34.739 -14.344 -23.886  0.00  0.00    +0.260 C 
BRANCH  20  21
ATOM     21  O   UNL     1      33.529 -14.081 -23.178  0.00  0.00    -0.468 OA
BRANCH  21  22
ATOM     22  C   UNL     1      33.167 -12.768 -23.051  0.00  0.00    +0.139 C 
ATOM     23  C   UNL     1      33.755 -11.799 -23.865  0.00  0.00    +0.038 C 
ATOM     24  C   UNL     1      32.209 -12.396 -22.108  0.00  0.00    +0.038 C 
ATOM     25  C   UNL     1      32.429 -10.090 -22.791  0.00  0.00    +0.078 C 
ATOM     26  C   UNL     1      33.386 -10.460 -23.735  0.00  0.00    +0.020 C 
ATOM     27  C   UNL     1      31.840 -11.057 -21.977  0.00  0.00    +0.020 C 
BRANCH  25  28
ATOM     28  N   UNL     1      32.063  -8.762 -22.663  0.00  0.00    -0.149 N 
ATOM     29  N   UNL     1      32.216  -8.084 -21.517  0.00  0.00    -0.048 NA
ATOM     30  N   UNL     1      31.322  -6.767 -23.078  0.00  0.00    -0.107 NA
ATOM     31  N   UNL     1      31.761  -6.864 -21.776  0.00  0.00    -0.024 NA
ATOM     32  C   UNL     1      31.518  -7.952 -23.608  0.00  0.00    +0.215 C 
ENDBRANCH  25  28
ENDBRANCH  21  22
ENDBRANCH  20  21
ENDBRANCH   4  20
TORSDOF 6
ENDMDL
