MODEL 1
REMARK VINA RESULT:     -11.3      0.000      0.000
REMARK  Name = 60195662
REMARK  7 active torsions:
REMARK  status: ('A' for Active; 'I' for Inactive)
REMARK    1  A    between atoms: N_2  and  C_14
REMARK    2  A    between atoms: N_2  and  C_23
REMARK    3  A    between atoms: C_3  and  C_5
REMARK    4  A    between atoms: C_14  and  C_17
REMARK    5  A    between atoms: C_23  and  C_24
REMARK    6  A    between atoms: C_27  and  C_31
REMARK    7  A    between atoms: C_31  and  O_32
REMARK                            x       y       z     vdW  Elec       q    Type
REMARK                         _______ _______ _______ _____ _____    ______ ____
ROOT
ATOM      1  O   UNL     1      33.579 -24.008 -17.867  0.00  0.00    -0.270 OA
ATOM      2  N   UNL     1      34.933 -23.365 -16.073  0.00  0.00    -0.270 N 
ATOM      3  C   UNL     1      34.491 -23.304 -17.409  0.00  0.00    +0.251 C 
ENDROOT
BRANCH   3   5
ATOM      4  N   UNL     1      37.139 -21.234 -19.031  0.00  0.00    -0.248 NA
ATOM      5  C   UNL     1      35.136 -22.381 -18.325  0.00  0.00    +0.072 C 
ATOM      6  C   UNL     1      34.425 -21.763 -19.343  0.00  0.00    +0.003 C 
ATOM      7  C   UNL     1      35.071 -20.876 -20.215  0.00  0.00    -0.004 C 
ATOM      8  C   UNL     1      36.479 -22.084 -18.212  0.00  0.00    +0.103 C 
ATOM      9  C   UNL     1      36.447 -20.637 -20.020  0.00  0.00    +0.060 C 
ATOM     10  C   UNL     1      34.380 -20.234 -21.257  0.00  0.00    +0.053 C 
ATOM     11  C   UNL     1      37.088 -19.754 -20.885  0.00  0.00    +0.071 C 
ATOM     12  C   UNL     1      35.046 -19.356 -22.109  0.00  0.00    -0.026 C 
ATOM     13  C   UNL     1      36.402 -19.116 -21.922  0.00  0.00    -0.024 C 
ENDBRANCH   3   5
BRANCH   2  14
ATOM     14  C   UNL     1      34.343 -24.279 -15.098  0.00  0.00    +0.099 C 
ATOM     15  C   UNL     1      34.817 -25.707 -15.362  0.00  0.00    +0.026 C 
BRANCH  14  17
ATOM     16  F   UNL     1      28.717 -23.851 -15.006  0.00  0.00    -0.204 F 
ATOM     17  C   UNL     1      32.834 -24.164 -15.073  0.00  0.00    -0.004 C 
ATOM     18  C   UNL     1      32.048 -25.313 -14.975  0.00  0.00    -0.000 C 
ATOM     19  C   UNL     1      32.228 -22.909 -15.148  0.00  0.00    -0.000 C 
ATOM     20  C   UNL     1      30.658 -25.208 -14.952  0.00  0.00    +0.029 C 
ATOM     21  C   UNL     1      30.838 -22.804 -15.125  0.00  0.00    +0.029 C 
ATOM     22  C   UNL     1      30.052 -23.953 -15.028  0.00  0.00    +0.140 C 
ENDBRANCH  14  17
ENDBRANCH   2  14
BRANCH   2  23
ATOM     23  C   UNL     1      36.008 -22.519 -15.575  0.00  0.00    +0.121 C 
BRANCH  23  24
ATOM     24  C   UNL     1      36.931 -23.267 -14.655  0.00  0.00    -0.002 C 
ATOM     25  C   UNL     1      37.983 -24.016 -15.183  0.00  0.00    +0.004 C 
ATOM     26  C   UNL     1      36.737 -23.211 -13.275  0.00  0.00    -0.003 C 
ATOM     27  C   UNL     1      38.841 -24.710 -14.329  0.00  0.00    +0.075 C 
ATOM     28  C   UNL     1      37.596 -23.905 -12.422  0.00  0.00    -0.000 C 
ATOM     29  C   UNL     1      38.648 -24.654 -12.949  0.00  0.00    +0.006 C 
BRANCH  27  31
ATOM     30  O   UNL     1      41.047 -25.044 -15.193  0.00  0.00    -0.245 OA
ATOM     31  C   UNL     1      39.939 -25.490 -14.878  0.00  0.00    +0.338 C 
BRANCH  31  32
ATOM     32  O   UNL     1      39.623 -26.806 -15.020  0.00  0.00    -0.477 OA
ATOM     33  H   UNL     1      38.827 -27.139 -14.652  0.00  0.00    +0.295 HD
ENDBRANCH  31  32
ENDBRANCH  27  31
ENDBRANCH  23  24
ENDBRANCH   2  23
TORSDOF 7
ENDMDL
MODEL 2
REMARK VINA RESULT:     -11.3      2.935      6.542
REMARK  Name = 60195662
REMARK  7 active torsions:
REMARK  status: ('A' for Active; 'I' for Inactive)
REMARK    1  A    between atoms: N_2  and  C_14
REMARK    2  A    between atoms: N_2  and  C_23
REMARK    3  A    between atoms: C_3  and  C_5
REMARK    4  A    between atoms: C_14  and  C_17
REMARK    5  A    between atoms: C_23  and  C_24
REMARK    6  A    between atoms: C_27  and  C_31
REMARK    7  A    between atoms: C_31  and  O_32
REMARK                            x       y       z     vdW  Elec       q    Type
REMARK                         _______ _______ _______ _____ _____    ______ ____
ROOT
ATOM      1  O   UNL     1      35.722 -24.702 -16.314  0.00  0.00    -0.270 OA
ATOM      2  N   UNL     1      34.002 -23.793 -15.017  0.00  0.00    -0.270 N 
ATOM      3  C   UNL     1      34.755 -23.934 -16.198  0.00  0.00    +0.251 C 
ENDROOT
BRANCH   3   5
ATOM      4  N   UNL     1      32.707 -22.276 -18.842  0.00  0.00    -0.248 NA
ATOM      5  C   UNL     1      34.407 -23.131 -17.357  0.00  0.00    +0.072 C 
ATOM      6  C   UNL     1      35.378 -22.460 -18.086  0.00  0.00    +0.003 C 
ATOM      7  C   UNL     1      35.017 -21.691 -19.200  0.00  0.00    -0.004 C 
ATOM      8  C   UNL     1      33.098 -23.008 -17.773  0.00  0.00    +0.103 C 
ATOM      9  C   UNL     1      33.651 -21.626 -19.547  0.00  0.00    +0.060 C 
ATOM     10  C   UNL     1      35.976 -20.999 -19.959  0.00  0.00    +0.053 C 
ATOM     11  C   UNL     1      33.293 -20.862 -20.655  0.00  0.00    +0.071 C 
ATOM     12  C   UNL     1      35.590 -20.242 -21.062  0.00  0.00    -0.026 C 
ATOM     13  C   UNL     1      34.246 -20.174 -21.410  0.00  0.00    -0.024 C 
ENDBRANCH   3   5
BRANCH   2  14
ATOM     14  C   UNL     1      34.302 -24.556 -13.807  0.00  0.00    +0.099 C 
ATOM     15  C   UNL     1      33.551 -23.966 -12.614  0.00  0.00    +0.026 C 
BRANCH  14  17
ATOM     16  F   UNL     1      39.861 -24.903 -12.906  0.00  0.00    -0.204 F 
ATOM     17  C   UNL     1      35.793 -24.649 -13.566  0.00  0.00    -0.004 C 
ATOM     18  C   UNL     1      36.453 -25.866 -13.736  0.00  0.00    -0.000 C 
ATOM     19  C   UNL     1      36.508 -23.517 -13.171  0.00  0.00    -0.000 C 
ATOM     20  C   UNL     1      37.827 -25.952 -13.514  0.00  0.00    +0.029 C 
ATOM     21  C   UNL     1      37.882 -23.603 -12.949  0.00  0.00    +0.029 C 
ATOM     22  C   UNL     1      38.542 -24.821 -13.120  0.00  0.00    +0.140 C 
ENDBRANCH  14  17
ENDBRANCH   2  14
BRANCH   2  23
ATOM     23  C   UNL     1      32.873 -22.879 -14.922  0.00  0.00    +0.121 C 
BRANCH  23  24
ATOM     24  C   UNL     1      31.561 -23.583 -15.115  0.00  0.00    -0.002 C 
ATOM     25  C   UNL     1      30.453 -22.876 -15.583  0.00  0.00    +0.004 C 
ATOM     26  C   UNL     1      31.450 -24.943 -14.830  0.00  0.00    -0.003 C 
ATOM     27  C   UNL     1      29.234 -23.530 -15.763  0.00  0.00    +0.075 C 
ATOM     28  C   UNL     1      30.232 -25.597 -15.011  0.00  0.00    -0.000 C 
ATOM     29  C   UNL     1      29.123 -24.890 -15.477  0.00  0.00    +0.006 C 
BRANCH  27  31
ATOM     30  O   UNL     1      26.964 -22.776 -15.719  0.00  0.00    -0.245 OA
ATOM     31  C   UNL     1      28.079 -22.793 -16.251  0.00  0.00    +0.338 C 
BRANCH  31  32
ATOM     32  O   UNL     1      28.348 -22.097 -17.390  0.00  0.00    -0.477 OA
ATOM     33  H   UNL     1      27.843 -22.253 -18.164  0.00  0.00    +0.295 HD
ENDBRANCH  31  32
ENDBRANCH  27  31
ENDBRANCH  23  24
ENDBRANCH   2  23
TORSDOF 7
ENDMDL
MODEL 3
REMARK VINA RESULT:     -11.0      1.599      1.981
REMARK  Name = 60195662
REMARK  7 active torsions:
REMARK  status: ('A' for Active; 'I' for Inactive)
REMARK    1  A    between atoms: N_2  and  C_14
REMARK    2  A    between atoms: N_2  and  C_23
REMARK    3  A    between atoms: C_3  and  C_5
REMARK    4  A    between atoms: C_14  and  C_17
REMARK    5  A    between atoms: C_23  and  C_24
REMARK    6  A    between atoms: C_27  and  C_31
REMARK    7  A    between atoms: C_31  and  O_32
REMARK                            x       y       z     vdW  Elec       q    Type
REMARK                         _______ _______ _______ _____ _____    ______ ____
ROOT
ATOM      1  O   UNL     1      33.140 -23.846 -18.130  0.00  0.00    -0.270 OA
ATOM      2  N   UNL     1      34.447 -23.217 -16.296  0.00  0.00    -0.270 N 
ATOM      3  C   UNL     1      34.061 -23.169 -17.650  0.00  0.00    +0.251 C 
ENDROOT
BRANCH   3   5
ATOM      4  N   UNL     1      36.871 -21.311 -19.257  0.00  0.00    -0.248 NA
ATOM      5  C   UNL     1      34.780 -22.293 -18.558  0.00  0.00    +0.072 C 
ATOM      6  C   UNL     1      34.122 -21.610 -19.570  0.00  0.00    +0.003 C 
ATOM      7  C   UNL     1      34.839 -20.771 -20.434  0.00  0.00    -0.004 C 
ATOM      8  C   UNL     1      36.143 -22.110 -18.444  0.00  0.00    +0.103 C 
ATOM      9  C   UNL     1      36.230 -20.649 -20.238  0.00  0.00    +0.060 C 
ATOM     10  C   UNL     1      34.202 -20.065 -21.469  0.00  0.00    +0.053 C 
ATOM     11  C   UNL     1      36.941 -19.814 -21.097  0.00  0.00    +0.071 C 
ATOM     12  C   UNL     1      34.938 -19.237 -22.313  0.00  0.00    -0.026 C 
ATOM     13  C   UNL     1      36.310 -19.112 -22.126  0.00  0.00    -0.024 C 
ENDBRANCH   3   5
BRANCH   2  14
ATOM     14  C   UNL     1      33.781 -24.084 -15.326  0.00  0.00    +0.099 C 
ATOM     15  C   UNL     1      34.240 -25.529 -15.512  0.00  0.00    +0.026 C 
BRANCH  14  17
ATOM     16  F   UNL     1      28.171 -23.546 -15.586  0.00  0.00    -0.204 F 
ATOM     17  C   UNL     1      32.276 -23.940 -15.395  0.00  0.00    -0.004 C 
ATOM     18  C   UNL     1      31.475 -25.067 -15.582  0.00  0.00    -0.000 C 
ATOM     19  C   UNL     1      31.690 -22.680 -15.273  0.00  0.00    -0.000 C 
ATOM     20  C   UNL     1      30.089 -24.934 -15.646  0.00  0.00    +0.029 C 
ATOM     21  C   UNL     1      30.303 -22.547 -15.337  0.00  0.00    +0.029 C 
ATOM     22  C   UNL     1      29.502 -23.674 -15.524  0.00  0.00    +0.140 C 
ENDBRANCH  14  17
ENDBRANCH   2  14
BRANCH   2  23
ATOM     23  C   UNL     1      35.536 -22.404 -15.772  0.00  0.00    +0.121 C 
BRANCH  23  24
ATOM     24  C   UNL     1      36.476 -23.207 -14.919  0.00  0.00    -0.002 C 
ATOM     25  C   UNL     1      36.247 -23.321 -13.548  0.00  0.00    +0.004 C 
ATOM     26  C   UNL     1      37.576 -23.839 -15.497  0.00  0.00    -0.003 C 
ATOM     27  C   UNL     1      37.120 -24.068 -12.755  0.00  0.00    +0.075 C 
ATOM     28  C   UNL     1      38.448 -24.585 -14.705  0.00  0.00    -0.000 C 
ATOM     29  C   UNL     1      38.220 -24.699 -13.334  0.00  0.00    +0.006 C 
BRANCH  27  31
ATOM     30  O   UNL     1      37.160 -23.333 -10.479  0.00  0.00    -0.245 OA
ATOM     31  C   UNL     1      36.881 -24.188 -11.326  0.00  0.00    +0.338 C 
BRANCH  31  32
ATOM     32  O   UNL     1      36.299 -25.372 -10.992  0.00  0.00    -0.477 OA
ATOM     33  H   UNL     1      35.836 -25.456 -10.181  0.00  0.00    +0.295 HD
ENDBRANCH  31  32
ENDBRANCH  27  31
ENDBRANCH  23  24
ENDBRANCH   2  23
TORSDOF 7
ENDMDL
MODEL 4
REMARK VINA RESULT:     -10.5     11.451     15.434
REMARK  Name = 60195662
REMARK  7 active torsions:
REMARK  status: ('A' for Active; 'I' for Inactive)
REMARK    1  A    between atoms: N_2  and  C_14
REMARK    2  A    between atoms: N_2  and  C_23
REMARK    3  A    between atoms: C_3  and  C_5
REMARK    4  A    between atoms: C_14  and  C_17
REMARK    5  A    between atoms: C_23  and  C_24
REMARK    6  A    between atoms: C_27  and  C_31
REMARK    7  A    between atoms: C_31  and  O_32
REMARK                            x       y       z     vdW  Elec       q    Type
REMARK                         _______ _______ _______ _____ _____    ______ ____
ROOT
ATOM      1  O   UNL     1      35.451  -9.470 -24.197  0.00  0.00    -0.270 OA
ATOM      2  N   UNL     1      33.295  -9.478 -23.293  0.00  0.00    -0.270 N 
ATOM      3  C   UNL     1      34.372 -10.047 -24.001  0.00  0.00    +0.251 C 
ENDROOT
BRANCH   3   5
ATOM      4  N   UNL     1      33.509 -12.794 -26.376  0.00  0.00    -0.248 NA
ATOM      5  C   UNL     1      34.226 -11.381 -24.555  0.00  0.00    +0.072 C 
ATOM      6  C   UNL     1      34.635 -12.502 -23.848  0.00  0.00    +0.003 C 
ATOM      7  C   UNL     1      34.483 -13.780 -24.405  0.00  0.00    -0.004 C 
ATOM      8  C   UNL     1      33.673 -11.579 -25.803  0.00  0.00    +0.103 C 
ATOM      9  C   UNL     1      33.908 -13.880 -25.688  0.00  0.00    +0.060 C 
ATOM     10  C   UNL     1      34.889 -14.935 -23.715  0.00  0.00    +0.053 C 
ATOM     11  C   UNL     1      33.757 -15.150 -26.240  0.00  0.00    +0.071 C 
ATOM     12  C   UNL     1      34.726 -16.193 -24.292  0.00  0.00    -0.026 C 
ATOM     13  C   UNL     1      34.159 -16.300 -25.556  0.00  0.00    -0.024 C 
ENDBRANCH   3   5
BRANCH   2  14
ATOM     14  C   UNL     1      33.363  -8.135 -22.720  0.00  0.00    +0.099 C 
ATOM     15  C   UNL     1      32.195  -7.913 -21.762  0.00  0.00    +0.026 C 
BRANCH  14  17
ATOM     16  F   UNL     1      33.644  -4.189 -26.743  0.00  0.00    -0.204 F 
ATOM     17  C   UNL     1      33.438  -7.076 -23.798  0.00  0.00    -0.004 C 
ATOM     18  C   UNL     1      32.280  -6.675 -24.464  0.00  0.00    -0.000 C 
ATOM     19  C   UNL     1      34.666  -6.501 -24.128  0.00  0.00    -0.000 C 
ATOM     20  C   UNL     1      32.349  -5.699 -25.459  0.00  0.00    +0.029 C 
ATOM     21  C   UNL     1      34.735  -5.526 -25.122  0.00  0.00    +0.029 C 
ATOM     22  C   UNL     1      33.577  -5.125 -25.788  0.00  0.00    +0.140 C 
ENDBRANCH  14  17
ENDBRANCH   2  14
BRANCH   2  23
ATOM     23  C   UNL     1      32.043 -10.190 -23.084  0.00  0.00    +0.121 C 
BRANCH  23  24
ATOM     24  C   UNL     1      32.018 -10.910 -21.766  0.00  0.00    -0.002 C 
ATOM     25  C   UNL     1      32.389 -12.253 -21.699  0.00  0.00    +0.004 C 
ATOM     26  C   UNL     1      31.627 -10.235 -20.610  0.00  0.00    -0.003 C 
ATOM     27  C   UNL     1      32.367 -12.921 -20.474  0.00  0.00    +0.075 C 
ATOM     28  C   UNL     1      31.605 -10.904 -19.386  0.00  0.00    -0.000 C 
ATOM     29  C   UNL     1      31.975 -12.247 -19.318  0.00  0.00    +0.006 C 
BRANCH  27  31
ATOM     30  O   UNL     1      31.994 -15.262 -20.146  0.00  0.00    -0.245 OA
ATOM     31  C   UNL     1      32.753 -14.321 -20.403  0.00  0.00    +0.338 C 
BRANCH  31  32
ATOM     32  O   UNL     1      34.078 -14.509 -20.655  0.00  0.00    -0.477 OA
ATOM     33  H   UNL     1      34.463 -14.149 -21.429  0.00  0.00    +0.295 HD
ENDBRANCH  31  32
ENDBRANCH  27  31
ENDBRANCH  23  24
ENDBRANCH   2  23
TORSDOF 7
ENDMDL
MODEL 5
REMARK VINA RESULT:     -10.5     12.035     15.526
REMARK  Name = 60195662
REMARK  7 active torsions:
REMARK  status: ('A' for Active; 'I' for Inactive)
REMARK    1  A    between atoms: N_2  and  C_14
REMARK    2  A    between atoms: N_2  and  C_23
REMARK    3  A    between atoms: C_3  and  C_5
REMARK    4  A    between atoms: C_14  and  C_17
REMARK    5  A    between atoms: C_23  and  C_24
REMARK    6  A    between atoms: C_27  and  C_31
REMARK    7  A    between atoms: C_31  and  O_32
REMARK                            x       y       z     vdW  Elec       q    Type
REMARK                         _______ _______ _______ _____ _____    ______ ____
ROOT
ATOM      1  O   UNL     1      35.368  -9.608 -24.139  0.00  0.00    -0.270 OA
ATOM      2  N   UNL     1      33.196  -9.698 -23.278  0.00  0.00    -0.270 N 
ATOM      3  C   UNL     1      34.302 -10.220 -23.976  0.00  0.00    +0.251 C 
ENDROOT
BRANCH   3   5
ATOM      4  N   UNL     1      33.563 -12.938 -26.426  0.00  0.00    -0.248 NA
ATOM      5  C   UNL     1      34.206 -11.545 -24.561  0.00  0.00    +0.072 C 
ATOM      6  C   UNL     1      34.636 -12.670 -23.872  0.00  0.00    +0.003 C 
ATOM      7  C   UNL     1      34.532 -13.938 -24.459  0.00  0.00    -0.004 C 
ATOM      8  C   UNL     1      33.681 -11.732 -25.824  0.00  0.00    +0.103 C 
ATOM      9  C   UNL     1      33.982 -14.027 -25.754  0.00  0.00    +0.060 C 
ATOM     10  C   UNL     1      34.959 -15.096 -23.787  0.00  0.00    +0.053 C 
ATOM     11  C   UNL     1      33.878 -15.288 -26.336  0.00  0.00    +0.071 C 
ATOM     12  C   UNL     1      34.844 -16.345 -24.393  0.00  0.00    -0.026 C 
ATOM     13  C   UNL     1      34.303 -16.440 -25.670  0.00  0.00    -0.024 C 
ENDBRANCH   3   5
BRANCH   2  14
ATOM     14  C   UNL     1      33.213  -8.366 -22.676  0.00  0.00    +0.099 C 
ATOM     15  C   UNL     1      32.004  -8.188 -21.760  0.00  0.00    +0.026 C 
BRANCH  14  17
ATOM     16  F   UNL     1      33.572  -4.330 -26.602  0.00  0.00    -0.204 F 
ATOM     17  C   UNL     1      33.309  -7.283 -23.728  0.00  0.00    -0.004 C 
ATOM     18  C   UNL     1      32.176  -6.911 -24.451  0.00  0.00    -0.000 C 
ATOM     19  C   UNL     1      34.532  -6.658 -23.976  0.00  0.00    -0.000 C 
ATOM     20  C   UNL     1      32.264  -5.913 -25.422  0.00  0.00    +0.029 C 
ATOM     21  C   UNL     1      34.620  -5.660 -24.947  0.00  0.00    +0.029 C 
ATOM     22  C   UNL     1      33.487  -5.287 -25.670  0.00  0.00    +0.140 C 
ENDBRANCH  14  17
ENDBRANCH   2  14
BRANCH   2  23
ATOM     23  C   UNL     1      31.961 -10.450 -23.110  0.00  0.00    +0.121 C 
BRANCH  23  24
ATOM     24  C   UNL     1      32.031 -11.393 -21.943  0.00  0.00    -0.002 C 
ATOM     25  C   UNL     1      31.916 -10.901 -20.643  0.00  0.00    +0.004 C 
ATOM     26  C   UNL     1      32.209 -12.759 -22.159  0.00  0.00    -0.003 C 
ATOM     27  C   UNL     1      31.980 -11.777 -19.558  0.00  0.00    +0.075 C 
ATOM     28  C   UNL     1      32.273 -13.634 -21.075  0.00  0.00    -0.000 C 
ATOM     29  C   UNL     1      32.158 -13.143 -19.774  0.00  0.00    +0.006 C 
BRANCH  27  31
ATOM     30  O   UNL     1      31.457 -11.908 -17.227  0.00  0.00    -0.245 OA
ATOM     31  C   UNL     1      31.860 -11.265 -18.203  0.00  0.00    +0.338 C 
BRANCH  31  32
ATOM     32  O   UNL     1      32.246  -9.963 -18.101  0.00  0.00    -0.477 OA
ATOM     33  H   UNL     1      32.568  -9.633 -17.285  0.00  0.00    +0.295 HD
ENDBRANCH  31  32
ENDBRANCH  27  31
ENDBRANCH  23  24
ENDBRANCH   2  23
TORSDOF 7
ENDMDL
MODEL 6
REMARK VINA RESULT:     -10.1      2.874      6.178
REMARK  Name = 60195662
REMARK  7 active torsions:
REMARK  status: ('A' for Active; 'I' for Inactive)
REMARK    1  A    between atoms: N_2  and  C_14
REMARK    2  A    between atoms: N_2  and  C_23
REMARK    3  A    between atoms: C_3  and  C_5
REMARK    4  A    between atoms: C_14  and  C_17
REMARK    5  A    between atoms: C_23  and  C_24
REMARK    6  A    between atoms: C_27  and  C_31
REMARK    7  A    between atoms: C_31  and  O_32
REMARK                            x       y       z     vdW  Elec       q    Type
REMARK                         _______ _______ _______ _____ _____    ______ ____
ROOT
ATOM      1  O   UNL     1      37.363 -22.485 -15.473  0.00  0.00    -0.270 OA
ATOM      2  N   UNL     1      35.536 -23.930 -15.676  0.00  0.00    -0.270 N 
ATOM      3  C   UNL     1      36.385 -22.895 -16.115  0.00  0.00    +0.251 C 
ENDROOT
BRANCH   3   5
ATOM      4  N   UNL     1      36.927 -21.049 -19.313  0.00  0.00    -0.248 NA
ATOM      5  C   UNL     1      36.108 -22.246 -17.383  0.00  0.00    +0.072 C 
ATOM      6  C   UNL     1      34.819 -22.182 -17.893  0.00  0.00    +0.003 C 
ATOM      7  C   UNL     1      34.578 -21.550 -19.120  0.00  0.00    -0.004 C 
ATOM      8  C   UNL     1      37.117 -21.668 -18.126  0.00  0.00    +0.103 C 
ATOM      9  C   UNL     1      35.675 -20.990 -19.806  0.00  0.00    +0.060 C 
ATOM     10  C   UNL     1      33.284 -21.469 -19.664  0.00  0.00    +0.053 C 
ATOM     11  C   UNL     1      35.434 -20.361 -21.025  0.00  0.00    +0.071 C 
ATOM     12  C   UNL     1      33.072 -20.835 -20.885  0.00  0.00    -0.026 C 
ATOM     13  C   UNL     1      34.149 -20.280 -21.566  0.00  0.00    -0.024 C 
ENDBRANCH   3   5
BRANCH   2  14
ATOM     14  C   UNL     1      35.742 -24.619 -14.404  0.00  0.00    +0.099 C 
ATOM     15  C   UNL     1      35.356 -23.706 -13.242  0.00  0.00    +0.026 C 
BRANCH  14  17
ATOM     16  F   UNL     1      41.012 -26.585 -13.952  0.00  0.00    -0.204 F 
ATOM     17  C   UNL     1      37.155 -25.147 -14.282  0.00  0.00    -0.004 C 
ATOM     18  C   UNL     1      37.980 -24.700 -13.249  0.00  0.00    -0.000 C 
ATOM     19  C   UNL     1      37.634 -26.079 -15.204  0.00  0.00    -0.000 C 
ATOM     20  C   UNL     1      39.283 -25.186 -13.137  0.00  0.00    +0.029 C 
ATOM     21  C   UNL     1      38.936 -26.565 -15.091  0.00  0.00    +0.029 C 
ATOM     22  C   UNL     1      39.761 -26.118 -14.059  0.00  0.00    +0.140 C 
ENDBRANCH  14  17
ENDBRANCH   2  14
BRANCH   2  23
ATOM     23  C   UNL     1      34.396 -24.381 -16.460  0.00  0.00    +0.121 C 
BRANCH  23  24
ATOM     24  C   UNL     1      33.111 -24.296 -15.686  0.00  0.00    -0.002 C 
ATOM     25  C   UNL     1      32.062 -23.511 -16.163  0.00  0.00    +0.004 C 
ATOM     26  C   UNL     1      32.968 -25.003 -14.492  0.00  0.00    -0.003 C 
ATOM     27  C   UNL     1      30.868 -23.432 -15.444  0.00  0.00    +0.075 C 
ATOM     28  C   UNL     1      31.775 -24.924 -13.775  0.00  0.00    -0.000 C 
ATOM     29  C   UNL     1      30.725 -24.139 -14.250  0.00  0.00    +0.006 C 
BRANCH  27  31
ATOM     30  O   UNL     1      28.936 -22.037 -15.240  0.00  0.00    -0.245 OA
ATOM     31  C   UNL     1      29.773 -22.615 -15.941  0.00  0.00    +0.338 C 
BRANCH  31  32
ATOM     32  O   UNL     1      29.753 -22.540 -17.300  0.00  0.00    -0.477 OA
ATOM     33  H   UNL     1      29.993 -21.742 -17.729  0.00  0.00    +0.295 HD
ENDBRANCH  31  32
ENDBRANCH  27  31
ENDBRANCH  23  24
ENDBRANCH   2  23
TORSDOF 7
ENDMDL
MODEL 7
REMARK VINA RESULT:      -9.7      2.416      6.070
REMARK  Name = 60195662
REMARK  7 active torsions:
REMARK  status: ('A' for Active; 'I' for Inactive)
REMARK    1  A    between atoms: N_2  and  C_14
REMARK    2  A    between atoms: N_2  and  C_23
REMARK    3  A    between atoms: C_3  and  C_5
REMARK    4  A    between atoms: C_14  and  C_17
REMARK    5  A    between atoms: C_23  and  C_24
REMARK    6  A    between atoms: C_27  and  C_31
REMARK    7  A    between atoms: C_31  and  O_32
REMARK                            x       y       z     vdW  Elec       q    Type
REMARK                         _______ _______ _______ _____ _____    ______ ____
ROOT
ATOM      1  O   UNL     1      34.364 -23.522 -19.036  0.00  0.00    -0.270 OA
ATOM      2  N   UNL     1      35.565 -22.541 -17.287  0.00  0.00    -0.270 N 
ATOM      3  C   UNL     1      34.456 -23.211 -17.840  0.00  0.00    +0.251 C 
ENDROOT
BRANCH   3   5
ATOM      4  N   UNL     1      32.511 -24.707 -15.027  0.00  0.00    -0.248 NA
ATOM      5  C   UNL     1      33.337 -23.553 -16.980  0.00  0.00    +0.072 C 
ATOM      6  C   UNL     1      32.057 -23.090 -17.246  0.00  0.00    +0.003 C 
ATOM      7  C   UNL     1      30.994 -23.434 -16.400  0.00  0.00    -0.004 C 
ATOM      8  C   UNL     1      33.510 -24.352 -15.868  0.00  0.00    +0.103 C 
ATOM      9  C   UNL     1      31.270 -24.256 -15.288  0.00  0.00    +0.060 C 
ATOM     10  C   UNL     1      29.685 -22.981 -16.642  0.00  0.00    +0.053 C 
ATOM     11  C   UNL     1      30.213 -24.598 -14.448  0.00  0.00    +0.071 C 
ATOM     12  C   UNL     1      28.647 -23.339 -15.785  0.00  0.00    -0.026 C 
ATOM     13  C   UNL     1      28.911 -24.148 -14.687  0.00  0.00    -0.024 C 
ENDBRANCH   3   5
BRANCH   2  14
ATOM     14  C   UNL     1      36.720 -22.150 -18.092  0.00  0.00    +0.099 C 
ATOM     15  C   UNL     1      37.771 -21.478 -17.212  0.00  0.00    +0.026 C 
BRANCH  14  17
ATOM     16  F   UNL     1      35.193 -18.942 -22.476  0.00  0.00    -0.204 F 
ATOM     17  C   UNL     1      36.310 -21.289 -19.267  0.00  0.00    -0.004 C 
ATOM     18  C   UNL     1      34.976 -21.251 -19.673  0.00  0.00    -0.000 C 
ATOM     19  C   UNL     1      37.268 -20.534 -19.946  0.00  0.00    -0.000 C 
ATOM     20  C   UNL     1      34.598 -20.458 -20.756  0.00  0.00    +0.029 C 
ATOM     21  C   UNL     1      36.890 -19.741 -21.030  0.00  0.00    +0.029 C 
ATOM     22  C   UNL     1      35.556 -19.703 -21.435  0.00  0.00    +0.140 C 
ENDBRANCH  14  17
ENDBRANCH   2  14
BRANCH   2  23
ATOM     23  C   UNL     1      35.633 -22.192 -15.875  0.00  0.00    +0.121 C 
BRANCH  23  24
ATOM     24  C   UNL     1      36.405 -23.208 -15.082  0.00  0.00    -0.002 C 
ATOM     25  C   UNL     1      36.622 -24.482 -15.606  0.00  0.00    +0.004 C 
ATOM     26  C   UNL     1      36.904 -22.877 -13.823  0.00  0.00    -0.003 C 
ATOM     27  C   UNL     1      37.340 -25.426 -14.870  0.00  0.00    +0.075 C 
ATOM     28  C   UNL     1      37.622 -23.820 -13.087  0.00  0.00    -0.000 C 
ATOM     29  C   UNL     1      37.839 -25.095 -13.611  0.00  0.00    +0.006 C 
BRANCH  27  31
ATOM     30  O   UNL     1      36.850 -27.318 -16.249  0.00  0.00    -0.245 OA
ATOM     31  C   UNL     1      37.567 -26.754 -15.416  0.00  0.00    +0.338 C 
BRANCH  31  32
ATOM     32  O   UNL     1      38.685 -27.342 -14.909  0.00  0.00    -0.477 OA
ATOM     33  H   UNL     1      38.670 -28.247 -14.667  0.00  0.00    +0.295 HD
ENDBRANCH  31  32
ENDBRANCH  27  31
ENDBRANCH  23  24
ENDBRANCH   2  23
TORSDOF 7
ENDMDL
MODEL 8
REMARK VINA RESULT:      -9.6      2.691      6.317
REMARK  Name = 60195662
REMARK  7 active torsions:
REMARK  status: ('A' for Active; 'I' for Inactive)
REMARK    1  A    between atoms: N_2  and  C_14
REMARK    2  A    between atoms: N_2  and  C_23
REMARK    3  A    between atoms: C_3  and  C_5
REMARK    4  A    between atoms: C_14  and  C_17
REMARK    5  A    between atoms: C_23  and  C_24
REMARK    6  A    between atoms: C_27  and  C_31
REMARK    7  A    between atoms: C_31  and  O_32
REMARK                            x       y       z     vdW  Elec       q    Type
REMARK                         _______ _______ _______ _____ _____    ______ ____
ROOT
ATOM      1  O   UNL     1      34.507 -23.491 -19.109  0.00  0.00    -0.270 OA
ATOM      2  N   UNL     1      35.680 -22.401 -17.406  0.00  0.00    -0.270 N 
ATOM      3  C   UNL     1      34.608 -23.156 -17.920  0.00  0.00    +0.251 C 
ENDROOT
BRANCH   3   5
ATOM      4  N   UNL     1      32.833 -24.826 -15.093  0.00  0.00    -0.248 NA
ATOM      5  C   UNL     1      33.539 -23.565 -17.026  0.00  0.00    +0.072 C 
ATOM      6  C   UNL     1      32.238 -23.122 -17.211  0.00  0.00    +0.003 C 
ATOM      7  C   UNL     1      31.224 -23.530 -16.333  0.00  0.00    -0.004 C 
ATOM      8  C   UNL     1      33.782 -24.409 -15.962  0.00  0.00    +0.103 C 
ATOM      9  C   UNL     1      31.570 -24.394 -15.275  0.00  0.00    +0.060 C 
ATOM     10  C   UNL     1      29.896 -23.098 -16.493  0.00  0.00    +0.053 C 
ATOM     11  C   UNL     1      30.562 -24.800 -14.404  0.00  0.00    +0.071 C 
ATOM     12  C   UNL     1      28.907 -23.520 -15.607  0.00  0.00    -0.026 C 
ATOM     13  C   UNL     1      29.242 -24.372 -14.561  0.00  0.00    -0.024 C 
ENDBRANCH   3   5
BRANCH   2  14
ATOM     14  C   UNL     1      36.783 -21.941 -18.247  0.00  0.00    +0.099 C 
ATOM     15  C   UNL     1      37.801 -21.175 -17.405  0.00  0.00    +0.026 C 
BRANCH  14  17
ATOM     16  F   UNL     1      34.915 -18.941 -22.645  0.00  0.00    -0.204 F 
ATOM     17  C   UNL     1      36.282 -21.137 -19.427  0.00  0.00    -0.004 C 
ATOM     18  C   UNL     1      37.168 -20.347 -20.160  0.00  0.00    -0.000 C 
ATOM     19  C   UNL     1      34.933 -21.185 -19.782  0.00  0.00    -0.000 C 
ATOM     20  C   UNL     1      36.707 -19.606 -21.247  0.00  0.00    +0.029 C 
ATOM     21  C   UNL     1      34.472 -20.444 -20.869  0.00  0.00    +0.029 C 
ATOM     22  C   UNL     1      35.358 -19.654 -21.602  0.00  0.00    +0.140 C 
ENDBRANCH  14  17
ENDBRANCH   2  14
BRANCH   2  23
ATOM     23  C   UNL     1      35.760 -22.028 -16.001  0.00  0.00    +0.121 C 
BRANCH  23  24
ATOM     24  C   UNL     1      36.462 -23.073 -15.181  0.00  0.00    -0.002 C 
ATOM     25  C   UNL     1      36.028 -23.349 -13.885  0.00  0.00    +0.004 C 
ATOM     26  C   UNL     1      37.547 -23.767 -15.716  0.00  0.00    -0.003 C 
ATOM     27  C   UNL     1      36.679 -24.320 -13.123  0.00  0.00    +0.075 C 
ATOM     28  C   UNL     1      38.198 -24.738 -14.955  0.00  0.00    -0.000 C 
ATOM     29  C   UNL     1      37.764 -25.015 -13.659  0.00  0.00    +0.006 C 
BRANCH  27  31
ATOM     30  O   UNL     1      36.868 -24.389 -10.739  0.00  0.00    -0.245 OA
ATOM     31  C   UNL     1      36.226 -24.609 -11.772  0.00  0.00    +0.338 C 
BRANCH  31  32
ATOM     32  O   UNL     1      34.984 -25.165 -11.747  0.00  0.00    -0.477 OA
ATOM     33  H   UNL     1      34.495 -25.256 -12.541  0.00  0.00    +0.295 HD
ENDBRANCH  31  32
ENDBRANCH  27  31
ENDBRANCH  23  24
ENDBRANCH   2  23
TORSDOF 7
ENDMDL
MODEL 9
REMARK VINA RESULT:      -9.3      2.867      7.921
REMARK  Name = 60195662
REMARK  7 active torsions:
REMARK  status: ('A' for Active; 'I' for Inactive)
REMARK    1  A    between atoms: N_2  and  C_14
REMARK    2  A    between atoms: N_2  and  C_23
REMARK    3  A    between atoms: C_3  and  C_5
REMARK    4  A    between atoms: C_14  and  C_17
REMARK    5  A    between atoms: C_23  and  C_24
REMARK    6  A    between atoms: C_27  and  C_31
REMARK    7  A    between atoms: C_31  and  O_32
REMARK                            x       y       z     vdW  Elec       q    Type
REMARK                         _______ _______ _______ _____ _____    ______ ____
ROOT
ATOM      1  O   UNL     1      36.073 -23.815 -17.645  0.00  0.00    -0.270 OA
ATOM      2  N   UNL     1      33.980 -23.026 -16.962  0.00  0.00    -0.270 N 
ATOM      3  C   UNL     1      35.318 -23.414 -16.748  0.00  0.00    +0.251 C 
ENDROOT
BRANCH   3   5
ATOM      4  N   UNL     1      37.559 -22.556 -13.889  0.00  0.00    -0.248 NA
ATOM      5  C   UNL     1      35.860 -23.363 -15.402  0.00  0.00    +0.072 C 
ATOM      6  C   UNL     1      35.248 -24.035 -14.354  0.00  0.00    +0.003 C 
ATOM      7  C   UNL     1      35.791 -23.970 -13.064  0.00  0.00    -0.004 C 
ATOM      8  C   UNL     1      37.003 -22.645 -15.119  0.00  0.00    +0.103 C 
ATOM      9  C   UNL     1      36.963 -23.209 -12.874  0.00  0.00    +0.060 C 
ATOM     10  C   UNL     1      35.195 -24.639 -11.981  0.00  0.00    +0.053 C 
ATOM     11  C   UNL     1      37.502 -23.146 -11.592  0.00  0.00    +0.071 C 
ATOM     12  C   UNL     1      35.756 -24.558 -10.708  0.00  0.00    -0.026 C 
ATOM     13  C   UNL     1      36.911 -23.811 -10.514  0.00  0.00    -0.024 C 
ENDBRANCH   3   5
BRANCH   2  14
ATOM     14  C   UNL     1      33.361 -23.065 -18.285  0.00  0.00    +0.099 C 
ATOM     15  C   UNL     1      33.457 -24.473 -18.870  0.00  0.00    +0.026 C 
BRANCH  14  17
ATOM     16  F   UNL     1      35.549 -19.150 -21.709  0.00  0.00    -0.204 F 
ATOM     17  C   UNL     1      33.948 -22.014 -19.203  0.00  0.00    -0.004 C 
ATOM     18  C   UNL     1      33.107 -21.127 -19.875  0.00  0.00    -0.000 C 
ATOM     19  C   UNL     1      35.330 -21.934 -19.378  0.00  0.00    -0.000 C 
ATOM     20  C   UNL     1      33.648 -20.159 -20.722  0.00  0.00    +0.029 C 
ATOM     21  C   UNL     1      35.871 -20.966 -20.225  0.00  0.00    +0.029 C 
ATOM     22  C   UNL     1      35.030 -20.079 -20.897  0.00  0.00    +0.140 C 
ENDBRANCH  14  17
ENDBRANCH   2  14
BRANCH   2  23
ATOM     23  C   UNL     1      33.126 -22.561 -15.879  0.00  0.00    +0.121 C 
BRANCH  23  24
ATOM     24  C   UNL     1      31.833 -23.323 -15.816  0.00  0.00    -0.002 C 
ATOM     25  C   UNL     1      30.713 -22.852 -16.501  0.00  0.00    +0.004 C 
ATOM     26  C   UNL     1      31.754 -24.501 -15.075  0.00  0.00    -0.003 C 
ATOM     27  C   UNL     1      29.512 -23.560 -16.443  0.00  0.00    +0.075 C 
ATOM     28  C   UNL     1      30.553 -25.209 -15.017  0.00  0.00    -0.000 C 
ATOM     29  C   UNL     1      29.433 -24.739 -15.702  0.00  0.00    +0.006 C 
BRANCH  27  31
ATOM     30  O   UNL     1      27.882 -21.928 -17.075  0.00  0.00    -0.245 OA
ATOM     31  C   UNL     1      28.345 -23.071 -17.158  0.00  0.00    +0.338 C 
BRANCH  31  32
ATOM     32  O   UNL     1      27.786 -24.020 -17.956  0.00  0.00    -0.477 OA
ATOM     33  H   UNL     1      28.180 -24.868 -18.023  0.00  0.00    +0.295 HD
ENDBRANCH  31  32
ENDBRANCH  27  31
ENDBRANCH  23  24
ENDBRANCH   2  23
TORSDOF 7
ENDMDL
