MODEL 1
REMARK VINA RESULT:     -12.9      0.000      0.000
REMARK  Name = 9800765
REMARK  5 active torsions:
REMARK  status: ('A' for Active; 'I' for Inactive)
REMARK    1  A    between atoms: C_3  and  C_17
REMARK    2  A    between atoms: C_5  and  N_8
REMARK    3  A    between atoms: N_8  and  C_14
REMARK    4  A    between atoms: C_17  and  C_20
REMARK    5  A    between atoms: C_23  and  C_26
REMARK                            x       y       z     vdW  Elec       q    Type
REMARK                         _______ _______ _______ _____ _____    ______ ____
ROOT
ATOM      1  O   UNL     1      36.762 -22.773 -16.102  0.00  0.00    -0.337 OA
ATOM      2  N   UNL     1      36.044 -22.758 -17.291  0.00  0.00    -0.079 NA
ATOM      3  C   UNL     1      34.796 -23.085 -16.946  0.00  0.00    +0.106 C 
ATOM      4  C   UNL     1      34.668 -23.316 -15.565  0.00  0.00    +0.076 C 
ATOM      5  C   UNL     1      35.928 -23.106 -15.091  0.00  0.00    +0.252 C 
ENDROOT
BRANCH   3   6
ATOM      6  C   UNL     1      33.746 -23.165 -17.974  0.00  0.00    +0.066 C 
ATOM      7  C   UNL     1      32.308 -23.078 -17.408  0.00  0.00    +0.011 C 
BRANCH   6   9
ATOM      8  F   UNL     1      36.974 -20.789 -20.724  0.00  0.00    -0.204 F 
ATOM      9  C   UNL     1      34.077 -22.124 -19.049  0.00  0.00    -0.015 C 
ATOM     10  C   UNL     1      35.393 -21.934 -19.396  0.00  0.00    +0.026 C 
ATOM     11  C   UNL     1      33.044 -21.421 -19.623  0.00  0.00    -0.004 C 
ATOM     12  C   UNL     1      34.671 -20.256 -20.976  0.00  0.00    +0.027 C 
ATOM     13  C   UNL     1      35.695 -20.987 -20.374  0.00  0.00    +0.140 C 
ATOM     14  C   UNL     1      33.345 -20.473 -20.600  0.00  0.00    +0.002 C 
BRANCH  12  15
ATOM     15  C   UNL     1      34.978 -19.273 -21.993  0.00  0.00    +0.002 C 
ATOM     16  C   UNL     1      34.776 -19.578 -23.339  0.00  0.00    +0.000 C 
ATOM     17  C   UNL     1      35.474 -18.022 -21.627  0.00  0.00    +0.000 C 
ATOM     18  C   UNL     1      35.071 -18.630 -24.319  0.00  0.00    +0.000 C 
ATOM     19  C   UNL     1      35.769 -17.075 -22.608  0.00  0.00    +0.000 C 
ATOM     20  C   UNL     1      35.568 -17.379 -23.955  0.00  0.00    +0.000 C 
ENDBRANCH  12  15
ENDBRANCH   6   9
ENDBRANCH   3   6
BRANCH   5  21
ATOM     21  N   UNL     1      36.394 -23.191 -13.813  0.00  0.00    -0.147 NA
BRANCH  21  29
ATOM     22  O   UNL     1      39.321 -26.874 -14.856  0.00  0.00    -0.350 OA
ATOM     23  N   UNL     1      37.452 -25.228 -13.575  0.00  0.00    -0.277 N 
ATOM     24  N   UNL     1      35.566 -24.937 -12.360  0.00  0.00    -0.373 N 
ATOM     25  C   UNL     1      37.280 -26.678 -13.560  0.00  0.00    +0.125 C 
ATOM     26  C   UNL     1      38.827 -24.770 -13.753  0.00  0.00    +0.125 C 
ATOM     27  C   UNL     1      37.951 -27.277 -14.790  0.00  0.00    +0.164 C 
ATOM     28  C   UNL     1      39.430 -25.453 -14.975  0.00  0.00    +0.164 C 
ATOM     29  C   UNL     1      36.445 -24.379 -13.266  0.00  0.00    +0.182 C 
ATOM     30  H   UNL     1      35.719 -25.850 -12.024  0.00  0.00    +0.158 HD
ATOM     31  H   UNL     1      34.785 -24.424 -12.051  0.00  0.00    +0.158 HD
ENDBRANCH  21  29
ENDBRANCH   5  21
TORSDOF 5
ENDMDL
MODEL 2
REMARK VINA RESULT:     -12.0      1.538      2.322
REMARK  Name = 9800765
REMARK  5 active torsions:
REMARK  status: ('A' for Active; 'I' for Inactive)
REMARK    1  A    between atoms: C_3  and  C_17
REMARK    2  A    between atoms: C_5  and  N_8
REMARK    3  A    between atoms: N_8  and  C_14
REMARK    4  A    between atoms: C_17  and  C_20
REMARK    5  A    between atoms: C_23  and  C_26
REMARK                            x       y       z     vdW  Elec       q    Type
REMARK                         _______ _______ _______ _____ _____    ______ ____
ROOT
ATOM      1  O   UNL     1      37.576 -21.678 -17.123  0.00  0.00    -0.337 OA
ATOM      2  N   UNL     1      36.730 -21.579 -18.220  0.00  0.00    -0.079 NA
ATOM      3  C   UNL     1      35.726 -22.421 -17.959  0.00  0.00    +0.106 C 
ATOM      4  C   UNL     1      35.883 -23.072 -16.724  0.00  0.00    +0.076 C 
ATOM      5  C   UNL     1      37.056 -22.567 -16.247  0.00  0.00    +0.252 C 
ENDROOT
BRANCH   3   6
ATOM      6  C   UNL     1      34.626 -22.574 -18.926  0.00  0.00    +0.066 C 
ATOM      7  C   UNL     1      33.232 -22.714 -18.267  0.00  0.00    +0.011 C 
BRANCH   6   9
ATOM      8  F   UNL     1      37.327 -19.574 -21.633  0.00  0.00    -0.204 F 
ATOM      9  C   UNL     1      34.746 -21.433 -19.941  0.00  0.00    -0.015 C 
ATOM     10  C   UNL     1      36.001 -21.024 -20.324  0.00  0.00    +0.026 C 
ATOM     11  C   UNL     1      33.593 -20.863 -20.428  0.00  0.00    -0.004 C 
ATOM     12  C   UNL     1      34.960 -19.385 -21.762  0.00  0.00    +0.027 C 
ATOM     13  C   UNL     1      36.110 -19.985 -21.249  0.00  0.00    +0.140 C 
ATOM     14  C   UNL     1      33.702 -19.824 -21.352  0.00  0.00    +0.002 C 
BRANCH  12  15
ATOM     15  C   UNL     1      35.068 -18.308 -22.722  0.00  0.00    +0.002 C 
ATOM     16  C   UNL     1      35.342 -17.011 -22.286  0.00  0.00    +0.000 C 
ATOM     17  C   UNL     1      34.899 -18.566 -24.082  0.00  0.00    +0.000 C 
ATOM     18  C   UNL     1      35.447 -15.973 -23.211  0.00  0.00    +0.000 C 
ATOM     19  C   UNL     1      35.004 -17.526 -25.007  0.00  0.00    +0.000 C 
ATOM     20  C   UNL     1      35.278 -16.229 -24.572  0.00  0.00    +0.000 C 
ENDBRANCH  12  15
ENDBRANCH   6   9
ENDBRANCH   3   6
BRANCH   5  21
ATOM     21  N   UNL     1      37.703 -22.843 -15.080  0.00  0.00    -0.147 NA
BRANCH  21  29
ATOM     22  O   UNL     1      36.458 -25.875 -11.548  0.00  0.00    -0.350 OA
ATOM     23  N   UNL     1      37.501 -24.833 -13.929  0.00  0.00    -0.277 N 
ATOM     24  N   UNL     1      39.082 -24.774 -15.544  0.00  0.00    -0.373 N 
ATOM     25  C   UNL     1      38.216 -25.890 -13.218  0.00  0.00    +0.125 C 
ATOM     26  C   UNL     1      36.063 -24.782 -13.677  0.00  0.00    +0.125 C 
ATOM     27  C   UNL     1      37.874 -25.820 -11.735  0.00  0.00    +0.164 C 
ATOM     28  C   UNL     1      35.816 -24.761 -12.174  0.00  0.00    +0.164 C 
ATOM     29  C   UNL     1      38.092 -24.078 -14.882  0.00  0.00    +0.182 C 
ATOM     30  H   UNL     1      39.279 -25.706 -15.296  0.00  0.00    +0.158 HD
ATOM     31  H   UNL     1      39.594 -24.339 -16.264  0.00  0.00    +0.158 HD
ENDBRANCH  21  29
ENDBRANCH   5  21
TORSDOF 5
ENDMDL
MODEL 3
REMARK VINA RESULT:     -11.9     10.408     14.124
REMARK  Name = 9800765
REMARK  5 active torsions:
REMARK  status: ('A' for Active; 'I' for Inactive)
REMARK    1  A    between atoms: C_3  and  C_17
REMARK    2  A    between atoms: C_5  and  N_8
REMARK    3  A    between atoms: N_8  and  C_14
REMARK    4  A    between atoms: C_17  and  C_20
REMARK    5  A    between atoms: C_23  and  C_26
REMARK                            x       y       z     vdW  Elec       q    Type
REMARK                         _______ _______ _______ _____ _____    ______ ____
ROOT
ATOM      1  O   UNL     1      32.607 -12.846 -20.655  0.00  0.00    -0.337 OA
ATOM      2  N   UNL     1      32.309 -11.660 -19.996  0.00  0.00    -0.079 NA
ATOM      3  C   UNL     1      31.978 -10.800 -20.963  0.00  0.00    +0.106 C 
ATOM      4  C   UNL     1      32.048 -11.382 -22.241  0.00  0.00    +0.076 C 
ATOM      5  C   UNL     1      32.446 -12.661 -21.985  0.00  0.00    +0.252 C 
ENDROOT
BRANCH   3   6
ATOM      6  C   UNL     1      31.597  -9.421 -20.621  0.00  0.00    +0.066 C 
ATOM      7  C   UNL     1      31.965  -9.012 -19.174  0.00  0.00    +0.011 C 
BRANCH   6   9
ATOM      8  F   UNL     1      31.323  -7.424 -25.044  0.00  0.00    -0.204 F 
ATOM      9  C   UNL     1      32.162  -8.504 -21.711  0.00  0.00    -0.015 C 
ATOM     10  C   UNL     1      31.471  -8.385 -22.893  0.00  0.00    +0.026 C 
ATOM     11  C   UNL     1      33.340  -7.838 -21.464  0.00  0.00    -0.004 C 
ATOM     12  C   UNL     1      33.178  -6.861 -23.666  0.00  0.00    +0.027 C 
ATOM     13  C   UNL     1      31.986  -7.551 -23.885  0.00  0.00    +0.140 C 
ATOM     14  C   UNL     1      33.855  -7.005 -22.456  0.00  0.00    +0.002 C 
BRANCH  12  15
ATOM     15  C   UNL     1      33.715  -5.994 -24.692  0.00  0.00    +0.002 C 
ATOM     16  C   UNL     1      33.009  -4.855 -25.081  0.00  0.00    +0.000 C 
ATOM     17  C   UNL     1      34.938  -6.295 -25.291  0.00  0.00    +0.000 C 
ATOM     18  C   UNL     1      33.527  -4.017 -26.069  0.00  0.00    +0.000 C 
ATOM     19  C   UNL     1      35.456  -5.456 -26.279  0.00  0.00    +0.000 C 
ATOM     20  C   UNL     1      34.750  -4.318 -26.669  0.00  0.00    +0.000 C 
ENDBRANCH  12  15
ENDBRANCH   6   9
ENDBRANCH   3   6
BRANCH   5  21
ATOM     21  N   UNL     1      32.679 -13.683 -22.856  0.00  0.00    -0.147 NA
BRANCH  21  29
ATOM     22  O   UNL     1      34.732 -16.431 -26.239  0.00  0.00    -0.350 OA
ATOM     23  N   UNL     1      34.345 -14.801 -23.995  0.00  0.00    -0.277 N 
ATOM     24  N   UNL     1      34.818 -14.214 -21.863  0.00  0.00    -0.373 N 
ATOM     25  C   UNL     1      35.310 -15.895 -23.946  0.00  0.00    +0.125 C 
ATOM     26  C   UNL     1      34.067 -14.282 -25.332  0.00  0.00    +0.125 C 
ATOM     27  C   UNL     1      34.892 -16.981 -24.930  0.00  0.00    +0.164 C 
ATOM     28  C   UNL     1      33.702 -15.439 -26.255  0.00  0.00    +0.164 C 
ATOM     29  C   UNL     1      33.883 -14.195 -22.878  0.00  0.00    +0.182 C 
ATOM     30  H   UNL     1      35.696 -14.637 -22.010  0.00  0.00    +0.158 HD
ATOM     31  H   UNL     1      34.609 -13.805 -20.992  0.00  0.00    +0.158 HD
ENDBRANCH  21  29
ENDBRANCH   5  21
TORSDOF 5
ENDMDL
MODEL 4
REMARK VINA RESULT:     -11.8      3.784      6.985
REMARK  Name = 9800765
REMARK  5 active torsions:
REMARK  status: ('A' for Active; 'I' for Inactive)
REMARK    1  A    between atoms: C_3  and  C_17
REMARK    2  A    between atoms: C_5  and  N_8
REMARK    3  A    between atoms: N_8  and  C_14
REMARK    4  A    between atoms: C_17  and  C_20
REMARK    5  A    between atoms: C_23  and  C_26
REMARK                            x       y       z     vdW  Elec       q    Type
REMARK                         _______ _______ _______ _____ _____    ______ ____
ROOT
ATOM      1  O   UNL     1      36.275 -19.444 -20.738  0.00  0.00    -0.337 OA
ATOM      2  N   UNL     1      36.605 -18.699 -21.863  0.00  0.00    -0.079 NA
ATOM      3  C   UNL     1      35.619 -18.932 -22.734  0.00  0.00    +0.106 C 
ATOM      4  C   UNL     1      34.648 -19.807 -22.218  0.00  0.00    +0.076 C 
ATOM      5  C   UNL     1      35.111 -20.093 -20.968  0.00  0.00    +0.252 C 
ENDROOT
BRANCH   3   6
ATOM      6  C   UNL     1      35.643 -18.291 -24.058  0.00  0.00    +0.066 C 
ATOM      7  C   UNL     1      34.935 -19.114 -25.163  0.00  0.00    +0.011 C 
BRANCH   6   9
ATOM      8  F   UNL     1      34.929 -14.338 -21.322  0.00  0.00    -0.204 F 
ATOM      9  C   UNL     1      35.118 -16.862 -23.886  0.00  0.00    -0.015 C 
ATOM     10  C   UNL     1      35.268 -16.250 -22.665  0.00  0.00    +0.026 C 
ATOM     11  C   UNL     1      34.516 -16.249 -24.960  0.00  0.00    -0.004 C 
ATOM     12  C   UNL     1      34.175 -14.299 -23.577  0.00  0.00    +0.027 C 
ATOM     13  C   UNL     1      34.790 -14.949 -22.508  0.00  0.00    +0.140 C 
ATOM     14  C   UNL     1      34.038 -14.948 -24.803  0.00  0.00    +0.002 C 
BRANCH  12  15
ATOM     15  C   UNL     1      33.679 -12.948 -23.419  0.00  0.00    +0.002 C 
ATOM     16  C   UNL     1      34.206 -11.917 -24.198  0.00  0.00    +0.000 C 
ATOM     17  C   UNL     1      32.675 -12.677 -22.491  0.00  0.00    +0.000 C 
ATOM     18  C   UNL     1      33.728 -10.616 -24.048  0.00  0.00    +0.000 C 
ATOM     19  C   UNL     1      32.196 -11.375 -22.341  0.00  0.00    +0.000 C 
ATOM     20  C   UNL     1      32.723 -10.344 -23.119  0.00  0.00    +0.000 C 
ENDBRANCH  12  15
ENDBRANCH   6   9
ENDBRANCH   3   6
BRANCH   5  21
ATOM     21  N   UNL     1      34.569 -20.897 -20.010  0.00  0.00    -0.147 NA
BRANCH  21  29
ATOM     22  O   UNL     1      33.642 -23.622 -16.146  0.00  0.00    -0.350 OA
ATOM     23  N   UNL     1      34.907 -22.486 -18.372  0.00  0.00    -0.277 N 
ATOM     24  N   UNL     1      36.759 -21.749 -19.440  0.00  0.00    -0.373 N 
ATOM     25  C   UNL     1      35.690 -22.852 -17.194  0.00  0.00    +0.125 C 
ATOM     26  C   UNL     1      33.660 -23.226 -18.539  0.00  0.00    +0.125 C 
ATOM     27  C   UNL     1      34.797 -22.800 -15.960  0.00  0.00    +0.164 C 
ATOM     28  C   UNL     1      32.856 -23.157 -17.246  0.00  0.00    +0.164 C 
ATOM     29  C   UNL     1      35.387 -21.658 -19.327  0.00  0.00    +0.182 C 
ATOM     30  H   UNL     1      37.262 -22.366 -18.860  0.00  0.00    +0.158 HD
ATOM     31  H   UNL     1      37.237 -21.197 -20.101  0.00  0.00    +0.158 HD
ENDBRANCH  21  29
ENDBRANCH   5  21
TORSDOF 5
ENDMDL
MODEL 5
REMARK VINA RESULT:     -11.8      1.599      2.455
REMARK  Name = 9800765
REMARK  5 active torsions:
REMARK  status: ('A' for Active; 'I' for Inactive)
REMARK    1  A    between atoms: C_3  and  C_17
REMARK    2  A    between atoms: C_5  and  N_8
REMARK    3  A    between atoms: N_8  and  C_14
REMARK    4  A    between atoms: C_17  and  C_20
REMARK    5  A    between atoms: C_23  and  C_26
REMARK                            x       y       z     vdW  Elec       q    Type
REMARK                         _______ _______ _______ _____ _____    ______ ____
ROOT
ATOM      1  O   UNL     1      36.068 -23.367 -15.661  0.00  0.00    -0.337 OA
ATOM      2  N   UNL     1      35.105 -22.705 -16.412  0.00  0.00    -0.079 NA
ATOM      3  C   UNL     1      34.305 -23.670 -16.875  0.00  0.00    +0.106 C 
ATOM      4  C   UNL     1      34.710 -24.947 -16.452  0.00  0.00    +0.076 C 
ATOM      5  C   UNL     1      35.816 -24.695 -15.697  0.00  0.00    +0.252 C 
ENDROOT
BRANCH   3   6
ATOM      6  C   UNL     1      33.153 -23.324 -17.724  0.00  0.00    +0.066 C 
ATOM      7  C   UNL     1      31.913 -22.844 -16.929  0.00  0.00    +0.011 C 
BRANCH   6   9
ATOM      8  F   UNL     1      36.723 -21.497 -20.470  0.00  0.00    -0.204 F 
ATOM      9  C   UNL     1      33.649 -22.345 -18.792  0.00  0.00    -0.015 C 
ATOM     10  C   UNL     1      34.978 -22.373 -19.143  0.00  0.00    +0.026 C 
ATOM     11  C   UNL     1      32.745 -21.476 -19.358  0.00  0.00    -0.004 C 
ATOM     12  C   UNL     1      34.539 -20.587 -20.710  0.00  0.00    +0.027 C 
ATOM     13  C   UNL     1      35.430 -21.482 -20.116  0.00  0.00    +0.140 C 
ATOM     14  C   UNL     1      33.197 -20.584 -20.330  0.00  0.00    +0.002 C 
BRANCH  12  15
ATOM     15  C   UNL     1      35.003 -19.662 -21.721  0.00  0.00    +0.002 C 
ATOM     16  C   UNL     1      35.860 -18.618 -21.369  0.00  0.00    +0.000 C 
ATOM     17  C   UNL     1      34.594 -19.812 -23.045  0.00  0.00    +0.000 C 
ATOM     18  C   UNL     1      36.308 -17.727 -22.343  0.00  0.00    +0.000 C 
ATOM     19  C   UNL     1      35.042 -18.920 -24.019  0.00  0.00    +0.000 C 
ATOM     20  C   UNL     1      35.899 -17.876 -23.669  0.00  0.00    +0.000 C 
ENDBRANCH  12  15
ENDBRANCH   6   9
ENDBRANCH   3   6
BRANCH   5  21
ATOM     21  N   UNL     1      36.625 -25.568 -15.033  0.00  0.00    -0.147 NA
BRANCH  21  29
ATOM     22  O   UNL     1      36.774 -23.915 -10.510  0.00  0.00    -0.350 OA
ATOM     23  N   UNL     1      37.534 -24.815 -13.051  0.00  0.00    -0.277 N 
ATOM     24  N   UNL     1      38.890 -24.740 -14.859  0.00  0.00    -0.373 N 
ATOM     25  C   UNL     1      38.283 -23.742 -12.401  0.00  0.00    +0.125 C 
ATOM     26  C   UNL     1      36.821 -25.709 -12.142  0.00  0.00    +0.125 C 
ATOM     27  C   UNL     1      37.365 -23.001 -11.436  0.00  0.00    +0.164 C 
ATOM     28  C   UNL     1      35.968 -24.881 -11.188  0.00  0.00    +0.164 C 
ATOM     29  C   UNL     1      37.641 -25.069 -14.374  0.00  0.00    +0.182 C 
ATOM     30  H   UNL     1      39.571 -24.368 -14.253  0.00  0.00    +0.158 HD
ATOM     31  H   UNL     1      39.101 -24.876 -15.811  0.00  0.00    +0.158 HD
ENDBRANCH  21  29
ENDBRANCH   5  21
TORSDOF 5
ENDMDL
MODEL 6
REMARK VINA RESULT:     -11.6      8.867     12.647
REMARK  Name = 9800765
REMARK  5 active torsions:
REMARK  status: ('A' for Active; 'I' for Inactive)
REMARK    1  A    between atoms: C_3  and  C_17
REMARK    2  A    between atoms: C_5  and  N_8
REMARK    3  A    between atoms: N_8  and  C_14
REMARK    4  A    between atoms: C_17  and  C_20
REMARK    5  A    between atoms: C_23  and  C_26
REMARK                            x       y       z     vdW  Elec       q    Type
REMARK                         _______ _______ _______ _____ _____    ______ ____
ROOT
ATOM      1  O   UNL     1      33.029 -14.538 -20.698  0.00  0.00    -0.337 OA
ATOM      2  N   UNL     1      32.324 -13.650 -19.895  0.00  0.00    -0.079 NA
ATOM      3  C   UNL     1      32.157 -12.560 -20.649  0.00  0.00    +0.106 C 
ATOM      4  C   UNL     1      32.729 -12.702 -21.925  0.00  0.00    +0.076 C 
ATOM      5  C   UNL     1      33.259 -13.958 -21.897  0.00  0.00    +0.252 C 
ENDROOT
BRANCH   3   6
ATOM      6  C   UNL     1      31.437 -11.396 -20.108  0.00  0.00    +0.066 C 
ATOM      7  C   UNL     1      31.643 -11.185 -18.588  0.00  0.00    +0.011 C 
BRANCH   6   9
ATOM      8  F   UNL     1      33.396  -6.978 -20.628  0.00  0.00    -0.204 F 
ATOM      9  C   UNL     1      31.798 -10.188 -20.979  0.00  0.00    -0.015 C 
ATOM     10  C   UNL     1      32.440  -9.125 -20.393  0.00  0.00    +0.026 C 
ATOM     11  C   UNL     1      31.464 -10.217 -22.313  0.00  0.00    -0.004 C 
ATOM     12  C   UNL     1      32.445  -8.021 -22.541  0.00  0.00    +0.027 C 
ATOM     13  C   UNL     1      32.769  -8.025 -21.185  0.00  0.00    +0.140 C 
ATOM     14  C   UNL     1      31.793  -9.117 -23.105  0.00  0.00    +0.002 C 
BRANCH  12  15
ATOM     15  C   UNL     1      32.786  -6.884 -23.368  0.00  0.00    +0.002 C 
ATOM     16  C   UNL     1      34.022  -6.837 -24.013  0.00  0.00    +0.000 C 
ATOM     17  C   UNL     1      31.879  -5.835 -23.521  0.00  0.00    +0.000 C 
ATOM     18  C   UNL     1      34.350  -5.741 -24.811  0.00  0.00    +0.000 C 
ATOM     19  C   UNL     1      32.208  -4.740 -24.319  0.00  0.00    +0.000 C 
ATOM     20  C   UNL     1      33.444  -4.692 -24.964  0.00  0.00    +0.000 C 
ENDBRANCH  12  15
ENDBRANCH   6   9
ENDBRANCH   3   6
BRANCH   5  21
ATOM     21  N   UNL     1      33.939 -14.629 -22.869  0.00  0.00    -0.147 NA
BRANCH  21  29
ATOM     22  O   UNL     1      35.008 -18.736 -25.150  0.00  0.00    -0.350 OA
ATOM     23  N   UNL     1      35.047 -16.596 -23.344  0.00  0.00    -0.277 N 
ATOM     24  N   UNL     1      35.353 -15.759 -21.266  0.00  0.00    -0.373 N 
ATOM     25  C   UNL     1      35.351 -17.949 -22.883  0.00  0.00    +0.125 C 
ATOM     26  C   UNL     1      35.293 -16.359 -24.764  0.00  0.00    +0.125 C 
ATOM     27  C   UNL     1      34.650 -18.958 -23.784  0.00  0.00    +0.164 C 
ATOM     28  C   UNL     1      34.595 -17.438 -25.583  0.00  0.00    +0.164 C 
ATOM     29  C   UNL     1      34.737 -15.595 -22.490  0.00  0.00    +0.182 C 
ATOM     30  H   UNL     1      35.934 -16.538 -21.107  0.00  0.00    +0.158 HD
ATOM     31  H   UNL     1      35.210 -15.098 -20.550  0.00  0.00    +0.158 HD
ENDBRANCH  21  29
ENDBRANCH   5  21
TORSDOF 5
ENDMDL
MODEL 7
REMARK VINA RESULT:     -11.5      1.427      2.137
REMARK  Name = 9800765
REMARK  5 active torsions:
REMARK  status: ('A' for Active; 'I' for Inactive)
REMARK    1  A    between atoms: C_3  and  C_17
REMARK    2  A    between atoms: C_5  and  N_8
REMARK    3  A    between atoms: N_8  and  C_14
REMARK    4  A    between atoms: C_17  and  C_20
REMARK    5  A    between atoms: C_23  and  C_26
REMARK                            x       y       z     vdW  Elec       q    Type
REMARK                         _______ _______ _______ _____ _____    ______ ____
ROOT
ATOM      1  O   UNL     1      34.459 -23.646 -14.507  0.00  0.00    -0.337 OA
ATOM      2  N   UNL     1      33.319 -23.651 -15.300  0.00  0.00    -0.079 NA
ATOM      3  C   UNL     1      33.743 -23.297 -16.517  0.00  0.00    +0.106 C 
ATOM      4  C   UNL     1      35.128 -23.059 -16.550  0.00  0.00    +0.076 C 
ATOM      5  C   UNL     1      35.521 -23.293 -15.266  0.00  0.00    +0.252 C 
ENDROOT
BRANCH   3   6
ATOM      6  C   UNL     1      32.784 -23.198 -17.628  0.00  0.00    +0.066 C 
ATOM      7  C   UNL     1      31.363 -22.766 -17.191  0.00  0.00    +0.011 C 
BRANCH   6   9
ATOM      8  F   UNL     1      36.611 -21.895 -20.328  0.00  0.00    -0.204 F 
ATOM      9  C   UNL     1      33.421 -22.314 -18.706  0.00  0.00    -0.015 C 
ATOM     10  C   UNL     1      34.742 -22.516 -19.024  0.00  0.00    +0.026 C 
ATOM     11  C   UNL     1      32.644 -21.353 -19.311  0.00  0.00    -0.004 C 
ATOM     12  C   UNL     1      34.562 -20.727 -20.638  0.00  0.00    +0.027 C 
ATOM     13  C   UNL     1      35.322 -21.711 -20.005  0.00  0.00    +0.140 C 
ATOM     14  C   UNL     1      33.224 -20.548 -20.291  0.00  0.00    +0.002 C 
BRANCH  12  15
ATOM     15  C   UNL     1      35.159 -19.891 -21.658  0.00  0.00    +0.002 C 
ATOM     16  C   UNL     1      36.340 -19.198 -21.387  0.00  0.00    +0.000 C 
ATOM     17  C   UNL     1      34.555 -19.778 -22.909  0.00  0.00    +0.000 C 
ATOM     18  C   UNL     1      36.916 -18.393 -22.369  0.00  0.00    +0.000 C 
ATOM     19  C   UNL     1      35.131 -18.972 -23.891  0.00  0.00    +0.000 C 
ATOM     20  C   UNL     1      36.311 -18.278 -23.621  0.00  0.00    +0.000 C 
ENDBRANCH  12  15
ENDBRANCH   6   9
ENDBRANCH   3   6
BRANCH   5  21
ATOM     21  N   UNL     1      36.766 -23.215 -14.717  0.00  0.00    -0.147 NA
BRANCH  21  29
ATOM     22  O   UNL     1      39.839 -26.924 -14.600  0.00  0.00    -0.350 OA
ATOM     23  N   UNL     1      38.434 -24.644 -15.421  0.00  0.00    -0.277 N 
ATOM     24  N   UNL     1      38.343 -22.635 -16.455  0.00  0.00    -0.373 N 
ATOM     25  C   UNL     1      39.857 -24.776 -15.725  0.00  0.00    +0.125 C 
ATOM     26  C   UNL     1      37.726 -25.906 -15.220  0.00  0.00    +0.125 C 
ATOM     27  C   UNL     1      40.515 -25.668 -14.679  0.00  0.00    +0.164 C 
ATOM     28  C   UNL     1      38.478 -26.747 -14.196  0.00  0.00    +0.164 C 
ATOM     29  C   UNL     1      37.787 -23.460 -15.498  0.00  0.00    +0.182 C 
ATOM     30  H   UNL     1      39.119 -22.942 -16.979  0.00  0.00    +0.158 HD
ATOM     31  H   UNL     1      37.966 -21.740 -16.613  0.00  0.00    +0.158 HD
ENDBRANCH  21  29
ENDBRANCH   5  21
TORSDOF 5
ENDMDL
MODEL 8
REMARK VINA RESULT:     -11.5     10.651     14.734
REMARK  Name = 9800765
REMARK  5 active torsions:
REMARK  status: ('A' for Active; 'I' for Inactive)
REMARK    1  A    between atoms: C_3  and  C_17
REMARK    2  A    between atoms: C_5  and  N_8
REMARK    3  A    between atoms: N_8  and  C_14
REMARK    4  A    between atoms: C_17  and  C_20
REMARK    5  A    between atoms: C_23  and  C_26
REMARK                            x       y       z     vdW  Elec       q    Type
REMARK                         _______ _______ _______ _____ _____    ______ ____
ROOT
ATOM      1  O   UNL     1      33.307 -11.646 -23.645  0.00  0.00    -0.337 OA
ATOM      2  N   UNL     1      33.078 -10.305 -23.366  0.00  0.00    -0.079 NA
ATOM      3  C   UNL     1      32.333 -10.304 -22.257  0.00  0.00    +0.106 C 
ATOM      4  C   UNL     1      32.064 -11.604 -21.795  0.00  0.00    +0.076 C 
ATOM      5  C   UNL     1      32.698 -12.400 -22.702  0.00  0.00    +0.252 C 
ENDROOT
BRANCH   3   6
ATOM      6  C   UNL     1      31.897  -9.029 -21.665  0.00  0.00    +0.066 C 
ATOM      7  C   UNL     1      32.462  -8.774 -20.246  0.00  0.00    +0.011 C 
BRANCH   6   9
ATOM      8  F   UNL     1      35.015  -5.998 -23.838  0.00  0.00    -0.204 F 
ATOM      9  C   UNL     1      32.197  -7.925 -22.684  0.00  0.00    -0.015 C 
ATOM     10  C   UNL     1      33.487  -7.464 -22.792  0.00  0.00    +0.026 C 
ATOM     11  C   UNL     1      31.163  -7.438 -23.449  0.00  0.00    -0.004 C 
ATOM     12  C   UNL     1      32.735  -5.944 -24.512  0.00  0.00    +0.027 C 
ATOM     13  C   UNL     1      33.760  -6.459 -23.720  0.00  0.00    +0.140 C 
ATOM     14  C   UNL     1      31.436  -6.433 -24.376  0.00  0.00    +0.002 C 
BRANCH  12  15
ATOM     15  C   UNL     1      33.013  -4.902 -25.477  0.00  0.00    +0.002 C 
ATOM     16  C   UNL     1      32.565  -3.601 -25.245  0.00  0.00    +0.000 C 
ATOM     17  C   UNL     1      33.729  -5.197 -26.636  0.00  0.00    +0.000 C 
ATOM     18  C   UNL     1      32.834  -2.596 -26.174  0.00  0.00    +0.000 C 
ATOM     19  C   UNL     1      33.998  -4.191 -27.565  0.00  0.00    +0.000 C 
ATOM     20  C   UNL     1      33.550  -2.891 -27.335  0.00  0.00    +0.000 C 
ENDBRANCH  12  15
ENDBRANCH   6   9
ENDBRANCH   3   6
BRANCH   5  21
ATOM     21  N   UNL     1      32.774 -13.760 -22.752  0.00  0.00    -0.147 NA
BRANCH  21  29
ATOM     22  O   UNL     1      34.793 -16.631 -26.053  0.00  0.00    -0.350 OA
ATOM     23  N   UNL     1      34.425 -14.940 -23.851  0.00  0.00    -0.277 N 
ATOM     24  N   UNL     1      34.895 -14.313 -21.730  0.00  0.00    -0.373 N 
ATOM     25  C   UNL     1      35.366 -16.053 -23.769  0.00  0.00    +0.125 C 
ATOM     26  C   UNL     1      34.168 -14.447 -25.202  0.00  0.00    +0.125 C 
ATOM     27  C   UNL     1      34.932 -17.153 -24.730  0.00  0.00    +0.164 C 
ATOM     28  C   UNL     1      33.786 -15.617 -26.100  0.00  0.00    +0.164 C 
ATOM     29  C   UNL     1      33.968 -14.299 -22.752  0.00  0.00    +0.182 C 
ATOM     30  H   UNL     1      35.764 -14.758 -21.859  0.00  0.00    +0.158 HD
ATOM     31  H   UNL     1      34.687 -13.880 -20.870  0.00  0.00    +0.158 HD
ENDBRANCH  21  29
ENDBRANCH   5  21
TORSDOF 5
ENDMDL
MODEL 9
REMARK VINA RESULT:     -11.2      4.662      7.947
REMARK  Name = 9800765
REMARK  5 active torsions:
REMARK  status: ('A' for Active; 'I' for Inactive)
REMARK    1  A    between atoms: C_3  and  C_17
REMARK    2  A    between atoms: C_5  and  N_8
REMARK    3  A    between atoms: N_8  and  C_14
REMARK    4  A    between atoms: C_17  and  C_20
REMARK    5  A    between atoms: C_23  and  C_26
REMARK                            x       y       z     vdW  Elec       q    Type
REMARK                         _______ _______ _______ _____ _____    ______ ____
ROOT
ATOM      1  O   UNL     1      35.973 -18.353 -21.190  0.00  0.00    -0.337 OA
ATOM      2  N   UNL     1      36.139 -17.445 -22.228  0.00  0.00    -0.079 NA
ATOM      3  C   UNL     1      35.366 -17.904 -23.216  0.00  0.00    +0.106 C 
ATOM      4  C   UNL     1      34.696 -19.088 -22.863  0.00  0.00    +0.076 C 
ATOM      5  C   UNL     1      35.114 -19.319 -21.586  0.00  0.00    +0.252 C 
ENDROOT
BRANCH   3   6
ATOM      6  C   UNL     1      35.296 -17.175 -24.493  0.00  0.00    +0.066 C 
ATOM      7  C   UNL     1      34.518 -17.928 -25.600  0.00  0.00    +0.011 C 
BRANCH   6   9
ATOM      8  F   UNL     1      33.095 -13.073 -25.892  0.00  0.00    -0.204 F 
ATOM      9  C   UNL     1      34.777 -15.766 -24.188  0.00  0.00    -0.015 C 
ATOM     10  C   UNL     1      34.166 -15.059 -25.196  0.00  0.00    +0.026 C 
ATOM     11  C   UNL     1      34.943 -15.265 -22.918  0.00  0.00    -0.004 C 
ATOM     12  C   UNL     1      33.846 -13.239 -23.641  0.00  0.00    +0.027 C 
ATOM     13  C   UNL     1      33.693 -13.777 -24.919  0.00  0.00    +0.140 C 
ATOM     14  C   UNL     1      34.471 -13.983 -22.641  0.00  0.00    +0.002 C 
BRANCH  12  15
ATOM     15  C   UNL     1      33.356 -11.909 -23.348  0.00  0.00    +0.002 C 
ATOM     16  C   UNL     1      32.352 -11.731 -22.395  0.00  0.00    +0.000 C 
ATOM     17  C   UNL     1      33.886 -10.806 -24.017  0.00  0.00    +0.000 C 
ATOM     18  C   UNL     1      31.880 -10.450 -22.111  0.00  0.00    +0.000 C 
ATOM     19  C   UNL     1      33.413  -9.525 -23.732  0.00  0.00    +0.000 C 
ATOM     20  C   UNL     1      32.409  -9.346 -22.780  0.00  0.00    +0.000 C 
ENDBRANCH  12  15
ENDBRANCH   6   9
ENDBRANCH   3   6
BRANCH   5  21
ATOM     21  N   UNL     1      34.784 -20.337 -20.741  0.00  0.00    -0.147 NA
BRANCH  21  29
ATOM     22  O   UNL     1      34.549 -23.519 -17.131  0.00  0.00    -0.350 OA
ATOM     23  N   UNL     1      35.495 -21.939 -19.241  0.00  0.00    -0.277 N 
ATOM     24  N   UNL     1      37.117 -20.710 -20.227  0.00  0.00    -0.373 N 
ATOM     25  C   UNL     1      36.354 -22.215 -18.092  0.00  0.00    +0.125 C 
ATOM     26  C   UNL     1      34.448 -22.928 -19.481  0.00  0.00    +0.125 C 
ATOM     27  C   UNL     1      35.487 -22.473 -16.866  0.00  0.00    +0.164 C 
ATOM     28  C   UNL     1      33.665 -23.155 -18.194  0.00  0.00    +0.164 C 
ATOM     29  C   UNL     1      35.762 -20.945 -20.118  0.00  0.00    +0.182 C 
ATOM     30  H   UNL     1      37.754 -21.242 -19.697  0.00  0.00    +0.158 HD
ATOM     31  H   UNL     1      37.449 -20.009 -20.834  0.00  0.00    +0.158 HD
ENDBRANCH  21  29
ENDBRANCH   5  21
TORSDOF 5
ENDMDL
