MODEL 1
REMARK VINA RESULT:     -11.0      0.000      0.000
REMARK  Name = 9562794
REMARK  7 active torsions:
REMARK  status: ('A' for Active; 'I' for Inactive)
REMARK    1  A    between atoms: N_1  and  C_2
REMARK    2  A    between atoms: N_1  and  N_16
REMARK    3  A    between atoms: C_2  and  C_5
REMARK    4  A    between atoms: C_6  and  O_13
REMARK    5  A    between atoms: C_17  and  C_19
REMARK    6  A    between atoms: C_22  and  O_25
REMARK    7  A    between atoms: C_23  and  O_27
REMARK                            x       y       z     vdW  Elec       q    Type
REMARK                         _______ _______ _______ _____ _____    ______ ____
ROOT
ATOM      1  N   UNL     1      37.333 -21.545 -17.171  0.00  0.00    -0.126 NA
ENDROOT
BRANCH   1   3
ATOM      2  O   UNL     1      38.745 -23.452 -15.809  0.00  0.00    -0.269 OA
ATOM      3  N   UNL     1      36.862 -22.125 -16.042  0.00  0.00    -0.228 N 
ATOM      4  C   UNL     1      37.642 -23.081 -15.417  0.00  0.00    +0.260 C 
ATOM      5  H   UNL     1      35.985 -21.872 -15.674  0.00  0.00    +0.171 HD
BRANCH   4   6
ATOM      6  C   UNL     1      37.058 -23.692 -14.195  0.00  0.00    +0.058 C 
ATOM      7  C   UNL     1      35.700 -23.932 -14.156  0.00  0.00    +0.044 C 
ATOM      8  C   UNL     1      37.891 -23.999 -13.141  0.00  0.00    +0.008 C 
ATOM      9  C   UNL     1      35.151 -24.505 -13.007  0.00  0.00    +0.168 C 
ATOM     10  C   UNL     1      35.972 -24.825 -11.927  0.00  0.00    +0.167 C 
ATOM     11  C   UNL     1      37.343 -24.572 -11.993  0.00  0.00    +0.040 C 
BRANCH   9  12
ATOM     12  O   UNL     1      33.811 -24.747 -12.954  0.00  0.00    -0.503 OA
ATOM     13  H   UNL     1      33.466 -25.547 -13.298  0.00  0.00    +0.292 HD
ENDBRANCH   9  12
BRANCH  10  14
ATOM     14  O   UNL     1      35.449 -25.384 -10.801  0.00  0.00    -0.503 OA
ATOM     15  H   UNL     1      34.854 -26.105 -10.870  0.00  0.00    +0.292 HD
ENDBRANCH  10  14
ENDBRANCH   4   6
ENDBRANCH   1   3
BRANCH   1  16
ATOM     16  C   UNL     1      36.985 -22.147 -18.268  0.00  0.00    +0.141 C 
BRANCH  16  19
ATOM     17  C   UNL     1      35.888 -20.788 -20.060  0.00  0.00    +0.000 C 
ATOM     18  C   UNL     1      34.717 -20.441 -20.776  0.00  0.00    -0.000 C 
ATOM     19  C   UNL     1      35.807 -21.750 -19.040  0.00  0.00    +0.031 C 
ATOM     20  C   UNL     1      34.591 -22.359 -18.730  0.00  0.00    +0.136 C 
ATOM     21  C   UNL     1      33.502 -21.064 -20.451  0.00  0.00    +0.003 C 
ATOM     22  C   UNL     1      37.103 -20.165 -20.386  0.00  0.00    -0.000 C 
ATOM     23  C   UNL     1      33.440 -22.017 -19.433  0.00  0.00    +0.037 C 
ATOM     24  C   UNL     1      34.797 -19.479 -21.796  0.00  0.00    -0.000 C 
ATOM     25  C   UNL     1      37.164 -19.212 -21.403  0.00  0.00    -0.000 C 
ATOM     26  C   UNL     1      36.013 -18.869 -22.107  0.00  0.00    -0.000 C 
BRANCH  20  27
ATOM     27  O   UNL     1      34.504 -23.294 -17.741  0.00  0.00    -0.472 OA
ATOM     28  C   UNL     1      33.243 -23.431 -17.088  0.00  0.00    +0.252 C 
ENDBRANCH  20  27
ENDBRANCH  16  19
ENDBRANCH   1  16
TORSDOF 7
ENDMDL
MODEL 2
REMARK VINA RESULT:     -10.7      3.845      8.902
REMARK  Name = 9562794
REMARK  7 active torsions:
REMARK  status: ('A' for Active; 'I' for Inactive)
REMARK    1  A    between atoms: N_1  and  C_2
REMARK    2  A    between atoms: N_1  and  N_16
REMARK    3  A    between atoms: C_2  and  C_5
REMARK    4  A    between atoms: C_6  and  O_13
REMARK    5  A    between atoms: C_17  and  C_19
REMARK    6  A    between atoms: C_22  and  O_25
REMARK    7  A    between atoms: C_23  and  O_27
REMARK                            x       y       z     vdW  Elec       q    Type
REMARK                         _______ _______ _______ _____ _____    ______ ____
ROOT
ATOM      1  N   UNL     1      36.615 -20.213 -19.902  0.00  0.00    -0.126 NA
ENDROOT
BRANCH   1   3
ATOM      2  O   UNL     1      37.891 -18.827 -21.886  0.00  0.00    -0.269 OA
ATOM      3  N   UNL     1      35.955 -19.710 -20.972  0.00  0.00    -0.228 N 
ATOM      4  C   UNL     1      36.679 -19.021 -21.928  0.00  0.00    +0.260 C 
ATOM      5  H   UNL     1      34.983 -19.832 -21.067  0.00  0.00    +0.171 HD
BRANCH   4   6
ATOM      6  C   UNL     1      35.892 -18.478 -23.065  0.00  0.00    +0.058 C 
ATOM      7  C   UNL     1      35.835 -17.110 -23.241  0.00  0.00    +0.044 C 
ATOM      8  C   UNL     1      35.245 -19.356 -23.908  0.00  0.00    +0.008 C 
ATOM      9  C   UNL     1      35.094 -16.599 -24.308  0.00  0.00    +0.168 C 
ATOM     10  C   UNL     1      34.430 -17.467 -25.175  0.00  0.00    +0.167 C 
ATOM     11  C   UNL     1      34.504 -18.845 -24.975  0.00  0.00    +0.040 C 
BRANCH   9  12
ATOM     12  O   UNL     1      35.028 -15.251 -24.493  0.00  0.00    -0.503 OA
ATOM     13  H   UNL     1      35.734 -14.705 -24.210  0.00  0.00    +0.292 HD
ENDBRANCH   9  12
BRANCH  10  14
ATOM     14  O   UNL     1      33.704 -16.980 -26.219  0.00  0.00    -0.503 OA
ATOM     15  H   UNL     1      33.981 -17.148 -27.099  0.00  0.00    +0.292 HD
ENDBRANCH  10  14
ENDBRANCH   4   6
ENDBRANCH   1   3
BRANCH   1  16
ATOM     16  C   UNL     1      36.479 -21.495 -19.742  0.00  0.00    +0.141 C 
BRANCH  16  19
ATOM     17  C   UNL     1      35.991 -22.459 -17.485  0.00  0.00    +0.000 C 
ATOM     18  C   UNL     1      35.057 -23.009 -16.575  0.00  0.00    -0.000 C 
ATOM     19  C   UNL     1      35.557 -22.069 -18.763  0.00  0.00    +0.031 C 
ATOM     20  C   UNL     1      34.222 -22.219 -19.137  0.00  0.00    +0.136 C 
ATOM     21  C   UNL     1      33.717 -23.153 -16.970  0.00  0.00    +0.003 C 
ATOM     22  C   UNL     1      37.331 -22.315 -17.091  0.00  0.00    -0.000 C 
ATOM     23  C   UNL     1      33.304 -22.761 -18.243  0.00  0.00    +0.037 C 
ATOM     24  C   UNL     1      35.491 -23.400 -15.299  0.00  0.00    -0.000 C 
ATOM     25  C   UNL     1      37.746 -22.708 -15.818  0.00  0.00    -0.000 C 
ATOM     26  C   UNL     1      36.827 -23.250 -14.923  0.00  0.00    -0.000 C 
BRANCH  20  27
ATOM     27  O   UNL     1      33.791 -21.843 -20.375  0.00  0.00    -0.472 OA
ATOM     28  C   UNL     1      32.982 -20.672 -20.451  0.00  0.00    +0.252 C 
ENDBRANCH  20  27
ENDBRANCH  16  19
ENDBRANCH   1  16
TORSDOF 7
ENDMDL
MODEL 3
REMARK VINA RESULT:     -10.3      5.140      8.030
REMARK  Name = 9562794
REMARK  7 active torsions:
REMARK  status: ('A' for Active; 'I' for Inactive)
REMARK    1  A    between atoms: N_1  and  C_2
REMARK    2  A    between atoms: N_1  and  N_16
REMARK    3  A    between atoms: C_2  and  C_5
REMARK    4  A    between atoms: C_6  and  O_13
REMARK    5  A    between atoms: C_17  and  C_19
REMARK    6  A    between atoms: C_22  and  O_25
REMARK    7  A    between atoms: C_23  and  O_27
REMARK                            x       y       z     vdW  Elec       q    Type
REMARK                         _______ _______ _______ _____ _____    ______ ____
ROOT
ATOM      1  N   UNL     1      35.342 -17.141 -22.229  0.00  0.00    -0.126 NA
ENDROOT
BRANCH   1   3
ATOM      2  O   UNL     1      34.741 -19.727 -22.887  0.00  0.00    -0.269 OA
ATOM      3  N   UNL     1      35.336 -18.137 -21.313  0.00  0.00    -0.228 N 
ATOM      4  C   UNL     1      35.020 -19.416 -21.732  0.00  0.00    +0.260 C 
ATOM      5  H   UNL     1      35.551 -17.956 -20.369  0.00  0.00    +0.171 HD
BRANCH   4   6
ATOM      6  C   UNL     1      35.010 -20.459 -20.674  0.00  0.00    +0.058 C 
ATOM      7  C   UNL     1      33.799 -20.973 -20.257  0.00  0.00    +0.044 C 
ATOM      8  C   UNL     1      36.210 -20.879 -20.142  0.00  0.00    +0.008 C 
ATOM      9  C   UNL     1      33.789 -21.951 -19.262  0.00  0.00    +0.168 C 
ATOM     10  C   UNL     1      34.990 -22.393 -18.707  0.00  0.00    +0.167 C 
ATOM     11  C   UNL     1      36.201 -21.857 -19.146  0.00  0.00    +0.040 C 
BRANCH   9  12
ATOM     12  O   UNL     1      32.601 -22.466 -18.841  0.00  0.00    -0.503 OA
ATOM     13  H   UNL     1      31.819 -21.954 -18.903  0.00  0.00    +0.292 HD
ENDBRANCH   9  12
BRANCH  10  14
ATOM     14  O   UNL     1      34.994 -23.347 -17.735  0.00  0.00    -0.503 OA
ATOM     15  H   UNL     1      34.240 -23.890 -17.610  0.00  0.00    +0.292 HD
ENDBRANCH  10  14
ENDBRANCH   4   6
ENDBRANCH   1   3
BRANCH   1  16
ATOM     16  C   UNL     1      35.156 -15.955 -21.733  0.00  0.00    +0.141 C 
BRANCH  16  19
ATOM     17  C   UNL     1      33.565 -14.027 -21.857  0.00  0.00    +0.000 C 
ATOM     18  C   UNL     1      32.942 -13.014 -22.624  0.00  0.00    -0.000 C 
ATOM     19  C   UNL     1      34.483 -14.891 -22.478  0.00  0.00    +0.031 C 
ATOM     20  C   UNL     1      34.781 -14.757 -23.834  0.00  0.00    +0.136 C 
ATOM     21  C   UNL     1      33.255 -12.895 -23.989  0.00  0.00    +0.003 C 
ATOM     22  C   UNL     1      33.253 -14.147 -20.494  0.00  0.00    -0.000 C 
ATOM     23  C   UNL     1      34.168 -13.762 -24.588  0.00  0.00    +0.037 C 
ATOM     24  C   UNL     1      32.024 -12.151 -22.005  0.00  0.00    -0.000 C 
ATOM     25  C   UNL     1      32.339 -13.280 -19.894  0.00  0.00    -0.000 C 
ATOM     26  C   UNL     1      31.725 -12.284 -20.648  0.00  0.00    -0.000 C 
BRANCH  20  27
ATOM     27  O   UNL     1      35.671 -15.591 -24.445  0.00  0.00    -0.472 OA
ATOM     28  C   UNL     1      35.168 -16.422 -25.488  0.00  0.00    +0.252 C 
ENDBRANCH  20  27
ENDBRANCH  16  19
ENDBRANCH   1  16
TORSDOF 7
ENDMDL
MODEL 4
REMARK VINA RESULT:     -10.2      3.247      8.374
REMARK  Name = 9562794
REMARK  7 active torsions:
REMARK  status: ('A' for Active; 'I' for Inactive)
REMARK    1  A    between atoms: N_1  and  C_2
REMARK    2  A    between atoms: N_1  and  N_16
REMARK    3  A    between atoms: C_2  and  C_5
REMARK    4  A    between atoms: C_6  and  O_13
REMARK    5  A    between atoms: C_17  and  C_19
REMARK    6  A    between atoms: C_22  and  O_25
REMARK    7  A    between atoms: C_23  and  O_27
REMARK                            x       y       z     vdW  Elec       q    Type
REMARK                         _______ _______ _______ _____ _____    ______ ____
ROOT
ATOM      1  N   UNL     1      33.137 -22.821 -19.065  0.00  0.00    -0.126 NA
ENDROOT
BRANCH   1   3
ATOM      2  O   UNL     1      32.674 -20.657 -20.673  0.00  0.00    -0.269 OA
ATOM      3  N   UNL     1      34.142 -22.109 -19.626  0.00  0.00    -0.228 N 
ATOM      4  C   UNL     1      33.818 -21.030 -20.427  0.00  0.00    +0.260 C 
ATOM      5  H   UNL     1      35.082 -22.354 -19.468  0.00  0.00    +0.171 HD
BRANCH   4   6
ATOM      6  C   UNL     1      34.966 -20.304 -21.029  0.00  0.00    +0.058 C 
ATOM      7  C   UNL     1      34.762 -19.575 -22.182  0.00  0.00    +0.044 C 
ATOM      8  C   UNL     1      36.199 -20.383 -20.416  0.00  0.00    +0.008 C 
ATOM      9  C   UNL     1      35.841 -18.895 -22.749  0.00  0.00    +0.168 C 
ATOM     10  C   UNL     1      37.098 -18.959 -22.149  0.00  0.00    +0.167 C 
ATOM     11  C   UNL     1      37.278 -19.703 -20.982  0.00  0.00    +0.040 C 
BRANCH   9  12
ATOM     12  O   UNL     1      35.653 -18.172 -23.888  0.00  0.00    -0.503 OA
ATOM     13  H   UNL     1      34.790 -18.060 -24.235  0.00  0.00    +0.292 HD
ENDBRANCH   9  12
BRANCH  10  14
ATOM     14  O   UNL     1      38.159 -18.299 -22.692  0.00  0.00    -0.503 OA
ATOM     15  H   UNL     1      38.988 -18.729 -22.767  0.00  0.00    +0.292 HD
ENDBRANCH  10  14
ENDBRANCH   4   6
ENDBRANCH   1   3
BRANCH   1  16
ATOM     16  C   UNL     1      32.836 -22.461 -17.853  0.00  0.00    +0.141 C 
BRANCH  16  19
ATOM     17  C   UNL     1      32.339 -23.810 -15.805  0.00  0.00    +0.000 C 
ATOM     18  C   UNL     1      32.809 -24.536 -14.685  0.00  0.00    -0.000 C 
ATOM     19  C   UNL     1      33.267 -23.222 -16.680  0.00  0.00    +0.031 C 
ATOM     20  C   UNL     1      34.638 -23.348 -16.454  0.00  0.00    +0.136 C 
ATOM     21  C   UNL     1      34.193 -24.652 -14.473  0.00  0.00    +0.003 C 
ATOM     22  C   UNL     1      30.956 -23.694 -16.018  0.00  0.00    -0.000 C 
ATOM     23  C   UNL     1      35.100 -24.061 -15.352  0.00  0.00    +0.037 C 
ATOM     24  C   UNL     1      31.882 -25.124 -13.809  0.00  0.00    -0.000 C 
ATOM     25  C   UNL     1      30.048 -24.285 -15.138  0.00  0.00    -0.000 C 
ATOM     26  C   UNL     1      30.510 -24.999 -14.035  0.00  0.00    -0.000 C 
BRANCH  20  27
ATOM     27  O   UNL     1      35.546 -22.780 -17.298  0.00  0.00    -0.472 OA
ATOM     28  C   UNL     1      36.790 -22.375 -16.733  0.00  0.00    +0.252 C 
ENDBRANCH  20  27
ENDBRANCH  16  19
ENDBRANCH   1  16
TORSDOF 7
ENDMDL
MODEL 5
REMARK VINA RESULT:     -10.1      1.445      1.968
REMARK  Name = 9562794
REMARK  7 active torsions:
REMARK  status: ('A' for Active; 'I' for Inactive)
REMARK    1  A    between atoms: N_1  and  C_2
REMARK    2  A    between atoms: N_1  and  N_16
REMARK    3  A    between atoms: C_2  and  C_5
REMARK    4  A    between atoms: C_6  and  O_13
REMARK    5  A    between atoms: C_17  and  C_19
REMARK    6  A    between atoms: C_22  and  O_25
REMARK    7  A    between atoms: C_23  and  O_27
REMARK                            x       y       z     vdW  Elec       q    Type
REMARK                         _______ _______ _______ _____ _____    ______ ____
ROOT
ATOM      1  N   UNL     1      37.264 -21.557 -17.570  0.00  0.00    -0.126 NA
ENDROOT
BRANCH   1   3
ATOM      2  O   UNL     1      35.557 -22.226 -15.539  0.00  0.00    -0.269 OA
ATOM      3  N   UNL     1      37.560 -22.518 -16.663  0.00  0.00    -0.228 N 
ATOM      4  C   UNL     1      36.640 -22.792 -15.669  0.00  0.00    +0.260 C 
ATOM      5  H   UNL     1      38.411 -23.011 -16.711  0.00  0.00    +0.171 HD
BRANCH   4   6
ATOM      6  C   UNL     1      37.035 -23.842 -14.694  0.00  0.00    +0.058 C 
ATOM      7  C   UNL     1      38.152 -24.608 -14.958  0.00  0.00    +0.044 C 
ATOM      8  C   UNL     1      36.272 -24.018 -13.559  0.00  0.00    +0.008 C 
ATOM      9  C   UNL     1      38.522 -25.595 -14.043  0.00  0.00    +0.168 C 
ATOM     10  C   UNL     1      37.767 -25.793 -12.887  0.00  0.00    +0.167 C 
ATOM     11  C   UNL     1      36.642 -25.005 -12.645  0.00  0.00    +0.040 C 
BRANCH   9  12
ATOM     12  O   UNL     1      39.622 -26.359 -14.291  0.00  0.00    -0.503 OA
ATOM     13  H   UNL     1      40.189 -26.606 -13.588  0.00  0.00    +0.292 HD
ENDBRANCH   9  12
BRANCH  10  14
ATOM     14  O   UNL     1      38.118 -26.754 -11.988  0.00  0.00    -0.503 OA
ATOM     15  H   UNL     1      37.598 -26.888 -11.220  0.00  0.00    +0.292 HD
ENDBRANCH  10  14
ENDBRANCH   4   6
ENDBRANCH   1   3
BRANCH   1  16
ATOM     16  C   UNL     1      36.949 -22.009 -18.746  0.00  0.00    +0.141 C 
BRANCH  16  19
ATOM     17  C   UNL     1      35.941 -20.472 -20.445  0.00  0.00    +0.000 C 
ATOM     18  C   UNL     1      34.798 -20.018 -21.145  0.00  0.00    -0.000 C 
ATOM     19  C   UNL     1      35.802 -21.501 -19.499  0.00  0.00    +0.031 C 
ATOM     20  C   UNL     1      34.554 -22.073 -19.247  0.00  0.00    +0.136 C 
ATOM     21  C   UNL     1      33.550 -20.605 -20.879  0.00  0.00    +0.003 C 
ATOM     22  C   UNL     1      37.188 -19.885 -20.710  0.00  0.00    -0.000 C 
ATOM     23  C   UNL     1      33.431 -21.625 -19.936  0.00  0.00    +0.037 C 
ATOM     24  C   UNL     1      34.937 -18.989 -22.090  0.00  0.00    -0.000 C 
ATOM     25  C   UNL     1      37.309 -18.864 -21.654  0.00  0.00    -0.000 C 
ATOM     26  C   UNL     1      36.185 -18.416 -22.343  0.00  0.00    -0.000 C 
BRANCH  20  27
ATOM     27  O   UNL     1      34.409 -23.072 -18.331  0.00  0.00    -0.472 OA
ATOM     28  C   UNL     1      33.114 -23.245 -17.761  0.00  0.00    +0.252 C 
ENDBRANCH  20  27
ENDBRANCH  16  19
ENDBRANCH   1  16
TORSDOF 7
ENDMDL
MODEL 6
REMARK VINA RESULT:     -10.0      9.566     13.251
REMARK  Name = 9562794
REMARK  7 active torsions:
REMARK  status: ('A' for Active; 'I' for Inactive)
REMARK    1  A    between atoms: N_1  and  C_2
REMARK    2  A    between atoms: N_1  and  N_16
REMARK    3  A    between atoms: C_2  and  C_5
REMARK    4  A    between atoms: C_6  and  O_13
REMARK    5  A    between atoms: C_17  and  C_19
REMARK    6  A    between atoms: C_22  and  O_25
REMARK    7  A    between atoms: C_23  and  O_27
REMARK                            x       y       z     vdW  Elec       q    Type
REMARK                         _______ _______ _______ _____ _____    ______ ____
ROOT
ATOM      1  N   UNL     1      34.217 -10.862 -24.480  0.00  0.00    -0.126 NA
ENDROOT
BRANCH   1   3
ATOM      2  O   UNL     1      33.583 -13.399 -25.283  0.00  0.00    -0.269 OA
ATOM      3  N   UNL     1      34.565 -11.956 -23.762  0.00  0.00    -0.228 N 
ATOM      4  C   UNL     1      34.203 -13.201 -24.242  0.00  0.00    +0.260 C 
ATOM      5  H   UNL     1      35.064 -11.867 -22.918  0.00  0.00    +0.171 HD
BRANCH   4   6
ATOM      6  C   UNL     1      34.597 -14.358 -23.397  0.00  0.00    +0.058 C 
ATOM      7  C   UNL     1      35.145 -15.469 -24.004  0.00  0.00    +0.044 C 
ATOM      8  C   UNL     1      34.400 -14.285 -22.034  0.00  0.00    +0.008 C 
ATOM      9  C   UNL     1      35.513 -16.557 -23.210  0.00  0.00    +0.168 C 
ATOM     10  C   UNL     1      35.325 -16.508 -21.829  0.00  0.00    +0.167 C 
ATOM     11  C   UNL     1      34.768 -15.372 -21.240  0.00  0.00    +0.040 C 
BRANCH   9  12
ATOM     12  O   UNL     1      36.055 -17.661 -23.796  0.00  0.00    -0.503 OA
ATOM     13  H   UNL     1      35.508 -18.260 -24.263  0.00  0.00    +0.292 HD
ENDBRANCH   9  12
BRANCH  10  14
ATOM     14  O   UNL     1      35.680 -17.563 -21.044  0.00  0.00    -0.503 OA
ATOM     15  H   UNL     1      35.599 -18.437 -21.371  0.00  0.00    +0.292 HD
ENDBRANCH  10  14
ENDBRANCH   4   6
ENDBRANCH   1   3
BRANCH   1  16
ATOM     16  C   UNL     1      33.100 -10.312 -24.111  0.00  0.00    +0.141 C 
BRANCH  16  19
ATOM     17  C   UNL     1      32.394 -10.048 -21.725  0.00  0.00    +0.000 C 
ATOM     18  C   UNL     1      32.306  -9.240 -20.566  0.00  0.00    -0.000 C 
ATOM     19  C   UNL     1      32.983  -9.521 -22.886  0.00  0.00    +0.031 C 
ATOM     20  C   UNL     1      33.477  -8.217 -22.904  0.00  0.00    +0.136 C 
ATOM     21  C   UNL     1      32.809  -7.929 -20.603  0.00  0.00    +0.003 C 
ATOM     22  C   UNL     1      31.891 -11.358 -21.688  0.00  0.00    -0.000 C 
ATOM     23  C   UNL     1      33.390  -7.422 -21.765  0.00  0.00    +0.037 C 
ATOM     24  C   UNL     1      31.716  -9.766 -19.406  0.00  0.00    -0.000 C 
ATOM     25  C   UNL     1      31.309 -11.866 -20.526  0.00  0.00    -0.000 C 
ATOM     26  C   UNL     1      31.221 -11.071 -19.386  0.00  0.00    -0.000 C 
BRANCH  20  27
ATOM     27  O   UNL     1      34.051  -7.697 -24.027  0.00  0.00    -0.472 OA
ATOM     28  C   UNL     1      34.239  -6.284 -24.063  0.00  0.00    +0.252 C 
ENDBRANCH  20  27
ENDBRANCH  16  19
ENDBRANCH   1  16
TORSDOF 7
ENDMDL
MODEL 7
REMARK VINA RESULT:      -9.8      3.461      8.113
REMARK  Name = 9562794
REMARK  7 active torsions:
REMARK  status: ('A' for Active; 'I' for Inactive)
REMARK    1  A    between atoms: N_1  and  C_2
REMARK    2  A    between atoms: N_1  and  N_16
REMARK    3  A    between atoms: C_2  and  C_5
REMARK    4  A    between atoms: C_6  and  O_13
REMARK    5  A    between atoms: C_17  and  C_19
REMARK    6  A    between atoms: C_22  and  O_25
REMARK    7  A    between atoms: C_23  and  O_27
REMARK                            x       y       z     vdW  Elec       q    Type
REMARK                         _______ _______ _______ _____ _____    ______ ____
ROOT
ATOM      1  N   UNL     1      33.068 -22.926 -18.858  0.00  0.00    -0.126 NA
ENDROOT
BRANCH   1   3
ATOM      2  O   UNL     1      32.608 -20.858 -20.588  0.00  0.00    -0.269 OA
ATOM      3  N   UNL     1      34.074 -22.212 -19.414  0.00  0.00    -0.228 N 
ATOM      4  C   UNL     1      33.752 -21.183 -20.279  0.00  0.00    +0.260 C 
ATOM      5  H   UNL     1      35.014 -22.420 -19.208  0.00  0.00    +0.171 HD
BRANCH   4   6
ATOM      6  C   UNL     1      34.902 -20.452 -20.871  0.00  0.00    +0.058 C 
ATOM      7  C   UNL     1      34.686 -19.655 -21.977  0.00  0.00    +0.044 C 
ATOM      8  C   UNL     1      36.147 -20.594 -20.297  0.00  0.00    +0.008 C 
ATOM      9  C   UNL     1      35.767 -18.970 -22.534  0.00  0.00    +0.168 C 
ATOM     10  C   UNL     1      37.037 -19.096 -21.972  0.00  0.00    +0.167 C 
ATOM     11  C   UNL     1      37.228 -19.908 -20.854  0.00  0.00    +0.040 C 
BRANCH   9  12
ATOM     12  O   UNL     1      35.568 -18.180 -23.626  0.00  0.00    -0.503 OA
ATOM     13  H   UNL     1      36.262 -18.050 -24.242  0.00  0.00    +0.292 HD
ENDBRANCH   9  12
BRANCH  10  14
ATOM     14  O   UNL     1      38.100 -18.433 -22.507  0.00  0.00    -0.503 OA
ATOM     15  H   UNL     1      38.007 -17.540 -22.775  0.00  0.00    +0.292 HD
ENDBRANCH  10  14
ENDBRANCH   4   6
ENDBRANCH   1   3
BRANCH   1  16
ATOM     16  C   UNL     1      32.419 -22.301 -17.923  0.00  0.00    +0.141 C 
BRANCH  16  19
ATOM     17  C   UNL     1      32.966 -23.406 -15.746  0.00  0.00    +0.000 C 
ATOM     18  C   UNL     1      32.523 -24.030 -14.555  0.00  0.00    -0.000 C 
ATOM     19  C   UNL     1      32.017 -22.953 -16.677  0.00  0.00    +0.031 C 
ATOM     20  C   UNL     1      30.652 -23.114 -16.438  0.00  0.00    +0.136 C 
ATOM     21  C   UNL     1      31.145 -24.184 -14.331  0.00  0.00    +0.003 C 
ATOM     22  C   UNL     1      34.343 -23.252 -15.969  0.00  0.00    -0.000 C 
ATOM     23  C   UNL     1      30.217 -23.729 -15.268  0.00  0.00    +0.037 C 
ATOM     24  C   UNL     1      33.471 -24.484 -13.624  0.00  0.00    -0.000 C 
ATOM     25  C   UNL     1      35.272 -23.708 -15.033  0.00  0.00    -0.000 C 
ATOM     26  C   UNL     1      34.837 -24.323 -13.862  0.00  0.00    -0.000 C 
BRANCH  20  27
ATOM     27  O   UNL     1      29.724 -22.677 -17.337  0.00  0.00    -0.472 OA
ATOM     28  C   UNL     1      28.374 -23.086 -17.124  0.00  0.00    +0.252 C 
ENDBRANCH  20  27
ENDBRANCH  16  19
ENDBRANCH   1  16
TORSDOF 7
ENDMDL
MODEL 8
REMARK VINA RESULT:      -9.7      3.460      6.208
REMARK  Name = 9562794
REMARK  7 active torsions:
REMARK  status: ('A' for Active; 'I' for Inactive)
REMARK    1  A    between atoms: N_1  and  C_2
REMARK    2  A    between atoms: N_1  and  N_16
REMARK    3  A    between atoms: C_2  and  C_5
REMARK    4  A    between atoms: C_6  and  O_13
REMARK    5  A    between atoms: C_17  and  C_19
REMARK    6  A    between atoms: C_22  and  O_25
REMARK    7  A    between atoms: C_23  and  O_27
REMARK                            x       y       z     vdW  Elec       q    Type
REMARK                         _______ _______ _______ _____ _____    ______ ____
ROOT
ATOM      1  N   UNL     1      33.960 -23.891 -14.494  0.00  0.00    -0.126 NA
ENDROOT
BRANCH   1   3
ATOM      2  O   UNL     1      31.791 -25.558 -14.533  0.00  0.00    -0.269 OA
ATOM      3  N   UNL     1      32.743 -23.485 -14.928  0.00  0.00    -0.228 N 
ATOM      4  C   UNL     1      31.702 -24.395 -14.914  0.00  0.00    +0.260 C 
ATOM      5  H   UNL     1      32.603 -22.564 -15.246  0.00  0.00    +0.171 HD
BRANCH   4   6
ATOM      6  C   UNL     1      30.399 -23.892 -15.423  0.00  0.00    +0.058 C 
ATOM      7  C   UNL     1      29.716 -24.643 -16.357  0.00  0.00    +0.044 C 
ATOM      8  C   UNL     1      29.916 -22.692 -14.945  0.00  0.00    +0.008 C 
ATOM      9  C   UNL     1      28.493 -24.170 -16.837  0.00  0.00    +0.168 C 
ATOM     10  C   UNL     1      27.982 -22.959 -16.370  0.00  0.00    +0.167 C 
ATOM     11  C   UNL     1      28.693 -22.220 -15.424  0.00  0.00    +0.040 C 
BRANCH   9  12
ATOM     12  O   UNL     1      27.808 -24.901 -17.760  0.00  0.00    -0.503 OA
ATOM     13  H   UNL     1      26.928 -25.167 -17.587  0.00  0.00    +0.292 HD
ENDBRANCH   9  12
BRANCH  10  14
ATOM     14  O   UNL     1      26.790 -22.488 -16.830  0.00  0.00    -0.503 OA
ATOM     15  H   UNL     1      26.396 -22.873 -17.587  0.00  0.00    +0.292 HD
ENDBRANCH  10  14
ENDBRANCH   4   6
ENDBRANCH   1   3
BRANCH   1  16
ATOM     16  C   UNL     1      34.736 -24.351 -15.428  0.00  0.00    +0.141 C 
BRANCH  16  19
ATOM     17  C   UNL     1      35.276 -22.886 -17.384  0.00  0.00    +0.000 C 
ATOM     18  C   UNL     1      36.205 -22.065 -18.067  0.00  0.00    -0.000 C 
ATOM     19  C   UNL     1      35.656 -23.493 -16.175  0.00  0.00    +0.031 C 
ATOM     20  C   UNL     1      36.932 -23.294 -15.649  0.00  0.00    +0.136 C 
ATOM     21  C   UNL     1      37.486 -21.876 -17.522  0.00  0.00    +0.003 C 
ATOM     22  C   UNL     1      33.996 -23.075 -17.928  0.00  0.00    -0.000 C 
ATOM     23  C   UNL     1      37.846 -22.488 -16.321  0.00  0.00    +0.037 C 
ATOM     24  C   UNL     1      35.826 -21.459 -19.275  0.00  0.00    -0.000 C 
ATOM     25  C   UNL     1      33.636 -22.465 -19.130  0.00  0.00    -0.000 C 
ATOM     26  C   UNL     1      34.549 -21.658 -19.803  0.00  0.00    -0.000 C 
BRANCH  20  27
ATOM     27  O   UNL     1      37.310 -23.879 -14.476  0.00  0.00    -0.472 OA
ATOM     28  C   UNL     1      38.216 -24.977 -14.563  0.00  0.00    +0.252 C 
ENDBRANCH  20  27
ENDBRANCH  16  19
ENDBRANCH   1  16
TORSDOF 7
ENDMDL
MODEL 9
REMARK VINA RESULT:      -9.6      9.632     13.702
REMARK  Name = 9562794
REMARK  7 active torsions:
REMARK  status: ('A' for Active; 'I' for Inactive)
REMARK    1  A    between atoms: N_1  and  C_2
REMARK    2  A    between atoms: N_1  and  N_16
REMARK    3  A    between atoms: C_2  and  C_5
REMARK    4  A    between atoms: C_6  and  O_13
REMARK    5  A    between atoms: C_17  and  C_19
REMARK    6  A    between atoms: C_22  and  O_25
REMARK    7  A    between atoms: C_23  and  O_27
REMARK                            x       y       z     vdW  Elec       q    Type
REMARK                         _______ _______ _______ _____ _____    ______ ____
ROOT
ATOM      1  N   UNL     1      33.005 -12.948 -22.932  0.00  0.00    -0.126 NA
ENDROOT
BRANCH   1   3
ATOM      2  O   UNL     1      31.207 -11.605 -21.368  0.00  0.00    -0.269 OA
ATOM      3  N   UNL     1      33.019 -11.600 -22.810  0.00  0.00    -0.228 N 
ATOM      4  C   UNL     1      32.072 -11.003 -21.998  0.00  0.00    +0.260 C 
ATOM      5  H   UNL     1      33.686 -11.058 -23.288  0.00  0.00    +0.171 HD
BRANCH   4   6
ATOM      6  C   UNL     1      32.128  -9.520 -21.925  0.00  0.00    +0.058 C 
ATOM      7  C   UNL     1      32.782  -8.931 -20.862  0.00  0.00    +0.044 C 
ATOM      8  C   UNL     1      31.523  -8.781 -22.919  0.00  0.00    +0.008 C 
ATOM      9  C   UNL     1      32.833  -7.538 -20.792  0.00  0.00    +0.168 C 
ATOM     10  C   UNL     1      32.230  -6.767 -21.785  0.00  0.00    +0.167 C 
ATOM     11  C   UNL     1      31.574  -7.387 -22.849  0.00  0.00    +0.040 C 
BRANCH   9  12
ATOM     12  O   UNL     1      33.475  -6.943 -19.748  0.00  0.00    -0.503 OA
ATOM     13  H   UNL     1      34.138  -7.409 -19.279  0.00  0.00    +0.292 HD
ENDBRANCH   9  12
BRANCH  10  14
ATOM     14  O   UNL     1      32.273  -5.407 -21.728  0.00  0.00    -0.503 OA
ATOM     15  H   UNL     1      31.740  -4.948 -21.109  0.00  0.00    +0.292 HD
ENDBRANCH  10  14
ENDBRANCH   4   6
ENDBRANCH   1   3
BRANCH   1  16
ATOM     16  C   UNL     1      34.171 -13.479 -23.148  0.00  0.00    +0.141 C 
BRANCH  16  19
ATOM     17  C   UNL     1      34.831 -15.876 -23.433  0.00  0.00    +0.000 C 
ATOM     18  C   UNL     1      34.983 -17.002 -24.277  0.00  0.00    -0.000 C 
ATOM     19  C   UNL     1      34.348 -14.673 -23.974  0.00  0.00    +0.031 C 
ATOM     20  C   UNL     1      34.019 -14.582 -25.327  0.00  0.00    +0.136 C 
ATOM     21  C   UNL     1      34.647 -16.892 -25.637  0.00  0.00    +0.003 C 
ATOM     22  C   UNL     1      35.166 -15.985 -22.075  0.00  0.00    -0.000 C 
ATOM     23  C   UNL     1      34.169 -15.689 -26.157  0.00  0.00    +0.037 C 
ATOM     24  C   UNL     1      35.467 -18.204 -23.737  0.00  0.00    -0.000 C 
ATOM     25  C   UNL     1      35.645 -17.188 -21.554  0.00  0.00    -0.000 C 
ATOM     26  C   UNL     1      35.796 -18.296 -22.384  0.00  0.00    -0.000 C 
BRANCH  20  27
ATOM     27  O   UNL     1      33.549 -13.419 -25.861  0.00  0.00    -0.472 OA
ATOM     28  C   UNL     1      33.580 -13.299 -27.281  0.00  0.00    +0.252 C 
ENDBRANCH  20  27
ENDBRANCH  16  19
ENDBRANCH   1  16
TORSDOF 7
ENDMDL
