MODEL 1
REMARK VINA RESULT:     -11.8      0.000      0.000
REMARK  Name = 118598754
REMARK  1 active torsions:
REMARK  status: ('A' for Active; 'I' for Inactive)
REMARK    1  A    between atoms: C_15  and  N_19
REMARK                            x       y       z     vdW  Elec       q    Type
REMARK                         _______ _______ _______ _____ _____    ______ ____
ROOT
ATOM      1  O   UNL     1      32.341 -24.688 -13.122  0.00  0.00    -0.269 OA
ATOM      2  O   UNL     1      36.927 -23.379 -16.487  0.00  0.00    -0.268 OA
ATOM      3  N   UNL     1      35.101 -23.901 -15.150  0.00  0.00    -0.238 N 
ATOM      4  N   UNL     1      34.680 -24.727 -13.048  0.00  0.00    -0.288 N 
ATOM      5  C   UNL     1      35.791 -24.385 -13.927  0.00  0.00    +0.124 C 
ATOM      6  C   UNL     1      36.633 -25.643 -14.218  0.00  0.00    +0.038 C 
ATOM      7  C   UNL     1      36.642 -23.272 -13.285  0.00  0.00    +0.038 C 
ATOM      8  C   UNL     1      37.433 -23.765 -12.071  0.00  0.00    +0.003 C 
ATOM      9  C   UNL     1      37.424 -26.115 -12.998  0.00  0.00    +0.003 C 
ATOM     10  C   UNL     1      38.273 -24.993 -12.407  0.00  0.00    +0.000 C 
ATOM     11  C   UNL     1      33.729 -23.963 -14.977  0.00  0.00    +0.105 C 
ATOM     12  C   UNL     1      33.435 -24.496 -13.621  0.00  0.00    +0.260 C 
ATOM     13  C   UNL     1      35.712 -23.446 -16.312  0.00  0.00    +0.267 C 
ATOM     14  C   UNL     1      32.876 -23.582 -15.939  0.00  0.00    -0.002 C 
ATOM     15  C   UNL     1      34.770 -23.013 -17.405  0.00  0.00    +0.104 C 
ATOM     16  C   UNL     1      33.447 -23.095 -17.183  0.00  0.00    +0.016 C 
ATOM     17  C   UNL     1      31.378 -23.599 -15.881  0.00  0.00    +0.033 C 
ATOM     18  H   UNL     1      34.798 -25.085 -12.138  0.00  0.00    +0.151 HD
ENDROOT
BRANCH  15  19
ATOM     19  N   UNL     1      35.345 -22.562 -18.558  0.00  0.00    -0.298 N 
ATOM     20  N   UNL     1      33.476 -21.650 -19.688  0.00  0.00    -0.233 NA
ATOM     21  N   UNL     1      33.811 -19.951 -21.365  0.00  0.00    -0.234 NA
ATOM     22  C   UNL     1      34.814 -21.681 -19.506  0.00  0.00    +0.113 C 
ATOM     23  C   UNL     1      35.701 -20.889 -20.206  0.00  0.00    +0.121 C 
ATOM     24  C   UNL     1      35.137 -20.034 -21.132  0.00  0.00    +0.107 C 
ATOM     25  C   UNL     1      33.049 -20.774 -20.619  0.00  0.00    +0.252 C 
ATOM     26  H   UNL     1      36.250 -22.899 -18.746  0.00  0.00    +0.153 HD
ATOM     27  N   UNL     1      36.015 -19.207 -21.873  0.00  0.00    -0.346 N 
ATOM     28  H   UNL     1      35.655 -18.582 -22.544  0.00  0.00    +0.143 HD
ATOM     29  H   UNL     1      36.987 -19.254 -21.718  0.00  0.00    +0.143 HD
ENDBRANCH  15  19
TORSDOF 1
ENDMDL
MODEL 2
REMARK VINA RESULT:     -10.7     10.752     14.704
REMARK  Name = 118598754
REMARK  1 active torsions:
REMARK  status: ('A' for Active; 'I' for Inactive)
REMARK    1  A    between atoms: C_15  and  N_19
REMARK                            x       y       z     vdW  Elec       q    Type
REMARK                         _______ _______ _______ _____ _____    ______ ____
ROOT
ATOM      1  O   UNL     1      31.606  -9.320 -19.389  0.00  0.00    -0.269 OA
ATOM      2  O   UNL     1      33.524 -10.638 -24.742  0.00  0.00    -0.268 OA
ATOM      3  N   UNL     1      32.762 -10.114 -22.611  0.00  0.00    -0.238 N 
ATOM      4  N   UNL     1      32.171  -8.256 -21.395  0.00  0.00    -0.288 N 
ATOM      5  C   UNL     1      32.651  -8.637 -22.718  0.00  0.00    +0.124 C 
ATOM      6  C   UNL     1      34.024  -7.989 -22.982  0.00  0.00    +0.038 C 
ATOM      7  C   UNL     1      31.619  -8.228 -23.786  0.00  0.00    +0.038 C 
ATOM      8  C   UNL     1      31.545  -6.712 -23.980  0.00  0.00    +0.003 C 
ATOM      9  C   UNL     1      33.930  -6.476 -23.184  0.00  0.00    +0.003 C 
ATOM     10  C   UNL     1      32.918  -6.113 -24.266  0.00  0.00    +0.000 C 
ATOM     11  C   UNL     1      32.380 -10.529 -21.346  0.00  0.00    +0.105 C 
ATOM     12  C   UNL     1      31.993  -9.339 -20.543  0.00  0.00    +0.260 C 
ATOM     13  C   UNL     1      33.182 -10.981 -23.611  0.00  0.00    +0.267 C 
ATOM     14  C   UNL     1      32.391 -11.821 -20.991  0.00  0.00    -0.002 C 
ATOM     15  C   UNL     1      33.201 -12.439 -23.232  0.00  0.00    +0.104 C 
ATOM     16  C   UNL     1      32.821 -12.785 -21.990  0.00  0.00    +0.016 C 
ATOM     17  C   UNL     1      32.004 -12.400 -19.663  0.00  0.00    +0.033 C 
ATOM     18  H   UNL     1      31.990  -7.325 -21.131  0.00  0.00    +0.151 HD
ENDROOT
BRANCH  15  19
ATOM     19  N   UNL     1      33.611 -13.313 -24.197  0.00  0.00    -0.298 N 
ATOM     20  N   UNL     1      34.966 -14.795 -22.945  0.00  0.00    -0.233 NA
ATOM     21  N   UNL     1      35.346 -17.033 -23.753  0.00  0.00    -0.234 NA
ATOM     22  C   UNL     1      34.204 -14.570 -24.036  0.00  0.00    +0.113 C 
ATOM     23  C   UNL     1      33.970 -15.513 -25.015  0.00  0.00    +0.121 C 
ATOM     24  C   UNL     1      34.573 -16.740 -24.819  0.00  0.00    +0.107 C 
ATOM     25  C   UNL     1      35.498 -16.030 -22.868  0.00  0.00    +0.252 C 
ATOM     26  H   UNL     1      33.471 -13.021 -25.127  0.00  0.00    +0.153 HD
ATOM     27  N   UNL     1      34.359 -17.735 -25.805  0.00  0.00    -0.346 N 
ATOM     28  H   UNL     1      34.769 -18.624 -25.704  0.00  0.00    +0.143 HD
ATOM     29  H   UNL     1      33.798 -17.539 -26.590  0.00  0.00    +0.143 HD
ENDBRANCH  15  19
TORSDOF 1
ENDMDL
MODEL 3
REMARK VINA RESULT:      -9.9      2.722      4.918
REMARK  Name = 118598754
REMARK  1 active torsions:
REMARK  status: ('A' for Active; 'I' for Inactive)
REMARK    1  A    between atoms: C_15  and  N_19
REMARK                            x       y       z     vdW  Elec       q    Type
REMARK                         _______ _______ _______ _____ _____    ______ ____
ROOT
ATOM      1  O   UNL     1      38.665 -22.232 -16.632  0.00  0.00    -0.269 OA
ATOM      2  O   UNL     1      33.790 -24.903 -14.853  0.00  0.00    -0.268 OA
ATOM      3  N   UNL     1      35.729 -23.839 -15.562  0.00  0.00    -0.238 N 
ATOM      4  N   UNL     1      37.915 -23.608 -14.894  0.00  0.00    -0.288 N 
ATOM      5  C   UNL     1      36.671 -24.254 -14.492  0.00  0.00    +0.124 C 
ATOM      6  C   UNL     1      36.228 -23.723 -13.115  0.00  0.00    +0.038 C 
ATOM      7  C   UNL     1      36.860 -25.784 -14.473  0.00  0.00    +0.038 C 
ATOM      8  C   UNL     1      37.760 -26.250 -13.326  0.00  0.00    +0.003 C 
ATOM      9  C   UNL     1      37.132 -24.207 -11.980  0.00  0.00    +0.003 C 
ATOM     10  C   UNL     1      37.273 -25.726 -11.980  0.00  0.00    +0.000 C 
ATOM     11  C   UNL     1      36.379 -23.033 -16.481  0.00  0.00    +0.105 C 
ATOM     12  C   UNL     1      37.797 -22.872 -16.066  0.00  0.00    +0.260 C 
ATOM     13  C   UNL     1      34.388 -24.189 -15.655  0.00  0.00    +0.267 C 
ATOM     14  C   UNL     1      35.746 -22.523 -17.547  0.00  0.00    -0.002 C 
ATOM     15  C   UNL     1      33.659 -23.625 -16.847  0.00  0.00    +0.104 C 
ATOM     16  C   UNL     1      34.339 -22.848 -17.708  0.00  0.00    +0.016 C 
ATOM     17  C   UNL     1      36.329 -21.643 -18.612  0.00  0.00    +0.033 C 
ATOM     18  H   UNL     1      38.755 -23.685 -14.386  0.00  0.00    +0.151 HD
ENDROOT
BRANCH  15  19
ATOM     19  N   UNL     1      32.339 -23.953 -16.963  0.00  0.00    -0.298 N 
ATOM     20  N   UNL     1      31.395 -22.751 -15.157  0.00  0.00    -0.233 NA
ATOM     21  N   UNL     1      29.061 -22.154 -15.213  0.00  0.00    -0.234 NA
ATOM     22  C   UNL     1      31.235 -23.340 -16.361  0.00  0.00    +0.113 C 
ATOM     23  C   UNL     1      30.036 -23.377 -17.043  0.00  0.00    +0.121 C 
ATOM     24  C   UNL     1      28.972 -22.761 -16.414  0.00  0.00    +0.107 C 
ATOM     25  C   UNL     1      30.283 -22.185 -14.648  0.00  0.00    +0.252 C 
ATOM     26  H   UNL     1      32.138 -24.719 -17.548  0.00  0.00    +0.153 HD
ATOM     27  N   UNL     1      27.723 -22.780 -17.081  0.00  0.00    -0.346 N 
ATOM     28  H   UNL     1      26.938 -22.352 -16.669  0.00  0.00    +0.143 HD
ATOM     29  H   UNL     1      27.639 -23.219 -17.959  0.00  0.00    +0.143 HD
ENDBRANCH  15  19
TORSDOF 1
ENDMDL
MODEL 4
REMARK VINA RESULT:      -9.7      7.578     10.850
REMARK  Name = 118598754
REMARK  1 active torsions:
REMARK  status: ('A' for Active; 'I' for Inactive)
REMARK    1  A    between atoms: C_15  and  N_19
REMARK                            x       y       z     vdW  Elec       q    Type
REMARK                         _______ _______ _______ _____ _____    ______ ____
ROOT
ATOM      1  O   UNL     1      34.946 -17.729 -26.142  0.00  0.00    -0.269 OA
ATOM      2  O   UNL     1      35.009 -15.820 -20.627  0.00  0.00    -0.268 OA
ATOM      3  N   UNL     1      34.984 -16.578 -22.822  0.00  0.00    -0.238 N 
ATOM      4  N   UNL     1      35.544 -18.468 -24.004  0.00  0.00    -0.288 N 
ATOM      5  C   UNL     1      35.540 -17.944 -22.643  0.00  0.00    +0.124 C 
ATOM      6  C   UNL     1      36.980 -17.897 -22.096  0.00  0.00    +0.038 C 
ATOM      7  C   UNL     1      34.626 -18.809 -21.753  0.00  0.00    +0.038 C 
ATOM      8  C   UNL     1      35.215 -20.194 -21.479  0.00  0.00    +0.003 C 
ATOM      9  C   UNL     1      37.548 -19.290 -21.820  0.00  0.00    +0.003 C 
ATOM     10  C   UNL     1      36.628 -20.104 -20.916  0.00  0.00    +0.000 C 
ATOM     11  C   UNL     1      34.702 -16.352 -24.159  0.00  0.00    +0.105 C 
ATOM     12  C   UNL     1      35.057 -17.565 -24.941  0.00  0.00    +0.260 C 
ATOM     13  C   UNL     1      34.768 -15.642 -21.819  0.00  0.00    +0.267 C 
ATOM     14  C   UNL     1      34.190 -15.189 -24.587  0.00  0.00    -0.002 C 
ATOM     15  C   UNL     1      34.193 -14.328 -22.281  0.00  0.00    +0.104 C 
ATOM     16  C   UNL     1      33.938 -14.162 -23.590  0.00  0.00    +0.016 C 
ATOM     17  C   UNL     1      33.840 -14.817 -25.997  0.00  0.00    +0.033 C 
ATOM     18  H   UNL     1      35.860 -19.371 -24.236  0.00  0.00    +0.151 HD
ENDROOT
BRANCH  15  19
ATOM     19  N   UNL     1      33.971 -13.389 -21.315  0.00  0.00    -0.298 N 
ATOM     20  N   UNL     1      32.050 -12.293 -22.157  0.00  0.00    -0.233 NA
ATOM     21  N   UNL     1      30.591 -11.115 -20.644  0.00  0.00    -0.234 NA
ATOM     22  C   UNL     1      32.823 -12.619 -21.099  0.00  0.00    +0.113 C 
ATOM     23  C   UNL     1      32.549 -12.235 -19.803  0.00  0.00    +0.121 C 
ATOM     24  C   UNL     1      31.408 -11.476 -19.633  0.00  0.00    +0.107 C 
ATOM     25  C   UNL     1      30.965 -11.551 -21.862  0.00  0.00    +0.252 C 
ATOM     26  H   UNL     1      34.715 -13.235 -20.689  0.00  0.00    +0.153 HD
ATOM     27  N   UNL     1      31.094 -11.059 -18.316  0.00  0.00    -0.346 N 
ATOM     28  H   UNL     1      30.289 -10.517 -18.150  0.00  0.00    +0.143 HD
ATOM     29  H   UNL     1      31.679 -11.313 -17.566  0.00  0.00    +0.143 HD
ENDBRANCH  15  19
TORSDOF 1
ENDMDL
