MODEL 1
REMARK VINA RESULT:     -11.0      0.000      0.000
REMARK  Name = 127737
REMARK  3 active torsions:
REMARK  status: ('A' for Active; 'I' for Inactive)
REMARK    1  A    between atoms: N_2  and  S_15
REMARK    2  A    between atoms: N_3  and  C_9
REMARK    3  A    between atoms: S_15  and  C_23
REMARK                            x       y       z     vdW  Elec       q    Type
REMARK                         _______ _______ _______ _____ _____    ______ ____
ROOT
ATOM      1  O   UNL     1      33.200 -20.826 -20.992  0.00  0.00    -0.251 OA
ATOM      2  N   UNL     1      34.787 -21.560 -19.460  0.00  0.00    -0.169 N 
ATOM      3  N   UNL     1      35.343 -19.900 -20.999  0.00  0.00    -0.267 N 
ATOM      4  C   UNL     1      34.340 -20.743 -20.552  0.00  0.00    +0.323 C 
ATOM      5  H   UNL     1      35.700 -21.405 -19.125  0.00  0.00    +0.178 HD
ATOM      6  H   UNL     1      36.204 -19.966 -20.527  0.00  0.00    +0.156 HD
ENDROOT
BRANCH   3   9
ATOM      7 CL   UNL     1      35.137 -14.998 -22.365  0.00  0.00    -0.081 Cl
ATOM      8 CL   UNL     1      35.092 -16.003 -25.440  0.00  0.00    -0.081 Cl
ATOM      9  C   UNL     1      35.283 -18.956 -22.051  0.00  0.00    +0.053 C 
ATOM     10  C   UNL     1      35.244 -17.605 -21.748  0.00  0.00    +0.027 C 
ATOM     11  C   UNL     1      35.264 -19.403 -23.362  0.00  0.00    +0.016 C 
ATOM     12  C   UNL     1      35.185 -16.674 -22.785  0.00  0.00    +0.069 C 
ATOM     13  C   UNL     1      35.204 -18.471 -24.399  0.00  0.00    +0.014 C 
ATOM     14  C   UNL     1      35.165 -17.108 -24.111  0.00  0.00    +0.068 C 
ENDBRANCH   3   9
BRANCH   2  15
ATOM     15  S   UNL     1      33.860 -22.781 -18.696  0.00  0.00    +0.077 S 
ATOM     16  O   UNL     1      33.970 -24.009 -19.471  0.00  0.00    -0.150 OA
ATOM     17  O   UNL     1      32.544 -22.243 -18.383  0.00  0.00    -0.150 OA
BRANCH  15  23
ATOM     18  O   UNL     1      36.644 -23.488 -13.580  0.00  0.00    -0.475 OA
ATOM     19  C   UNL     1      34.783 -23.725 -14.922  0.00  0.00    +0.017 C 
ATOM     20  C   UNL     1      34.341 -24.253 -13.613  0.00  0.00    +0.077 C 
ATOM     21  C   UNL     1      36.094 -23.283 -14.820  0.00  0.00    +0.135 C 
ATOM     22  C   UNL     1      35.705 -24.377 -12.931  0.00  0.00    +0.210 C 
ATOM     23  C   UNL     1      34.718 -22.985 -17.188  0.00  0.00    +0.125 C 
ATOM     24  C   UNL     1      34.074 -23.579 -16.099  0.00  0.00    +0.019 C 
ATOM     25  C   UNL     1      36.747 -22.682 -15.879  0.00  0.00    +0.038 C 
ATOM     26  C   UNL     1      36.046 -22.538 -17.077  0.00  0.00    +0.023 C 
ENDBRANCH  15  23
ENDBRANCH   2  15
TORSDOF 3
ENDMDL
MODEL 2
REMARK VINA RESULT:     -11.0      3.727      5.496
REMARK  Name = 127737
REMARK  3 active torsions:
REMARK  status: ('A' for Active; 'I' for Inactive)
REMARK    1  A    between atoms: N_2  and  S_15
REMARK    2  A    between atoms: N_3  and  C_9
REMARK    3  A    between atoms: S_15  and  C_23
REMARK                            x       y       z     vdW  Elec       q    Type
REMARK                         _______ _______ _______ _____ _____    ______ ____
ROOT
ATOM      1  O   UNL     1      34.953 -16.451 -23.451  0.00  0.00    -0.251 OA
ATOM      2  N   UNL     1      35.709 -17.440 -21.489  0.00  0.00    -0.169 N 
ATOM      3  N   UNL     1      34.661 -15.361 -21.408  0.00  0.00    -0.267 N 
ATOM      4  C   UNL     1      35.078 -16.390 -22.234  0.00  0.00    +0.323 C 
ATOM      5  H   UNL     1      35.732 -17.348 -20.508  0.00  0.00    +0.178 HD
ATOM      6  H   UNL     1      34.844 -15.477 -20.447  0.00  0.00    +0.156 HD
ENDROOT
BRANCH   3   9
ATOM      7 CL   UNL     1      34.244 -11.539 -24.749  0.00  0.00    -0.081 Cl
ATOM      8 CL   UNL     1      31.884 -10.352 -22.880  0.00  0.00    -0.081 Cl
ATOM      9  C   UNL     1      34.006 -14.161 -21.773  0.00  0.00    +0.053 C 
ATOM     10  C   UNL     1      34.386 -13.507 -22.933  0.00  0.00    +0.027 C 
ATOM     11  C   UNL     1      32.998 -13.666 -20.962  0.00  0.00    +0.016 C 
ATOM     12  C   UNL     1      33.739 -12.324 -23.294  0.00  0.00    +0.069 C 
ATOM     13  C   UNL     1      32.352 -12.483 -21.322  0.00  0.00    +0.014 C 
ATOM     14  C   UNL     1      32.722 -11.812 -22.488  0.00  0.00    +0.068 C 
ENDBRANCH   3   9
BRANCH   2  15
ATOM     15  S   UNL     1      36.427 -18.840 -22.167  0.00  0.00    +0.077 S 
ATOM     16  O   UNL     1      37.872 -18.660 -22.199  0.00  0.00    -0.150 OA
ATOM     17  O   UNL     1      35.718 -19.183 -23.391  0.00  0.00    -0.150 OA
BRANCH  15  23
ATOM     18  O   UNL     1      35.002 -22.885 -18.163  0.00  0.00    -0.475 OA
ATOM     19  C   UNL     1      34.427 -21.378 -19.813  0.00  0.00    +0.017 C 
ATOM     20  C   UNL     1      33.124 -21.901 -19.346  0.00  0.00    +0.077 C 
ATOM     21  C   UNL     1      35.447 -21.963 -19.076  0.00  0.00    +0.135 C 
ATOM     22  C   UNL     1      33.622 -23.104 -18.542  0.00  0.00    +0.210 C 
ATOM     23  C   UNL     1      36.034 -20.054 -20.973  0.00  0.00    +0.125 C 
ATOM     24  C   UNL     1      34.701 -20.415 -20.765  0.00  0.00    +0.019 C 
ATOM     25  C   UNL     1      36.771 -21.613 -19.257  0.00  0.00    +0.038 C 
ATOM     26  C   UNL     1      37.063 -20.648 -20.223  0.00  0.00    +0.023 C 
ENDBRANCH  15  23
ENDBRANCH   2  15
TORSDOF 3
ENDMDL
MODEL 3
REMARK VINA RESULT:     -10.9      3.776      5.474
REMARK  Name = 127737
REMARK  3 active torsions:
REMARK  status: ('A' for Active; 'I' for Inactive)
REMARK    1  A    between atoms: N_2  and  S_15
REMARK    2  A    between atoms: N_3  and  C_9
REMARK    3  A    between atoms: S_15  and  C_23
REMARK                            x       y       z     vdW  Elec       q    Type
REMARK                         _______ _______ _______ _____ _____    ______ ____
ROOT
ATOM      1  O   UNL     1      35.012 -16.455 -23.496  0.00  0.00    -0.251 OA
ATOM      2  N   UNL     1      35.700 -17.458 -21.516  0.00  0.00    -0.169 N 
ATOM      3  N   UNL     1      34.678 -15.365 -21.459  0.00  0.00    -0.267 N 
ATOM      4  C   UNL     1      35.104 -16.398 -22.276  0.00  0.00    +0.323 C 
ATOM      5  H   UNL     1      35.696 -17.369 -20.535  0.00  0.00    +0.178 HD
ATOM      6  H   UNL     1      34.833 -15.486 -20.494  0.00  0.00    +0.156 HD
ENDROOT
BRANCH   3   9
ATOM      7 CL   UNL     1      31.191 -11.812 -20.380  0.00  0.00    -0.081 Cl
ATOM      8 CL   UNL     1      32.086 -10.310 -23.102  0.00  0.00    -0.081 Cl
ATOM      9  C   UNL     1      34.049 -14.156 -21.839  0.00  0.00    +0.053 C 
ATOM     10  C   UNL     1      33.052 -13.628 -21.035  0.00  0.00    +0.027 C 
ATOM     11  C   UNL     1      34.443 -13.525 -23.008  0.00  0.00    +0.016 C 
ATOM     12  C   UNL     1      32.431 -12.436 -21.410  0.00  0.00    +0.069 C 
ATOM     13  C   UNL     1      33.822 -12.333 -23.383  0.00  0.00    +0.014 C 
ATOM     14  C   UNL     1      32.817 -11.789 -22.584  0.00  0.00    +0.068 C 
ENDBRANCH   3   9
BRANCH   2  15
ATOM     15  S   UNL     1      36.417 -18.866 -22.177  0.00  0.00    +0.077 S 
ATOM     16  O   UNL     1      37.862 -18.687 -22.211  0.00  0.00    -0.150 OA
ATOM     17  O   UNL     1      35.708 -19.224 -23.397  0.00  0.00    -0.150 OA
BRANCH  15  23
ATOM     18  O   UNL     1      34.992 -22.864 -18.127  0.00  0.00    -0.475 OA
ATOM     19  C   UNL     1      34.421 -21.402 -19.816  0.00  0.00    +0.017 C 
ATOM     20  C   UNL     1      33.120 -21.943 -19.367  0.00  0.00    +0.077 C 
ATOM     21  C   UNL     1      35.437 -21.950 -19.048  0.00  0.00    +0.135 C 
ATOM     22  C   UNL     1      33.625 -23.120 -18.530  0.00  0.00    +0.210 C 
ATOM     23  C   UNL     1      36.025 -20.065 -20.969  0.00  0.00    +0.125 C 
ATOM     24  C   UNL     1      34.695 -20.451 -20.781  0.00  0.00    +0.019 C 
ATOM     25  C   UNL     1      36.757 -21.576 -19.207  0.00  0.00    +0.038 C 
ATOM     26  C   UNL     1      37.049 -20.624 -20.186  0.00  0.00    +0.023 C 
ENDBRANCH  15  23
ENDBRANCH   2  15
TORSDOF 3
ENDMDL
MODEL 4
REMARK VINA RESULT:     -10.8      0.728      1.469
REMARK  Name = 127737
REMARK  3 active torsions:
REMARK  status: ('A' for Active; 'I' for Inactive)
REMARK    1  A    between atoms: N_2  and  S_15
REMARK    2  A    between atoms: N_3  and  C_9
REMARK    3  A    between atoms: S_15  and  C_23
REMARK                            x       y       z     vdW  Elec       q    Type
REMARK                         _______ _______ _______ _____ _____    ______ ____
ROOT
ATOM      1  O   UNL     1      33.123 -20.797 -20.585  0.00  0.00    -0.251 OA
ATOM      2  N   UNL     1      34.761 -21.886 -19.347  0.00  0.00    -0.169 N 
ATOM      3  N   UNL     1      35.365 -20.199 -20.836  0.00  0.00    -0.267 N 
ATOM      4  C   UNL     1      34.309 -20.921 -20.307  0.00  0.00    +0.323 C 
ATOM      5  H   UNL     1      35.723 -21.897 -19.135  0.00  0.00    +0.178 HD
ATOM      6  H   UNL     1      36.260 -20.432 -20.497  0.00  0.00    +0.156 HD
ENDROOT
BRANCH   3   9
ATOM      7 CL   UNL     1      34.245 -18.848 -25.618  0.00  0.00    -0.081 Cl
ATOM      8 CL   UNL     1      35.191 -15.853 -24.842  0.00  0.00    -0.081 Cl
ATOM      9  C   UNL     1      35.318 -19.169 -21.805  0.00  0.00    +0.053 C 
ATOM     10  C   UNL     1      34.864 -19.460 -23.081  0.00  0.00    +0.027 C 
ATOM     11  C   UNL     1      35.727 -17.892 -21.458  0.00  0.00    +0.016 C 
ATOM     12  C   UNL     1      34.817 -18.444 -24.037  0.00  0.00    +0.069 C 
ATOM     13  C   UNL     1      35.680 -16.877 -22.414  0.00  0.00    +0.014 C 
ATOM     14  C   UNL     1      35.225 -17.153 -23.703  0.00  0.00    +0.068 C 
ENDBRANCH   3   9
BRANCH   2  15
ATOM     15  S   UNL     1      33.761 -23.019 -18.539  0.00  0.00    +0.077 S 
ATOM     16  O   UNL     1      33.844 -24.297 -19.233  0.00  0.00    -0.150 OA
ATOM     17  O   UNL     1      32.460 -22.412 -18.304  0.00  0.00    -0.150 OA
BRANCH  15  23
ATOM     18  O   UNL     1      36.357 -23.523 -13.302  0.00  0.00    -0.475 OA
ATOM     19  C   UNL     1      34.567 -23.865 -14.715  0.00  0.00    +0.017 C 
ATOM     20  C   UNL     1      34.094 -24.393 -13.417  0.00  0.00    +0.077 C 
ATOM     21  C   UNL     1      35.851 -23.362 -14.567  0.00  0.00    +0.135 C 
ATOM     22  C   UNL     1      35.433 -24.445 -12.677  0.00  0.00    +0.210 C 
ATOM     23  C   UNL     1      34.564 -23.162 -16.994  0.00  0.00    +0.125 C 
ATOM     24  C   UNL     1      33.902 -23.769 -15.923  0.00  0.00    +0.019 C 
ATOM     25  C   UNL     1      36.520 -22.747 -15.607  0.00  0.00    +0.038 C 
ATOM     26  C   UNL     1      35.864 -22.652 -16.836  0.00  0.00    +0.023 C 
ENDBRANCH  15  23
ENDBRANCH   2  15
TORSDOF 3
ENDMDL
MODEL 5
REMARK VINA RESULT:     -10.1      8.008     12.482
REMARK  Name = 127737
REMARK  3 active torsions:
REMARK  status: ('A' for Active; 'I' for Inactive)
REMARK    1  A    between atoms: N_2  and  S_15
REMARK    2  A    between atoms: N_3  and  C_9
REMARK    3  A    between atoms: S_15  and  C_23
REMARK                            x       y       z     vdW  Elec       q    Type
REMARK                         _______ _______ _______ _____ _____    ______ ____
ROOT
ATOM      1  O   UNL     1      32.392 -14.077 -21.387  0.00  0.00    -0.251 OA
ATOM      2  N   UNL     1      32.885 -11.901 -22.039  0.00  0.00    -0.169 N 
ATOM      3  N   UNL     1      34.016 -13.688 -23.018  0.00  0.00    -0.267 N 
ATOM      4  C   UNL     1      33.051 -13.325 -22.095  0.00  0.00    +0.323 C 
ATOM      5  H   UNL     1      33.411 -11.360 -22.672  0.00  0.00    +0.178 HD
ATOM      6  H   UNL     1      34.450 -12.949 -23.502  0.00  0.00    +0.156 HD
ENDROOT
BRANCH   3   9
ATOM      7 CL   UNL     1      36.136 -18.040 -21.436  0.00  0.00    -0.081 Cl
ATOM      8 CL   UNL     1      35.842 -19.121 -24.472  0.00  0.00    -0.081 Cl
ATOM      9  C   UNL     1      34.457 -14.990 -23.351  0.00  0.00    +0.053 C 
ATOM     10  C   UNL     1      35.013 -15.790 -22.366  0.00  0.00    +0.027 C 
ATOM     11  C   UNL     1      34.325 -15.438 -24.655  0.00  0.00    +0.016 C 
ATOM     12  C   UNL     1      35.448 -17.075 -22.694  0.00  0.00    +0.069 C 
ATOM     13  C   UNL     1      34.760 -16.723 -24.983  0.00  0.00    +0.014 C 
ATOM     14  C   UNL     1      35.322 -17.540 -24.003  0.00  0.00    +0.068 C 
ENDBRANCH   3   9
BRANCH   2  15
ATOM     15  S   UNL     1      31.845 -11.069 -20.962  0.00  0.00    +0.077 S 
ATOM     16  O   UNL     1      32.341 -11.240 -19.603  0.00  0.00    -0.150 OA
ATOM     17  O   UNL     1      30.468 -11.421 -21.275  0.00  0.00    -0.150 OA
BRANCH  15  23
ATOM     18  O   UNL     1      32.642  -5.522 -22.699  0.00  0.00    -0.475 OA
ATOM     19  C   UNL     1      31.912  -7.677 -23.078  0.00  0.00    +0.017 C 
ATOM     20  C   UNL     1      31.667  -6.992 -24.366  0.00  0.00    +0.077 C 
ATOM     21  C   UNL     1      32.493  -6.786 -22.187  0.00  0.00    +0.135 C 
ATOM     22  C   UNL     1      31.842  -5.543 -23.905  0.00  0.00    +0.210 C 
ATOM     23  C   UNL     1      32.088  -9.408 -21.448  0.00  0.00    +0.125 C 
ATOM     24  C   UNL     1      31.706  -8.998 -22.728  0.00  0.00    +0.019 C 
ATOM     25  C   UNL     1      32.889  -7.171 -20.921  0.00  0.00    +0.038 C 
ATOM     26  C   UNL     1      32.677  -8.501 -20.551  0.00  0.00    +0.023 C 
ENDBRANCH  15  23
ENDBRANCH   2  15
TORSDOF 3
ENDMDL
MODEL 6
REMARK VINA RESULT:     -10.1      8.951     12.097
REMARK  Name = 127737
REMARK  3 active torsions:
REMARK  status: ('A' for Active; 'I' for Inactive)
REMARK    1  A    between atoms: N_2  and  S_15
REMARK    2  A    between atoms: N_3  and  C_9
REMARK    3  A    between atoms: S_15  and  C_23
REMARK                            x       y       z     vdW  Elec       q    Type
REMARK                         _______ _______ _______ _____ _____    ______ ____
ROOT
ATOM      1  O   UNL     1      31.192  -9.391 -22.697  0.00  0.00    -0.251 OA
ATOM      2  N   UNL     1      32.340 -10.017 -20.775  0.00  0.00    -0.169 N 
ATOM      3  N   UNL     1      32.830  -7.986 -21.807  0.00  0.00    -0.267 N 
ATOM      4  C   UNL     1      32.044  -9.124 -21.858  0.00  0.00    +0.323 C 
ATOM      5  H   UNL     1      33.001  -9.717 -20.110  0.00  0.00    +0.178 HD
ATOM      6  H   UNL     1      33.468  -7.936 -21.059  0.00  0.00    +0.156 HD
ENDROOT
BRANCH   3   9
ATOM      7 CL   UNL     1      35.094  -5.613 -25.703  0.00  0.00    -0.081 Cl
ATOM      8 CL   UNL     1      32.776  -3.365 -25.496  0.00  0.00    -0.081 Cl
ATOM      9  C   UNL     1      32.830  -6.886 -22.696  0.00  0.00    +0.053 C 
ATOM     10  C   UNL     1      33.829  -6.786 -23.651  0.00  0.00    +0.027 C 
ATOM     11  C   UNL     1      31.831  -5.932 -22.594  0.00  0.00    +0.016 C 
ATOM     12  C   UNL     1      33.829  -5.701 -24.528  0.00  0.00    +0.069 C 
ATOM     13  C   UNL     1      31.832  -4.847 -23.472  0.00  0.00    +0.014 C 
ATOM     14  C   UNL     1      32.830  -4.732 -24.438  0.00  0.00    +0.068 C 
ENDBRANCH   3   9
BRANCH   2  15
ATOM     15  S   UNL     1      31.635 -11.562 -20.547  0.00  0.00    +0.077 S 
ATOM     16  O   UNL     1      30.313 -11.571 -21.160  0.00  0.00    -0.150 OA
ATOM     17  O   UNL     1      31.782 -11.943 -19.151  0.00  0.00    -0.150 OA
BRANCH  15  23
ATOM     18  O   UNL     1      35.247 -15.028 -23.606  0.00  0.00    -0.475 OA
ATOM     19  C   UNL     1      34.119 -14.487 -21.668  0.00  0.00    +0.017 C 
ATOM     20  C   UNL     1      34.908 -15.681 -21.293  0.00  0.00    +0.077 C 
ATOM     21  C   UNL     1      34.384 -14.158 -22.990  0.00  0.00    +0.135 C 
ATOM     22  C   UNL     1      35.317 -16.148 -22.691  0.00  0.00    +0.210 C 
ATOM     23  C   UNL     1      32.700 -12.580 -21.486  0.00  0.00    +0.125 C 
ATOM     24  C   UNL     1      33.282 -13.705 -20.896  0.00  0.00    +0.019 C 
ATOM     25  C   UNL     1      33.830 -13.045 -23.591  0.00  0.00    +0.038 C 
ATOM     26  C   UNL     1      32.974 -12.251 -22.825  0.00  0.00    +0.023 C 
ENDBRANCH  15  23
ENDBRANCH   2  15
TORSDOF 3
ENDMDL
MODEL 7
REMARK VINA RESULT:     -10.1      4.379      9.134
REMARK  Name = 127737
REMARK  3 active torsions:
REMARK  status: ('A' for Active; 'I' for Inactive)
REMARK    1  A    between atoms: N_2  and  S_15
REMARK    2  A    between atoms: N_3  and  C_9
REMARK    3  A    between atoms: S_15  and  C_23
REMARK                            x       y       z     vdW  Elec       q    Type
REMARK                         _______ _______ _______ _____ _____    ______ ____
ROOT
ATOM      1  O   UNL     1      36.718 -19.882 -20.522  0.00  0.00    -0.251 OA
ATOM      2  N   UNL     1      35.169 -19.645 -22.238  0.00  0.00    -0.169 N 
ATOM      3  N   UNL     1      34.702 -21.057 -20.445  0.00  0.00    -0.267 N 
ATOM      4  C   UNL     1      35.629 -20.187 -20.992  0.00  0.00    +0.323 C 
ATOM      5  H   UNL     1      34.263 -19.894 -22.533  0.00  0.00    +0.178 HD
ATOM      6  H   UNL     1      33.875 -21.187 -20.961  0.00  0.00    +0.156 HD
ENDROOT
BRANCH   3   9
ATOM      7 CL   UNL     1      37.624 -22.539 -16.545  0.00  0.00    -0.081 Cl
ATOM      8 CL   UNL     1      35.041 -24.110 -15.391  0.00  0.00    -0.081 Cl
ATOM      9  C   UNL     1      34.798 -21.783 -19.234  0.00  0.00    +0.053 C 
ATOM     10  C   UNL     1      36.005 -21.812 -18.555  0.00  0.00    +0.027 C 
ATOM     11  C   UNL     1      33.684 -22.451 -18.754  0.00  0.00    +0.016 C 
ATOM     12  C   UNL     1      36.100 -22.528 -17.361  0.00  0.00    +0.069 C 
ATOM     13  C   UNL     1      33.779 -23.167 -17.560  0.00  0.00    +0.014 C 
ATOM     14  C   UNL     1      34.987 -23.205 -16.864  0.00  0.00    +0.068 C 
ENDBRANCH   3   9
BRANCH   2  15
ATOM     15  S   UNL     1      36.069 -18.598 -23.252  0.00  0.00    +0.077 S 
ATOM     16  O   UNL     1      35.729 -18.882 -24.640  0.00  0.00    -0.150 OA
ATOM     17  O   UNL     1      37.462 -18.623 -22.833  0.00  0.00    -0.150 OA
BRANCH  15  23
ATOM     18  O   UNL     1      33.898 -13.318 -21.900  0.00  0.00    -0.475 OA
ATOM     19  C   UNL     1      34.572 -14.895 -23.442  0.00  0.00    +0.017 C 
ATOM     20  C   UNL     1      34.200 -13.729 -24.273  0.00  0.00    +0.077 C 
ATOM     21  C   UNL     1      34.400 -14.579 -22.102  0.00  0.00    +0.135 C 
ATOM     22  C   UNL     1      33.457 -12.909 -23.217  0.00  0.00    +0.210 C 
ATOM     23  C   UNL     1      35.416 -17.036 -22.819  0.00  0.00    +0.125 C 
ATOM     24  C   UNL     1      35.086 -16.121 -23.821  0.00  0.00    +0.019 C 
ATOM     25  C   UNL     1      34.731 -15.463 -21.094  0.00  0.00    +0.038 C 
ATOM     26  C   UNL     1      35.241 -16.708 -21.464  0.00  0.00    +0.023 C 
ENDBRANCH  15  23
ENDBRANCH   2  15
TORSDOF 3
ENDMDL
MODEL 8
REMARK VINA RESULT:     -10.0      4.690      9.259
REMARK  Name = 127737
REMARK  3 active torsions:
REMARK  status: ('A' for Active; 'I' for Inactive)
REMARK    1  A    between atoms: N_2  and  S_15
REMARK    2  A    between atoms: N_3  and  C_9
REMARK    3  A    between atoms: S_15  and  C_23
REMARK                            x       y       z     vdW  Elec       q    Type
REMARK                         _______ _______ _______ _____ _____    ______ ____
ROOT
ATOM      1  O   UNL     1      33.752 -23.656 -16.737  0.00  0.00    -0.251 OA
ATOM      2  N   UNL     1      35.139 -22.346 -18.065  0.00  0.00    -0.169 N 
ATOM      3  N   UNL     1      35.774 -22.860 -15.883  0.00  0.00    -0.267 N 
ATOM      4  C   UNL     1      34.796 -23.025 -16.849  0.00  0.00    +0.323 C 
ATOM      5  H   UNL     1      36.016 -21.900 -18.102  0.00  0.00    +0.178 HD
ATOM      6  H   UNL     1      36.552 -22.318 -16.145  0.00  0.00    +0.156 HD
ENDROOT
BRANCH   3   9
ATOM      7 CL   UNL     1      38.507 -23.880 -11.708  0.00  0.00    -0.081 Cl
ATOM      8 CL   UNL     1      35.787 -25.022 -10.379  0.00  0.00    -0.081 Cl
ATOM      9  C   UNL     1      35.792 -23.374 -14.565  0.00  0.00    +0.053 C 
ATOM     10  C   UNL     1      36.983 -23.381 -13.857  0.00  0.00    +0.027 C 
ATOM     11  C   UNL     1      34.620 -23.861 -14.011  0.00  0.00    +0.016 C 
ATOM     12  C   UNL     1      37.001 -23.888 -12.557  0.00  0.00    +0.069 C 
ATOM     13  C   UNL     1      34.639 -24.368 -12.711  0.00  0.00    +0.014 C 
ATOM     14  C   UNL     1      35.829 -24.381 -11.984  0.00  0.00    +0.068 C 
ENDBRANCH   3   9
BRANCH   2  15
ATOM     15  S   UNL     1      34.144 -22.250 -19.457  0.00  0.00    +0.077 S 
ATOM     16  O   UNL     1      32.854 -21.691 -19.075  0.00  0.00    -0.150 OA
ATOM     17  O   UNL     1      34.196 -23.524 -20.159  0.00  0.00    -0.150 OA
BRANCH  15  23
ATOM     18  O   UNL     1      36.952 -18.326 -22.793  0.00  0.00    -0.475 OA
ATOM     19  C   UNL     1      35.089 -19.585 -22.284  0.00  0.00    +0.017 C 
ATOM     20  C   UNL     1      34.707 -18.882 -23.528  0.00  0.00    +0.077 C 
ATOM     21  C   UNL     1      36.388 -19.241 -21.941  0.00  0.00    +0.135 C 
ATOM     22  C   UNL     1      35.831 -17.845 -23.572  0.00  0.00    +0.210 C 
ATOM     23  C   UNL     1      35.003 -21.078 -20.426  0.00  0.00    +0.125 C 
ATOM     24  C   UNL     1      34.379 -20.509 -21.540  0.00  0.00    +0.019 C 
ATOM     25  C   UNL     1      37.029 -19.799 -20.852  0.00  0.00    +0.038 C 
ATOM     26  C   UNL     1      36.320 -20.726 -20.086  0.00  0.00    +0.023 C 
ENDBRANCH  15  23
ENDBRANCH   2  15
TORSDOF 3
ENDMDL
MODEL 9
REMARK VINA RESULT:      -9.9      4.500      9.168
REMARK  Name = 127737
REMARK  3 active torsions:
REMARK  status: ('A' for Active; 'I' for Inactive)
REMARK    1  A    between atoms: N_2  and  S_15
REMARK    2  A    between atoms: N_3  and  C_9
REMARK    3  A    between atoms: S_15  and  C_23
REMARK                            x       y       z     vdW  Elec       q    Type
REMARK                         _______ _______ _______ _____ _____    ______ ____
ROOT
ATOM      1  O   UNL     1      36.666 -19.876 -20.422  0.00  0.00    -0.251 OA
ATOM      2  N   UNL     1      35.191 -19.695 -22.209  0.00  0.00    -0.169 N 
ATOM      3  N   UNL     1      34.671 -21.088 -20.415  0.00  0.00    -0.267 N 
ATOM      4  C   UNL     1      35.605 -20.209 -20.935  0.00  0.00    +0.323 C 
ATOM      5  H   UNL     1      34.304 -19.966 -22.540  0.00  0.00    +0.178 HD
ATOM      6  H   UNL     1      33.869 -21.242 -20.966  0.00  0.00    +0.156 HD
ENDROOT
BRANCH   3   9
ATOM      7 CL   UNL     1      32.139 -23.668 -16.827  0.00  0.00    -0.081 Cl
ATOM      8 CL   UNL     1      34.964 -24.024 -15.291  0.00  0.00    -0.081 Cl
ATOM      9  C   UNL     1      34.726 -21.793 -19.190  0.00  0.00    +0.053 C 
ATOM     10  C   UNL     1      33.561 -22.325 -18.662  0.00  0.00    +0.027 C 
ATOM     11  C   UNL     1      35.943 -21.936 -18.544  0.00  0.00    +0.016 C 
ATOM     12  C   UNL     1      33.615 -23.021 -17.453  0.00  0.00    +0.069 C 
ATOM     13  C   UNL     1      35.996 -22.632 -17.336  0.00  0.00    +0.014 C 
ATOM     14  C   UNL     1      34.833 -23.174 -16.790  0.00  0.00    +0.068 C 
ENDBRANCH   3   9
BRANCH   2  15
ATOM     15  S   UNL     1      36.117 -18.647 -23.200  0.00  0.00    +0.077 S 
ATOM     16  O   UNL     1      35.817 -18.934 -24.596  0.00  0.00    -0.150 OA
ATOM     17  O   UNL     1      37.498 -18.668 -22.742  0.00  0.00    -0.150 OA
BRANCH  15  23
ATOM     18  O   UNL     1      33.892 -13.372 -21.917  0.00  0.00    -0.475 OA
ATOM     19  C   UNL     1      34.587 -14.961 -23.438  0.00  0.00    +0.017 C 
ATOM     20  C   UNL     1      34.207 -13.808 -24.284  0.00  0.00    +0.077 C 
ATOM     21  C   UNL     1      34.407 -14.630 -22.102  0.00  0.00    +0.135 C 
ATOM     22  C   UNL     1      33.453 -12.982 -23.240  0.00  0.00    +0.210 C 
ATOM     23  C   UNL     1      35.448 -17.087 -22.786  0.00  0.00    +0.125 C 
ATOM     24  C   UNL     1      35.113 -16.186 -23.801  0.00  0.00    +0.019 C 
ATOM     25  C   UNL     1      34.742 -15.499 -21.083  0.00  0.00    +0.038 C 
ATOM     26  C   UNL     1      35.265 -16.744 -21.436  0.00  0.00    +0.023 C 
ENDBRANCH  15  23
ENDBRANCH   2  15
TORSDOF 3
ENDMDL
