MODEL 1
REMARK VINA RESULT:     -12.3      0.000      0.000
REMARK  Name = 11677589
REMARK  7 active torsions:
REMARK  status: ('A' for Active; 'I' for Inactive)
REMARK    1  A    between atoms: C_1  and  N_7
REMARK    2  A    between atoms: C_2  and  C_20
REMARK    3  A    between atoms: C_11  and  C_18
REMARK    4  A    between atoms: C_20  and  C_21
REMARK    5  A    between atoms: C_21  and  N_23
REMARK    6  A    between atoms: N_24  and  S_28
REMARK    7  A    between atoms: S_28  and  C_31
REMARK                            x       y       z     vdW  Elec       q    Type
REMARK                         _______ _______ _______ _____ _____    ______ ____
ROOT
ATOM      1  C   UNL     1      34.426 -22.129 -18.393  0.00  0.00    +0.058 C 
ATOM      2  C   UNL     1      35.022 -20.703 -20.700  0.00  0.00    -0.020 C 
ATOM      3  C   UNL     1      33.393 -21.656 -19.192  0.00  0.00    +0.015 C 
ATOM      4  C   UNL     1      35.753 -21.899 -18.732  0.00  0.00    +0.015 C 
ATOM      5  C   UNL     1      33.693 -20.939 -20.351  0.00  0.00    -0.003 C 
ATOM      6  C   UNL     1      36.053 -21.182 -19.891  0.00  0.00    -0.003 C 
ENDROOT
BRANCH   1   7
ATOM      7  N   UNL     1      34.127 -22.846 -17.234  0.00  0.00    -0.242 N 
ATOM      8  N   UNL     1      34.444 -23.993 -15.356  0.00  0.00    -0.387 NA
ATOM      9  N   UNL     1      30.741 -24.091 -15.331  0.00  0.00    -0.408 NA
ATOM     10  C   UNL     1      32.872 -23.154 -16.777  0.00  0.00    +0.091 C 
ATOM     11  C   UNL     1      35.032 -23.368 -16.351  0.00  0.00    +0.168 C 
ATOM     12  C   UNL     1      33.097 -23.870 -15.604  0.00  0.00    +0.172 C 
ATOM     13  C   UNL     1      31.602 -22.882 -17.267  0.00  0.00    +0.045 C 
ATOM     14  C   UNL     1      31.997 -24.336 -14.884  0.00  0.00    +0.140 C 
ATOM     15  C   UNL     1      30.578 -23.388 -16.479  0.00  0.00    +0.110 C 
ATOM     16  C   UNL     1      32.122 -25.112 -13.616  0.00  0.00    +0.069 C 
ATOM     17  C   UNL     1      29.166 -23.155 -16.910  0.00  0.00    +0.066 C 
BRANCH  11  18
ATOM     18  C   UNL     1      36.493 -23.227 -16.530  0.00  0.00    +0.075 C 
ATOM     19  C   UNL     1      37.294 -23.999 -15.477  0.00  0.00    +0.009 C 
ENDBRANCH  11  18
ENDBRANCH   1   7
BRANCH   2  20
ATOM     20  C   UNL     1      35.342 -19.936 -21.938  0.00  0.00    +0.048 C 
BRANCH  20  21
ATOM     21  C   UNL     1      36.322 -18.780 -21.707  0.00  0.00    +0.096 C 
BRANCH  21  23
ATOM     22  O   UNL     1      35.586 -16.934 -23.781  0.00  0.00    -0.251 OA
ATOM     23  N   UNL     1      35.651 -17.518 -21.544  0.00  0.00    -0.287 N 
ATOM     24  N   UNL     1      34.672 -15.487 -22.190  0.00  0.00    -0.169 N 
ATOM     25  C   UNL     1      35.332 -16.687 -22.605  0.00  0.00    +0.319 C 
ATOM     26  H   UNL     1      35.406 -17.231 -20.635  0.00  0.00    +0.151 HD
ATOM     27  H   UNL     1      34.513 -15.369 -21.226  0.00  0.00    +0.178 HD
BRANCH  24  28
ATOM     28  S   UNL     1      34.138 -14.241 -23.231  0.00  0.00    +0.077 S 
ATOM     29  O   UNL     1      35.273 -13.434 -23.637  0.00  0.00    -0.150 OA
ATOM     30  O   UNL     1      33.240 -14.799 -24.225  0.00  0.00    -0.150 OA
BRANCH  28  31
ATOM     31  C   UNL     1      33.146 -13.280 -22.129  0.00  0.00    +0.125 C 
ATOM     32  C   UNL     1      32.588 -12.096 -22.578  0.00  0.00    +0.020 C 
ATOM     33  C   UNL     1      32.946 -13.729 -20.835  0.00  0.00    +0.020 C 
ATOM     34  C   UNL     1      31.592 -11.776 -20.400  0.00  0.00    -0.022 C 
ATOM     35  C   UNL     1      31.804 -11.338 -21.707  0.00  0.00    -0.003 C 
ATOM     36  C   UNL     1      32.163 -12.971 -19.964  0.00  0.00    -0.003 C 
ATOM     37  C   UNL     1      30.754 -10.966 -19.470  0.00  0.00    +0.031 C 
ENDBRANCH  28  31
ENDBRANCH  24  28
ENDBRANCH  21  23
ENDBRANCH  20  21
ENDBRANCH   2  20
TORSDOF 7
ENDMDL
MODEL 2
REMARK VINA RESULT:     -12.3      3.571     11.423
REMARK  Name = 11677589
REMARK  7 active torsions:
REMARK  status: ('A' for Active; 'I' for Inactive)
REMARK    1  A    between atoms: C_1  and  N_7
REMARK    2  A    between atoms: C_2  and  C_20
REMARK    3  A    between atoms: C_11  and  C_18
REMARK    4  A    between atoms: C_20  and  C_21
REMARK    5  A    between atoms: C_21  and  N_23
REMARK    6  A    between atoms: N_24  and  S_28
REMARK    7  A    between atoms: S_28  and  C_31
REMARK                            x       y       z     vdW  Elec       q    Type
REMARK                         _______ _______ _______ _____ _____    ______ ____
ROOT
ATOM      1  C   UNL     1      34.265 -14.231 -22.666  0.00  0.00    +0.058 C 
ATOM      2  C   UNL     1      35.365 -16.725 -22.136  0.00  0.00    -0.020 C 
ATOM      3  C   UNL     1      34.672 -15.038 -23.720  0.00  0.00    +0.015 C 
ATOM      4  C   UNL     1      34.400 -14.654 -21.350  0.00  0.00    +0.015 C 
ATOM      5  C   UNL     1      35.225 -16.291 -23.454  0.00  0.00    -0.003 C 
ATOM      6  C   UNL     1      34.953 -15.907 -21.083  0.00  0.00    -0.003 C 
ENDROOT
BRANCH   1   7
ATOM      7  N   UNL     1      33.712 -12.977 -22.931  0.00  0.00    -0.242 N 
ATOM      8  N   UNL     1      33.171 -11.136 -24.053  0.00  0.00    -0.387 NA
ATOM      9  N   UNL     1      31.531 -10.222 -20.860  0.00  0.00    -0.408 NA
ATOM     10  C   UNL     1      32.993 -12.210 -22.051  0.00  0.00    +0.091 C 
ATOM     11  C   UNL     1      33.791 -12.294 -24.113  0.00  0.00    +0.168 C 
ATOM     12  C   UNL     1      32.668 -11.067 -22.776  0.00  0.00    +0.172 C 
ATOM     13  C   UNL     1      32.612 -12.406 -20.731  0.00  0.00    +0.045 C 
ATOM     14  C   UNL     1      31.922 -10.068 -22.149  0.00  0.00    +0.140 C 
ATOM     15  C   UNL     1      31.876 -11.356 -20.201  0.00  0.00    +0.110 C 
ATOM     16  C   UNL     1      31.518  -8.804 -22.830  0.00  0.00    +0.069 C 
ATOM     17  C   UNL     1      31.410 -11.456 -18.784  0.00  0.00    +0.066 C 
BRANCH  11  18
ATOM     18  C   UNL     1      34.500 -12.826 -25.296  0.00  0.00    +0.075 C 
ATOM     19  C   UNL     1      33.688 -12.677 -26.587  0.00  0.00    +0.009 C 
ENDBRANCH  11  18
ENDBRANCH   1   7
BRANCH   2  20
ATOM     20  C   UNL     1      35.956 -18.065 -21.851  0.00  0.00    +0.048 C 
BRANCH  20  21
ATOM     21  C   UNL     1      34.927 -19.201 -21.848  0.00  0.00    +0.096 C 
BRANCH  21  23
ATOM     22  O   UNL     1      33.021 -21.039 -20.734  0.00  0.00    -0.251 OA
ATOM     23  N   UNL     1      35.151 -20.138 -20.780  0.00  0.00    -0.287 N 
ATOM     24  N   UNL     1      34.631 -21.825 -19.235  0.00  0.00    -0.169 N 
ATOM     25  C   UNL     1      34.169 -20.991 -20.303  0.00  0.00    +0.319 C 
ATOM     26  H   UNL     1      36.044 -20.174 -20.368  0.00  0.00    +0.151 HD
ATOM     27  H   UNL     1      35.568 -21.716 -18.950  0.00  0.00    +0.178 HD
BRANCH  24  28
ATOM     28  S   UNL     1      33.691 -22.991 -18.413  0.00  0.00    +0.077 S 
ATOM     29  O   UNL     1      32.389 -22.429 -18.105  0.00  0.00    -0.150 OA
ATOM     30  O   UNL     1      33.798 -24.264 -19.100  0.00  0.00    -0.150 OA
BRANCH  28  31
ATOM     31  C   UNL     1      34.593 -23.149 -16.901  0.00  0.00    +0.125 C 
ATOM     32  C   UNL     1      33.994 -23.767 -15.817  0.00  0.00    +0.020 C 
ATOM     33  C   UNL     1      35.882 -22.651 -16.829  0.00  0.00    +0.020 C 
ATOM     34  C   UNL     1      36.007 -23.396 -14.534  0.00  0.00    -0.022 C 
ATOM     35  C   UNL     1      34.707 -23.891 -14.624  0.00  0.00    -0.003 C 
ATOM     36  C   UNL     1      36.595 -22.776 -15.636  0.00  0.00    -0.003 C 
ATOM     37  C   UNL     1      36.769 -23.530 -13.259  0.00  0.00    +0.031 C 
ENDBRANCH  28  31
ENDBRANCH  24  28
ENDBRANCH  21  23
ENDBRANCH  20  21
ENDBRANCH   2  20
TORSDOF 7
ENDMDL
MODEL 3
REMARK VINA RESULT:     -11.9      1.536      3.610
REMARK  Name = 11677589
REMARK  7 active torsions:
REMARK  status: ('A' for Active; 'I' for Inactive)
REMARK    1  A    between atoms: C_1  and  N_7
REMARK    2  A    between atoms: C_2  and  C_20
REMARK    3  A    between atoms: C_11  and  C_18
REMARK    4  A    between atoms: C_20  and  C_21
REMARK    5  A    between atoms: C_21  and  N_23
REMARK    6  A    between atoms: N_24  and  S_28
REMARK    7  A    between atoms: S_28  and  C_31
REMARK                            x       y       z     vdW  Elec       q    Type
REMARK                         _______ _______ _______ _____ _____    ______ ____
ROOT
ATOM      1  C   UNL     1      35.592 -22.624 -17.332  0.00  0.00    +0.058 C 
ATOM      2  C   UNL     1      35.625 -21.367 -19.807  0.00  0.00    -0.020 C 
ATOM      3  C   UNL     1      34.501 -22.755 -18.181  0.00  0.00    +0.015 C 
ATOM      4  C   UNL     1      36.699 -21.874 -17.704  0.00  0.00    +0.015 C 
ATOM      5  C   UNL     1      34.517 -22.123 -19.425  0.00  0.00    -0.003 C 
ATOM      6  C   UNL     1      36.716 -21.241 -18.947  0.00  0.00    -0.003 C 
ENDROOT
BRANCH   1   7
ATOM      7  N   UNL     1      35.576 -23.256 -16.087  0.00  0.00    -0.242 N 
ATOM      8  N   UNL     1      34.797 -24.018 -14.149  0.00  0.00    -0.387 NA
ATOM      9  N   UNL     1      38.275 -25.230 -13.752  0.00  0.00    -0.408 NA
ATOM     10  C   UNL     1      36.640 -23.874 -15.483  0.00  0.00    +0.091 C 
ATOM     11  C   UNL     1      34.499 -23.369 -15.253  0.00  0.00    +0.168 C 
ATOM     12  C   UNL     1      36.128 -24.341 -14.276  0.00  0.00    +0.172 C 
ATOM     13  C   UNL     1      37.960 -24.060 -15.869  0.00  0.00    +0.045 C 
ATOM     14  C   UNL     1      36.978 -25.029 -13.410  0.00  0.00    +0.140 C 
ATOM     15  C   UNL     1      38.722 -24.755 -14.941  0.00  0.00    +0.110 C 
ATOM     16  C   UNL     1      36.537 -25.572 -12.093  0.00  0.00    +0.069 C 
ATOM     17  C   UNL     1      40.160 -25.014 -15.250  0.00  0.00    +0.066 C 
BRANCH  11  18
ATOM     18  C   UNL     1      33.170 -22.812 -15.586  0.00  0.00    +0.075 C 
ATOM     19  C   UNL     1      32.053 -23.379 -14.703  0.00  0.00    +0.009 C 
ENDBRANCH  11  18
ENDBRANCH   1   7
BRANCH   2  20
ATOM     20  C   UNL     1      35.642 -20.690 -21.137  0.00  0.00    +0.048 C 
BRANCH  20  21
ATOM     21  C   UNL     1      36.629 -19.520 -21.216  0.00  0.00    +0.096 C 
BRANCH  21  23
ATOM     22  O   UNL     1      36.041 -17.922 -23.529  0.00  0.00    -0.251 OA
ATOM     23  N   UNL     1      35.964 -18.245 -21.240  0.00  0.00    -0.287 N 
ATOM     24  N   UNL     1      35.051 -16.297 -22.174  0.00  0.00    -0.169 N 
ATOM     25  C   UNL     1      35.720 -17.540 -22.408  0.00  0.00    +0.319 C 
ATOM     26  H   UNL     1      35.669 -17.854 -20.386  0.00  0.00    +0.151 HD
ATOM     27  H   UNL     1      34.835 -16.068 -21.241  0.00  0.00    +0.178 HD
BRANCH  24  28
ATOM     28  S   UNL     1      34.596 -15.177 -23.383  0.00  0.00    +0.077 S 
ATOM     29  O   UNL     1      35.766 -14.440 -23.820  0.00  0.00    -0.150 OA
ATOM     30  O   UNL     1      33.738 -15.837 -24.349  0.00  0.00    -0.150 OA
BRANCH  28  31
ATOM     31  C   UNL     1      33.568 -14.078 -22.455  0.00  0.00    +0.125 C 
ATOM     32  C   UNL     1      33.030 -12.966 -23.080  0.00  0.00    +0.020 C 
ATOM     33  C   UNL     1      33.321 -14.348 -21.121  0.00  0.00    +0.020 C 
ATOM     34  C   UNL     1      31.959 -12.356 -21.002  0.00  0.00    -0.022 C 
ATOM     35  C   UNL     1      32.218 -12.099 -22.348  0.00  0.00    -0.003 C 
ATOM     36  C   UNL     1      32.510 -13.481 -20.388  0.00  0.00    -0.003 C 
ATOM     37  C   UNL     1      31.091 -11.430 -20.220  0.00  0.00    +0.031 C 
ENDBRANCH  28  31
ENDBRANCH  24  28
ENDBRANCH  21  23
ENDBRANCH  20  21
ENDBRANCH   2  20
TORSDOF 7
ENDMDL
MODEL 4
REMARK VINA RESULT:     -11.9      2.100      2.401
REMARK  Name = 11677589
REMARK  7 active torsions:
REMARK  status: ('A' for Active; 'I' for Inactive)
REMARK    1  A    between atoms: C_1  and  N_7
REMARK    2  A    between atoms: C_2  and  C_20
REMARK    3  A    between atoms: C_11  and  C_18
REMARK    4  A    between atoms: C_20  and  C_21
REMARK    5  A    between atoms: C_21  and  N_23
REMARK    6  A    between atoms: N_24  and  S_28
REMARK    7  A    between atoms: S_28  and  C_31
REMARK                            x       y       z     vdW  Elec       q    Type
REMARK                         _______ _______ _______ _____ _____    ______ ____
ROOT
ATOM      1  C   UNL     1      34.679 -22.644 -17.633  0.00  0.00    +0.058 C 
ATOM      2  C   UNL     1      35.760 -21.236 -19.768  0.00  0.00    -0.020 C 
ATOM      3  C   UNL     1      33.894 -22.383 -18.749  0.00  0.00    +0.015 C 
ATOM      4  C   UNL     1      35.997 -22.211 -17.570  0.00  0.00    +0.015 C 
ATOM      5  C   UNL     1      34.438 -21.675 -19.821  0.00  0.00    -0.003 C 
ATOM      6  C   UNL     1      36.540 -21.503 -18.643  0.00  0.00    -0.003 C 
ENDROOT
BRANCH   1   7
ATOM      7  N   UNL     1      34.136 -23.352 -16.559  0.00  0.00    -0.242 N 
ATOM      8  N   UNL     1      34.044 -24.627 -14.740  0.00  0.00    -0.387 NA
ATOM      9  N   UNL     1      30.399 -24.063 -15.088  0.00  0.00    -0.408 NA
ATOM     10  C   UNL     1      32.805 -23.453 -16.250  0.00  0.00    +0.091 C 
ATOM     11  C   UNL     1      34.836 -24.070 -15.629  0.00  0.00    +0.168 C 
ATOM     12  C   UNL     1      32.774 -24.253 -15.112  0.00  0.00    +0.172 C 
ATOM     13  C   UNL     1      31.662 -22.935 -16.844  0.00  0.00    +0.045 C 
ATOM     14  C   UNL     1      31.538 -24.551 -14.537  0.00  0.00    +0.140 C 
ATOM     15  C   UNL     1      30.486 -23.288 -16.197  0.00  0.00    +0.110 C 
ATOM     16  C   UNL     1      31.388 -25.397 -13.318  0.00  0.00    +0.069 C 
ATOM     17  C   UNL     1      29.191 -22.786 -16.748  0.00  0.00    +0.066 C 
BRANCH  11  18
ATOM     18  C   UNL     1      36.310 -24.183 -15.653  0.00  0.00    +0.075 C 
ATOM     19  C   UNL     1      36.800 -25.588 -15.289  0.00  0.00    +0.009 C 
ENDBRANCH  11  18
ENDBRANCH   1   7
BRANCH   2  20
ATOM     20  C   UNL     1      36.341 -20.479 -20.914  0.00  0.00    +0.048 C 
BRANCH  20  21
ATOM     21  C   UNL     1      35.380 -20.330 -22.100  0.00  0.00    +0.096 C 
BRANCH  21  23
ATOM     22  O   UNL     1      34.684 -19.445 -24.743  0.00  0.00    -0.251 OA
ATOM     23  N   UNL     1      35.286 -18.971 -22.560  0.00  0.00    -0.287 N 
ATOM     24  N   UNL     1      34.921 -17.218 -24.076  0.00  0.00    -0.169 N 
ATOM     25  C   UNL     1      34.942 -18.633 -23.859  0.00  0.00    +0.319 C 
ATOM     26  H   UNL     1      35.476 -18.246 -21.922  0.00  0.00    +0.151 HD
ATOM     27  H   UNL     1      35.146 -16.640 -23.311  0.00  0.00    +0.178 HD
BRANCH  24  28
ATOM     28  S   UNL     1      34.540 -16.450 -25.555  0.00  0.00    +0.077 S 
ATOM     29  O   UNL     1      35.706 -16.463 -26.417  0.00  0.00    -0.150 OA
ATOM     30  O   UNL     1      33.264 -16.944 -26.036  0.00  0.00    -0.150 OA
BRANCH  28  31
ATOM     31  C   UNL     1      34.274 -14.789 -25.014  0.00  0.00    +0.125 C 
ATOM     32  C   UNL     1      33.911 -13.826 -25.940  0.00  0.00    +0.020 C 
ATOM     33  C   UNL     1      34.433 -14.480 -23.674  0.00  0.00    +0.020 C 
ATOM     34  C   UNL     1      33.857 -12.186 -24.166  0.00  0.00    -0.022 C 
ATOM     35  C   UNL     1      33.701 -12.514 -25.512  0.00  0.00    -0.003 C 
ATOM     36  C   UNL     1      34.223 -13.169 -23.247  0.00  0.00    -0.003 C 
ATOM     37  C   UNL     1      33.631 -10.785 -23.710  0.00  0.00    +0.031 C 
ENDBRANCH  28  31
ENDBRANCH  24  28
ENDBRANCH  21  23
ENDBRANCH  20  21
ENDBRANCH   2  20
TORSDOF 7
ENDMDL
MODEL 5
REMARK VINA RESULT:     -11.7      1.488      2.147
REMARK  Name = 11677589
REMARK  7 active torsions:
REMARK  status: ('A' for Active; 'I' for Inactive)
REMARK    1  A    between atoms: C_1  and  N_7
REMARK    2  A    between atoms: C_2  and  C_20
REMARK    3  A    between atoms: C_11  and  C_18
REMARK    4  A    between atoms: C_20  and  C_21
REMARK    5  A    between atoms: C_21  and  N_23
REMARK    6  A    between atoms: N_24  and  S_28
REMARK    7  A    between atoms: S_28  and  C_31
REMARK                            x       y       z     vdW  Elec       q    Type
REMARK                         _______ _______ _______ _____ _____    ______ ____
ROOT
ATOM      1  C   UNL     1      35.902 -22.462 -17.364  0.00  0.00    +0.058 C 
ATOM      2  C   UNL     1      35.665 -21.264 -19.857  0.00  0.00    -0.020 C 
ATOM      3  C   UNL     1      34.762 -22.684 -18.124  0.00  0.00    +0.015 C 
ATOM      4  C   UNL     1      36.926 -21.650 -17.833  0.00  0.00    +0.015 C 
ATOM      5  C   UNL     1      34.642 -22.081 -19.377  0.00  0.00    -0.003 C 
ATOM      6  C   UNL     1      36.807 -21.047 -19.086  0.00  0.00    -0.003 C 
ENDROOT
BRANCH   1   7
ATOM      7  N   UNL     1      36.023 -23.065 -16.110  0.00  0.00    -0.242 N 
ATOM      8  N   UNL     1      36.976 -23.998 -14.332  0.00  0.00    -0.387 NA
ATOM      9  N   UNL     1      33.476 -24.219 -13.141  0.00  0.00    -0.408 NA
ATOM     10  C   UNL     1      34.992 -23.366 -15.258  0.00  0.00    +0.091 C 
ATOM     11  C   UNL     1      37.187 -23.460 -15.513  0.00  0.00    +0.168 C 
ATOM     12  C   UNL     1      35.614 -23.947 -14.157  0.00  0.00    +0.172 C 
ATOM     13  C   UNL     1      33.618 -23.190 -15.349  0.00  0.00    +0.045 C 
ATOM     14  C   UNL     1      34.822 -24.374 -13.090  0.00  0.00    +0.140 C 
ATOM     15  C   UNL     1      32.922 -23.647 -14.238  0.00  0.00    +0.110 C 
ATOM     16  C   UNL     1      35.381 -25.009 -11.862  0.00  0.00    +0.069 C 
ATOM     17  C   UNL     1      31.434 -23.509 -14.224  0.00  0.00    +0.066 C 
BRANCH  11  18
ATOM     18  C   UNL     1      38.510 -23.288 -16.152  0.00  0.00    +0.075 C 
ATOM     19  C   UNL     1      39.513 -24.368 -15.732  0.00  0.00    +0.009 C 
ENDBRANCH  11  18
ENDBRANCH   1   7
BRANCH   2  20
ATOM     20  C   UNL     1      35.537 -20.619 -21.196  0.00  0.00    +0.048 C 
BRANCH  20  21
ATOM     21  C   UNL     1      36.548 -19.490 -21.432  0.00  0.00    +0.096 C 
BRANCH  21  23
ATOM     22  O   UNL     1      35.850 -17.857 -23.689  0.00  0.00    -0.251 OA
ATOM     23  N   UNL     1      35.933 -18.191 -21.402  0.00  0.00    -0.287 N 
ATOM     24  N   UNL     1      35.028 -16.203 -22.258  0.00  0.00    -0.169 N 
ATOM     25  C   UNL     1      35.630 -17.469 -22.545  0.00  0.00    +0.319 C 
ATOM     26  H   UNL     1      35.718 -17.794 -20.527  0.00  0.00    +0.151 HD
ATOM     27  H   UNL     1      34.892 -15.972 -21.311  0.00  0.00    +0.178 HD
BRANCH  24  28
ATOM     28  S   UNL     1      34.528 -15.059 -23.425  0.00  0.00    +0.077 S 
ATOM     29  O   UNL     1      35.680 -14.313 -23.892  0.00  0.00    -0.150 OA
ATOM     30  O   UNL     1      33.633 -15.699 -24.371  0.00  0.00    -0.150 OA
BRANCH  28  31
ATOM     31  C   UNL     1      33.537 -13.979 -22.436  0.00  0.00    +0.125 C 
ATOM     32  C   UNL     1      33.334 -14.280 -21.101  0.00  0.00    +0.020 C 
ATOM     33  C   UNL     1      32.983 -12.851 -23.016  0.00  0.00    +0.020 C 
ATOM     34  C   UNL     1      31.986 -12.287 -20.889  0.00  0.00    -0.022 C 
ATOM     35  C   UNL     1      32.553 -13.427 -20.321  0.00  0.00    -0.003 C 
ATOM     36  C   UNL     1      32.201 -11.998 -22.236  0.00  0.00    -0.003 C 
ATOM     37  C   UNL     1      31.152 -11.375 -20.054  0.00  0.00    +0.031 C 
ENDBRANCH  28  31
ENDBRANCH  24  28
ENDBRANCH  21  23
ENDBRANCH  20  21
ENDBRANCH   2  20
TORSDOF 7
ENDMDL
MODEL 6
REMARK VINA RESULT:     -11.7      4.639     10.678
REMARK  Name = 11677589
REMARK  7 active torsions:
REMARK  status: ('A' for Active; 'I' for Inactive)
REMARK    1  A    between atoms: C_1  and  N_7
REMARK    2  A    between atoms: C_2  and  C_20
REMARK    3  A    between atoms: C_11  and  C_18
REMARK    4  A    between atoms: C_20  and  C_21
REMARK    5  A    between atoms: C_21  and  N_23
REMARK    6  A    between atoms: N_24  and  S_28
REMARK    7  A    between atoms: S_28  and  C_31
REMARK                            x       y       z     vdW  Elec       q    Type
REMARK                         _______ _______ _______ _____ _____    ______ ____
ROOT
ATOM      1  C   UNL     1      35.664 -19.158 -21.787  0.00  0.00    +0.058 C 
ATOM      2  C   UNL     1      36.188 -21.018 -19.793  0.00  0.00    -0.020 C 
ATOM      3  C   UNL     1      34.637 -19.967 -21.318  0.00  0.00    +0.015 C 
ATOM      4  C   UNL     1      36.949 -19.266 -21.272  0.00  0.00    +0.015 C 
ATOM      5  C   UNL     1      34.901 -20.902 -20.316  0.00  0.00    -0.003 C 
ATOM      6  C   UNL     1      37.213 -20.201 -20.271  0.00  0.00    -0.003 C 
ENDROOT
BRANCH   1   7
ATOM      7  N   UNL     1      35.401 -18.223 -22.789  0.00  0.00    -0.242 N 
ATOM      8  N   UNL     1      35.114 -17.380 -24.826  0.00  0.00    -0.387 NA
ATOM      9  N   UNL     1      34.479 -14.253 -22.945  0.00  0.00    -0.408 NA
ATOM     10  C   UNL     1      35.104 -16.899 -22.599  0.00  0.00    +0.091 C 
ATOM     11  C   UNL     1      35.395 -18.463 -24.136  0.00  0.00    +0.168 C 
ATOM     12  C   UNL     1      34.930 -16.396 -23.885  0.00  0.00    +0.172 C 
ATOM     13  C   UNL     1      34.977 -16.121 -21.456  0.00  0.00    +0.045 C 
ATOM     14  C   UNL     1      34.611 -15.046 -24.037  0.00  0.00    +0.140 C 
ATOM     15  C   UNL     1      34.659 -14.795 -21.715  0.00  0.00    +0.110 C 
ATOM     16  C   UNL     1      34.403 -14.402 -25.366  0.00  0.00    +0.069 C 
ATOM     17  C   UNL     1      34.497 -13.862 -20.559  0.00  0.00    +0.066 C 
BRANCH  11  18
ATOM     18  C   UNL     1      35.677 -19.796 -24.710  0.00  0.00    +0.075 C 
ATOM     19  C   UNL     1      34.480 -20.377 -25.469  0.00  0.00    +0.009 C 
ENDBRANCH  11  18
ENDBRANCH   1   7
BRANCH   2  20
ATOM     20  C   UNL     1      36.470 -22.018 -18.722  0.00  0.00    +0.048 C 
BRANCH  20  21
ATOM     21  C   UNL     1      37.234 -21.437 -17.527  0.00  0.00    +0.096 C 
BRANCH  21  23
ATOM     22  O   UNL     1      36.327 -23.949 -16.469  0.00  0.00    -0.251 OA
ATOM     23  N   UNL     1      36.547 -21.653 -16.282  0.00  0.00    -0.287 N 
ATOM     24  N   UNL     1      35.476 -22.864 -14.582  0.00  0.00    -0.169 N 
ATOM     25  C   UNL     1      36.144 -22.906 -15.847  0.00  0.00    +0.319 C 
ATOM     26  H   UNL     1      36.353 -20.875 -15.712  0.00  0.00    +0.151 HD
ATOM     27  H   UNL     1      35.369 -21.983 -14.156  0.00  0.00    +0.178 HD
BRANCH  24  28
ATOM     28  S   UNL     1      34.847 -24.219 -13.751  0.00  0.00    +0.077 S 
ATOM     29  O   UNL     1      35.497 -25.423 -14.233  0.00  0.00    -0.150 OA
ATOM     30  O   UNL     1      34.797 -23.929 -12.331  0.00  0.00    -0.150 OA
BRANCH  28  31
ATOM     31  C   UNL     1      33.177 -24.226 -14.330  0.00  0.00    +0.125 C 
ATOM     32  C   UNL     1      32.278 -25.131 -13.792  0.00  0.00    +0.020 C 
ATOM     33  C   UNL     1      32.799 -23.327 -15.311  0.00  0.00    +0.020 C 
ATOM     34  C   UNL     1      30.562 -24.236 -15.237  0.00  0.00    -0.022 C 
ATOM     35  C   UNL     1      30.960 -25.135 -14.249  0.00  0.00    -0.003 C 
ATOM     36  C   UNL     1      31.480 -23.331 -15.768  0.00  0.00    -0.003 C 
ATOM     37  C   UNL     1      29.153 -24.241 -15.724  0.00  0.00    +0.031 C 
ENDBRANCH  28  31
ENDBRANCH  24  28
ENDBRANCH  21  23
ENDBRANCH  20  21
ENDBRANCH   2  20
TORSDOF 7
ENDMDL
MODEL 7
REMARK VINA RESULT:     -11.6      2.425      4.236
REMARK  Name = 11677589
REMARK  7 active torsions:
REMARK  status: ('A' for Active; 'I' for Inactive)
REMARK    1  A    between atoms: C_1  and  N_7
REMARK    2  A    between atoms: C_2  and  C_20
REMARK    3  A    between atoms: C_11  and  C_18
REMARK    4  A    between atoms: C_20  and  C_21
REMARK    5  A    between atoms: C_21  and  N_23
REMARK    6  A    between atoms: N_24  and  S_28
REMARK    7  A    between atoms: S_28  and  C_31
REMARK                            x       y       z     vdW  Elec       q    Type
REMARK                         _______ _______ _______ _____ _____    ______ ____
ROOT
ATOM      1  C   UNL     1      35.092 -22.697 -17.297  0.00  0.00    +0.058 C 
ATOM      2  C   UNL     1      34.968 -21.526 -19.812  0.00  0.00    -0.020 C 
ATOM      3  C   UNL     1      36.211 -22.053 -17.809  0.00  0.00    +0.015 C 
ATOM      4  C   UNL     1      33.912 -22.763 -18.026  0.00  0.00    +0.015 C 
ATOM      5  C   UNL     1      36.148 -21.465 -19.072  0.00  0.00    -0.003 C 
ATOM      6  C   UNL     1      33.849 -22.175 -19.289  0.00  0.00    -0.003 C 
ENDROOT
BRANCH   1   7
ATOM      7  N   UNL     1      35.154 -23.286 -16.034  0.00  0.00    -0.242 N 
ATOM      8  N   UNL     1      34.487 -24.015 -14.042  0.00  0.00    -0.387 NA
ATOM      9  N   UNL     1      38.028 -25.062 -13.749  0.00  0.00    -0.408 NA
ATOM     10  C   UNL     1      36.267 -23.837 -15.454  0.00  0.00    +0.091 C 
ATOM     11  C   UNL     1      34.116 -23.417 -15.152  0.00  0.00    +0.168 C 
ATOM     12  C   UNL     1      35.824 -24.284 -14.212  0.00  0.00    +0.172 C 
ATOM     13  C   UNL     1      37.577 -23.979 -15.888  0.00  0.00    +0.045 C 
ATOM     14  C   UNL     1      36.738 -24.905 -13.361  0.00  0.00    +0.140 C 
ATOM     15  C   UNL     1      38.406 -24.608 -14.969  0.00  0.00    +0.110 C 
ATOM     16  C   UNL     1      36.374 -25.422 -12.010  0.00  0.00    +0.069 C 
ATOM     17  C   UNL     1      39.841 -24.816 -15.329  0.00  0.00    +0.066 C 
BRANCH  11  18
ATOM     18  C   UNL     1      32.752 -22.930 -15.448  0.00  0.00    +0.075 C 
ATOM     19  C   UNL     1      31.692 -24.030 -15.325  0.00  0.00    +0.009 C 
ENDBRANCH  11  18
ENDBRANCH   1   7
BRANCH   2  20
ATOM     20  C   UNL     1      34.901 -20.897 -21.163  0.00  0.00    +0.048 C 
BRANCH  20  21
ATOM     21  C   UNL     1      36.103 -19.999 -21.480  0.00  0.00    +0.096 C 
BRANCH  21  23
ATOM     22  O   UNL     1      35.306 -19.510 -24.197  0.00  0.00    -0.251 OA
ATOM     23  N   UNL     1      35.708 -18.740 -22.053  0.00  0.00    -0.287 N 
ATOM     24  N   UNL     1      34.991 -17.246 -23.713  0.00  0.00    -0.169 N 
ATOM     25  C   UNL     1      35.337 -18.594 -23.380  0.00  0.00    +0.319 C 
ATOM     26  H   UNL     1      35.701 -17.943 -21.474  0.00  0.00    +0.151 HD
ATOM     27  H   UNL     1      35.049 -16.574 -22.996  0.00  0.00    +0.178 HD
BRANCH  24  28
ATOM     28  S   UNL     1      34.489 -16.706 -25.255  0.00  0.00    +0.077 S 
ATOM     29  O   UNL     1      35.573 -16.882 -26.202  0.00  0.00    -0.150 OA
ATOM     30  O   UNL     1      33.169 -17.236 -25.542  0.00  0.00    -0.150 OA
BRANCH  28  31
ATOM     31  C   UNL     1      34.291 -14.975 -24.960  0.00  0.00    +0.125 C 
ATOM     32  C   UNL     1      33.889 -14.153 -25.999  0.00  0.00    +0.020 C 
ATOM     33  C   UNL     1      34.542 -14.472 -23.695  0.00  0.00    +0.020 C 
ATOM     34  C   UNL     1      33.981 -12.263 -24.497  0.00  0.00    -0.022 C 
ATOM     35  C   UNL     1      33.732 -12.786 -25.765  0.00  0.00    -0.003 C 
ATOM     36  C   UNL     1      34.386 -13.106 -23.461  0.00  0.00    -0.003 C 
ATOM     37  C   UNL     1      33.813 -10.803 -24.247  0.00  0.00    +0.031 C 
ENDBRANCH  28  31
ENDBRANCH  24  28
ENDBRANCH  21  23
ENDBRANCH  20  21
ENDBRANCH   2  20
TORSDOF 7
ENDMDL
MODEL 8
REMARK VINA RESULT:     -11.5      3.430     11.501
REMARK  Name = 11677589
REMARK  7 active torsions:
REMARK  status: ('A' for Active; 'I' for Inactive)
REMARK    1  A    between atoms: C_1  and  N_7
REMARK    2  A    between atoms: C_2  and  C_20
REMARK    3  A    between atoms: C_11  and  C_18
REMARK    4  A    between atoms: C_20  and  C_21
REMARK    5  A    between atoms: C_21  and  N_23
REMARK    6  A    between atoms: N_24  and  S_28
REMARK    7  A    between atoms: S_28  and  C_31
REMARK                            x       y       z     vdW  Elec       q    Type
REMARK                         _______ _______ _______ _____ _____    ______ ____
ROOT
ATOM      1  C   UNL     1      33.998 -13.193 -23.789  0.00  0.00    +0.058 C 
ATOM      2  C   UNL     1      34.602 -15.892 -24.036  0.00  0.00    -0.020 C 
ATOM      3  C   UNL     1      33.629 -13.874 -24.941  0.00  0.00    +0.015 C 
ATOM      4  C   UNL     1      34.666 -13.842 -22.758  0.00  0.00    +0.015 C 
ATOM      5  C   UNL     1      33.933 -15.230 -25.065  0.00  0.00    -0.003 C 
ATOM      6  C   UNL     1      34.969 -15.198 -22.883  0.00  0.00    -0.003 C 
ENDROOT
BRANCH   1   7
ATOM      7  N   UNL     1      33.695 -11.836 -23.663  0.00  0.00    -0.242 N 
ATOM      8  N   UNL     1      33.666  -9.659 -24.115  0.00  0.00    -0.387 NA
ATOM      9  N   UNL     1      31.539  -9.526 -21.085  0.00  0.00    -0.408 NA
ATOM     10  C   UNL     1      32.924 -11.269 -22.683  0.00  0.00    +0.091 C 
ATOM     11  C   UNL     1      34.115 -10.835 -24.495  0.00  0.00    +0.168 C 
ATOM     12  C   UNL     1      32.921  -9.911 -22.987  0.00  0.00    +0.172 C 
ATOM     13  C   UNL     1      32.251 -11.803 -21.593  0.00  0.00    +0.045 C 
ATOM     14  C   UNL     1      32.209  -9.042 -22.160  0.00  0.00    +0.140 C 
ATOM     15  C   UNL     1      31.575 -10.858 -20.835  0.00  0.00    +0.110 C 
ATOM     16  C   UNL     1      32.138  -7.570 -22.392  0.00  0.00    +0.069 C 
ATOM     17  C   UNL     1      30.813 -11.318 -19.634  0.00  0.00    +0.066 C 
BRANCH  11  18
ATOM     18  C   UNL     1      34.974 -11.084 -25.673  0.00  0.00    +0.075 C 
ATOM     19  C   UNL     1      36.024  -9.988 -25.880  0.00  0.00    +0.009 C 
ENDBRANCH  11  18
ENDBRANCH   1   7
BRANCH   2  20
ATOM     20  C   UNL     1      34.927 -17.341 -24.169  0.00  0.00    +0.048 C 
BRANCH  20  21
ATOM     21  C   UNL     1      36.063 -17.802 -23.248  0.00  0.00    +0.096 C 
BRANCH  21  23
ATOM     22  O   UNL     1      37.706 -19.291 -21.422  0.00  0.00    -0.251 OA
ATOM     23  N   UNL     1      35.621 -18.763 -22.274  0.00  0.00    -0.287 N 
ATOM     24  N   UNL     1      35.810 -20.346 -20.553  0.00  0.00    -0.169 N 
ATOM     25  C   UNL     1      36.487 -19.439 -21.429  0.00  0.00    +0.319 C 
ATOM     26  H   UNL     1      34.657 -18.951 -22.205  0.00  0.00    +0.151 HD
ATOM     27  H   UNL     1      34.830 -20.403 -20.631  0.00  0.00    +0.178 HD
BRANCH  24  28
ATOM     28  S   UNL     1      36.564 -21.339 -19.384  0.00  0.00    +0.077 S 
ATOM     29  O   UNL     1      37.268 -22.417 -20.051  0.00  0.00    -0.150 OA
ATOM     30  O   UNL     1      37.247 -20.504 -18.415  0.00  0.00    -0.150 OA
BRANCH  28  31
ATOM     31  C   UNL     1      35.156 -22.025 -18.564  0.00  0.00    +0.125 C 
ATOM     32  C   UNL     1      33.906 -21.894 -19.144  0.00  0.00    +0.020 C 
ATOM     33  C   UNL     1      35.330 -22.680 -17.358  0.00  0.00    +0.020 C 
ATOM     34  C   UNL     1      32.952 -23.100 -17.280  0.00  0.00    -0.022 C 
ATOM     35  C   UNL     1      32.795 -22.436 -18.497  0.00  0.00    -0.003 C 
ATOM     36  C   UNL     1      34.219 -23.222 -16.711  0.00  0.00    -0.003 C 
ATOM     37  C   UNL     1      31.765 -23.680 -16.590  0.00  0.00    +0.031 C 
ENDBRANCH  28  31
ENDBRANCH  24  28
ENDBRANCH  21  23
ENDBRANCH  20  21
ENDBRANCH   2  20
TORSDOF 7
ENDMDL
MODEL 9
REMARK VINA RESULT:     -11.2      3.629     11.760
REMARK  Name = 11677589
REMARK  7 active torsions:
REMARK  status: ('A' for Active; 'I' for Inactive)
REMARK    1  A    between atoms: C_1  and  N_7
REMARK    2  A    between atoms: C_2  and  C_20
REMARK    3  A    between atoms: C_11  and  C_18
REMARK    4  A    between atoms: C_20  and  C_21
REMARK    5  A    between atoms: C_21  and  N_23
REMARK    6  A    between atoms: N_24  and  S_28
REMARK    7  A    between atoms: S_28  and  C_31
REMARK                            x       y       z     vdW  Elec       q    Type
REMARK                         _______ _______ _______ _____ _____    ______ ____
ROOT
ATOM      1  C   UNL     1      34.043 -13.986 -22.326  0.00  0.00    +0.058 C 
ATOM      2  C   UNL     1      35.270 -16.469 -22.134  0.00  0.00    -0.020 C 
ATOM      3  C   UNL     1      34.335 -14.510 -21.074  0.00  0.00    +0.015 C 
ATOM      4  C   UNL     1      34.357 -14.685 -23.484  0.00  0.00    +0.015 C 
ATOM      5  C   UNL     1      34.951 -15.758 -20.978  0.00  0.00    -0.003 C 
ATOM      6  C   UNL     1      34.973 -15.933 -23.388  0.00  0.00    -0.003 C 
ENDROOT
BRANCH   1   7
ATOM      7  N   UNL     1      33.426 -12.737 -22.424  0.00  0.00    -0.242 N 
ATOM      8  N   UNL     1      32.007 -11.078 -22.003  0.00  0.00    -0.387 NA
ATOM      9  N   UNL     1      33.916  -9.378 -24.683  0.00  0.00    -0.408 NA
ATOM     10  C   UNL     1      33.774 -11.731 -23.286  0.00  0.00    +0.091 C 
ATOM     11  C   UNL     1      32.366 -12.300 -21.678  0.00  0.00    +0.168 C 
ATOM     12  C   UNL     1      32.874 -10.707 -23.003  0.00  0.00    +0.172 C 
ATOM     13  C   UNL     1      34.761 -11.626 -24.256  0.00  0.00    +0.045 C 
ATOM     14  C   UNL     1      32.965  -9.518 -23.727  0.00  0.00    +0.140 C 
ATOM     15  C   UNL     1      34.767 -10.406 -24.918  0.00  0.00    +0.110 C 
ATOM     16  C   UNL     1      32.054  -8.357 -23.508  0.00  0.00    +0.069 C 
ATOM     17  C   UNL     1      35.788 -10.180 -25.985  0.00  0.00    +0.066 C 
BRANCH  11  18
ATOM     18  C   UNL     1      31.725 -13.133 -20.638  0.00  0.00    +0.075 C 
ATOM     19  C   UNL     1      31.920 -12.570 -19.226  0.00  0.00    +0.009 C 
ENDBRANCH  11  18
ENDBRANCH   1   7
BRANCH   2  20
ATOM     20  C   UNL     1      35.929 -17.803 -22.031  0.00  0.00    +0.048 C 
BRANCH  20  21
ATOM     21  C   UNL     1      34.943 -18.977 -22.063  0.00  0.00    +0.096 C 
BRANCH  21  23
ATOM     22  O   UNL     1      33.070 -20.816 -20.895  0.00  0.00    -0.251 OA
ATOM     23  N   UNL     1      35.207 -19.940 -21.028  0.00  0.00    -0.287 N 
ATOM     24  N   UNL     1      34.743 -21.654 -19.495  0.00  0.00    -0.169 N 
ATOM     25  C   UNL     1      34.239 -20.792 -20.521  0.00  0.00    +0.319 C 
ATOM     26  H   UNL     1      36.119 -19.996 -20.661  0.00  0.00    +0.151 HD
ATOM     27  H   UNL     1      35.693 -21.563 -19.255  0.00  0.00    +0.178 HD
BRANCH  24  28
ATOM     28  S   UNL     1      33.828 -22.826 -18.652  0.00  0.00    +0.077 S 
ATOM     29  O   UNL     1      32.539 -22.265 -18.295  0.00  0.00    -0.150 OA
ATOM     30  O   UNL     1      33.910 -24.093 -19.355  0.00  0.00    -0.150 OA
BRANCH  28  31
ATOM     31  C   UNL     1      34.781 -23.000 -17.174  0.00  0.00    +0.125 C 
ATOM     32  C   UNL     1      34.235 -23.668 -16.091  0.00  0.00    +0.020 C 
ATOM     33  C   UNL     1      36.057 -22.465 -17.125  0.00  0.00    +0.020 C 
ATOM     34  C   UNL     1      36.275 -23.272 -14.859  0.00  0.00    -0.022 C 
ATOM     35  C   UNL     1      34.988 -23.805 -14.925  0.00  0.00    -0.003 C 
ATOM     36  C   UNL     1      36.810 -22.602 -15.959  0.00  0.00    -0.003 C 
ATOM     37  C   UNL     1      37.079 -23.420 -13.613  0.00  0.00    +0.031 C 
ENDBRANCH  28  31
ENDBRANCH  24  28
ENDBRANCH  21  23
ENDBRANCH  20  21
ENDBRANCH   2  20
TORSDOF 7
ENDMDL
