MODEL 1
REMARK VINA RESULT:     -12.1      0.000      0.000
REMARK  Name = 6419766
REMARK  1 active torsions:
REMARK  status: ('A' for Active; 'I' for Inactive)
REMARK    1  A    between atoms: C_9  and  C_20
REMARK                            x       y       z     vdW  Elec       q    Type
REMARK                         _______ _______ _______ _____ _____    ______ ____
ROOT
ATOM      1  N   UNL     1      34.488 -24.180 -14.811  0.00  0.00    -0.274 N 
ATOM      2  N   UNL     1      34.256 -23.057 -16.866  0.00  0.00    -0.328 NA
ATOM      3  N   UNL     1      32.081 -22.726 -17.847  0.00  0.00    -0.343 NA
ATOM      4  N   UNL     1      37.712 -25.206 -15.353  0.00  0.00    -0.239 N 
ATOM      5  N   UNL     1      36.575 -24.710 -15.870  0.00  0.00    -0.166 NA
ATOM      6  C   UNL     1      32.274 -23.874 -15.752  0.00  0.00    +0.143 C 
ATOM      7  C   UNL     1      33.650 -23.688 -15.843  0.00  0.00    +0.185 C 
ATOM      8  C   UNL     1      31.507 -23.360 -16.811  0.00  0.00    +0.133 C 
ATOM      9  C   UNL     1      33.424 -22.609 -17.820  0.00  0.00    +0.138 C 
ATOM     10  C   UNL     1      35.813 -24.646 -14.807  0.00  0.00    +0.152 C 
ATOM     11  C   UNL     1      31.663 -24.537 -14.671  0.00  0.00    -0.011 C 
ATOM     12  C   UNL     1      30.127 -23.528 -16.754  0.00  0.00    +0.029 C 
ATOM     13  C   UNL     1      36.386 -25.072 -13.622  0.00  0.00    +0.048 C 
ATOM     14  C   UNL     1      37.651 -25.442 -14.011  0.00  0.00    +0.046 C 
ATOM     15  C   UNL     1      30.281 -24.690 -14.642  0.00  0.00    -0.004 C 
ATOM     16  C   UNL     1      29.511 -24.186 -15.684  0.00  0.00    +0.002 C 
ATOM     17  C   UNL     1      38.793 -25.986 -13.257  0.00  0.00    +0.049 C 
ATOM     18  H   UNL     1      34.058 -24.199 -13.926  0.00  0.00    +0.156 HD
ATOM     19  H   UNL     1      38.514 -25.385 -15.894  0.00  0.00    +0.174 HD
ENDROOT
BRANCH   9  20
ATOM     20  C   UNL     1      34.030 -21.928 -18.933  0.00  0.00    +0.086 C 
ATOM     21  C   UNL     1      33.248 -21.159 -19.800  0.00  0.00    +0.012 C 
ATOM     22  C   UNL     1      35.407 -22.029 -19.155  0.00  0.00    +0.012 C 
ATOM     23  C   UNL     1      33.836 -20.498 -20.878  0.00  0.00    +0.001 C 
ATOM     24  C   UNL     1      35.996 -21.368 -20.233  0.00  0.00    +0.001 C 
ATOM     25  C   UNL     1      35.210 -20.601 -21.095  0.00  0.00    +0.000 C 
ENDBRANCH   9  20
TORSDOF 1
ENDMDL
MODEL 2
REMARK VINA RESULT:     -11.4      1.500      5.750
REMARK  Name = 6419766
REMARK  1 active torsions:
REMARK  status: ('A' for Active; 'I' for Inactive)
REMARK    1  A    between atoms: C_9  and  C_20
REMARK                            x       y       z     vdW  Elec       q    Type
REMARK                         _______ _______ _______ _____ _____    ______ ____
ROOT
ATOM      1  N   UNL     1      33.503 -22.633 -18.371  0.00  0.00    -0.274 N 
ATOM      2  N   UNL     1      34.882 -23.816 -16.875  0.00  0.00    -0.328 NA
ATOM      3  N   UNL     1      33.998 -24.675 -14.806  0.00  0.00    -0.343 NA
ATOM      4  N   UNL     1      36.047 -20.877 -19.850  0.00  0.00    -0.239 N 
ATOM      5  N   UNL     1      35.641 -21.640 -18.822  0.00  0.00    -0.166 NA
ATOM      6  C   UNL     1      32.559 -23.475 -16.302  0.00  0.00    +0.143 C 
ATOM      7  C   UNL     1      33.656 -23.330 -17.146  0.00  0.00    +0.185 C 
ATOM      8  C   UNL     1      32.786 -24.176 -15.106  0.00  0.00    +0.133 C 
ATOM      9  C   UNL     1      34.980 -24.468 -15.705  0.00  0.00    +0.138 C 
ATOM     10  C   UNL     1      34.391 -21.865 -19.141  0.00  0.00    +0.152 C 
ATOM     11  C   UNL     1      31.288 -22.957 -16.607  0.00  0.00    -0.011 C 
ATOM     12  C   UNL     1      31.711 -24.342 -14.237  0.00  0.00    +0.029 C 
ATOM     13  C   UNL     1      33.955 -21.291 -20.323  0.00  0.00    +0.048 C 
ATOM     14  C   UNL     1      35.075 -20.638 -20.777  0.00  0.00    +0.046 C 
ATOM     15  C   UNL     1      30.233 -23.138 -15.719  0.00  0.00    -0.004 C 
ATOM     16  C   UNL     1      30.444 -23.830 -14.532  0.00  0.00    +0.002 C 
ATOM     17  C   UNL     1      35.319 -19.824 -21.979  0.00  0.00    +0.049 C 
ATOM     18  H   UNL     1      32.600 -22.701 -18.756  0.00  0.00    +0.156 HD
ATOM     19  H   UNL     1      36.962 -20.523 -19.928  0.00  0.00    +0.174 HD
ENDROOT
BRANCH   9  20
ATOM     20  C   UNL     1      36.274 -25.005 -15.375  0.00  0.00    +0.086 C 
ATOM     21  C   UNL     1      37.345 -24.149 -15.105  0.00  0.00    +0.012 C 
ATOM     22  C   UNL     1      36.468 -26.389 -15.322  0.00  0.00    +0.012 C 
ATOM     23  C   UNL     1      38.598 -24.670 -14.784  0.00  0.00    +0.001 C 
ATOM     24  C   UNL     1      37.721 -26.911 -15.000  0.00  0.00    +0.001 C 
ATOM     25  C   UNL     1      38.787 -26.051 -14.731  0.00  0.00    +0.000 C 
ENDBRANCH   9  20
TORSDOF 1
ENDMDL
MODEL 3
REMARK VINA RESULT:     -11.4      1.208      4.941
REMARK  Name = 6419766
REMARK  1 active torsions:
REMARK  status: ('A' for Active; 'I' for Inactive)
REMARK    1  A    between atoms: C_9  and  C_20
REMARK                            x       y       z     vdW  Elec       q    Type
REMARK                         _______ _______ _______ _____ _____    ______ ____
ROOT
ATOM      1  N   UNL     1      35.999 -23.409 -16.432  0.00  0.00    -0.274 N 
ATOM      2  N   UNL     1      33.647 -23.465 -16.480  0.00  0.00    -0.328 NA
ATOM      3  N   UNL     1      32.429 -22.427 -18.280  0.00  0.00    -0.343 NA
ATOM      4  N   UNL     1      36.272 -23.768 -13.035  0.00  0.00    -0.239 N 
ATOM      5  N   UNL     1      35.487 -23.489 -14.089  0.00  0.00    -0.166 NA
ATOM      6  C   UNL     1      34.825 -22.347 -18.269  0.00  0.00    +0.143 C 
ATOM      7  C   UNL     1      34.785 -23.065 -17.077  0.00  0.00    +0.185 C 
ATOM      8  C   UNL     1      33.583 -22.042 -18.850  0.00  0.00    +0.133 C 
ATOM      9  C   UNL     1      32.523 -23.117 -17.125  0.00  0.00    +0.138 C 
ATOM     10  C   UNL     1      36.332 -23.605 -15.082  0.00  0.00    +0.152 C 
ATOM     11  C   UNL     1      36.027 -21.940 -18.874  0.00  0.00    -0.011 C 
ATOM     12  C   UNL     1      33.584 -21.324 -20.044  0.00  0.00    +0.029 C 
ATOM     13  C   UNL     1      37.629 -23.945 -14.738  0.00  0.00    +0.048 C 
ATOM     14  C   UNL     1      37.565 -24.047 -13.370  0.00  0.00    +0.046 C 
ATOM     15  C   UNL     1      35.997 -21.224 -20.067  0.00  0.00    -0.004 C 
ATOM     16  C   UNL     1      34.775 -20.915 -20.652  0.00  0.00    +0.002 C 
ATOM     17  C   UNL     1      38.583 -24.378 -12.359  0.00  0.00    +0.049 C 
ATOM     18  H   UNL     1      36.754 -23.536 -17.050  0.00  0.00    +0.156 HD
ATOM     19  H   UNL     1      35.945 -23.770 -12.107  0.00  0.00    +0.174 HD
ENDROOT
BRANCH   9  20
ATOM     20  C   UNL     1      31.282 -23.525 -16.521  0.00  0.00    +0.086 C 
ATOM     21  C   UNL     1      30.088 -22.878 -16.855  0.00  0.00    +0.012 C 
ATOM     22  C   UNL     1      31.260 -24.574 -15.596  0.00  0.00    +0.012 C 
ATOM     23  C   UNL     1      28.886 -23.275 -16.271  0.00  0.00    +0.001 C 
ATOM     24  C   UNL     1      30.059 -24.971 -15.012  0.00  0.00    +0.001 C 
ATOM     25  C   UNL     1      28.870 -24.323 -15.349  0.00  0.00    +0.000 C 
ENDBRANCH   9  20
TORSDOF 1
ENDMDL
MODEL 4
REMARK VINA RESULT:     -10.4      1.711      6.488
REMARK  Name = 6419766
REMARK  1 active torsions:
REMARK  status: ('A' for Active; 'I' for Inactive)
REMARK    1  A    between atoms: C_9  and  C_20
REMARK                            x       y       z     vdW  Elec       q    Type
REMARK                         _______ _______ _______ _____ _____    ______ ____
ROOT
ATOM      1  N   UNL     1      36.648 -22.455 -17.032  0.00  0.00    -0.274 N 
ATOM      2  N   UNL     1      34.724 -23.321 -15.990  0.00  0.00    -0.328 NA
ATOM      3  N   UNL     1      34.907 -24.982 -14.255  0.00  0.00    -0.343 NA
ATOM      4  N   UNL     1      35.078 -21.566 -19.945  0.00  0.00    -0.239 N 
ATOM      5  N   UNL     1      35.036 -22.266 -18.800  0.00  0.00    -0.166 NA
ATOM      6  C   UNL     1      36.892 -24.125 -15.291  0.00  0.00    +0.143 C 
ATOM      7  C   UNL     1      36.067 -23.326 -16.076  0.00  0.00    +0.185 C 
ATOM      8  C   UNL     1      36.247 -24.962 -14.366  0.00  0.00    +0.133 C 
ATOM      9  C   UNL     1      34.218 -24.161 -15.073  0.00  0.00    +0.138 C 
ATOM     10  C   UNL     1      36.194 -21.966 -18.268  0.00  0.00    +0.152 C 
ATOM     11  C   UNL     1      38.295 -24.112 -15.399  0.00  0.00    -0.011 C 
ATOM     12  C   UNL     1      37.040 -25.776 -13.563  0.00  0.00    +0.029 C 
ATOM     13  C   UNL     1      36.995 -21.107 -19.001  0.00  0.00    +0.048 C 
ATOM     14  C   UNL     1      36.231 -20.855 -20.115  0.00  0.00    +0.046 C 
ATOM     15  C   UNL     1      39.062 -24.937 -14.583  0.00  0.00    -0.004 C 
ATOM     16  C   UNL     1      38.435 -25.770 -13.664  0.00  0.00    +0.002 C 
ATOM     17  C   UNL     1      36.472 -20.024 -21.305  0.00  0.00    +0.049 C 
ATOM     18  H   UNL     1      37.542 -22.130 -16.781  0.00  0.00    +0.156 HD
ATOM     19  H   UNL     1      34.346 -21.566 -20.603  0.00  0.00    +0.174 HD
ENDROOT
BRANCH   9  20
ATOM     20  C   UNL     1      32.784 -24.188 -14.947  0.00  0.00    +0.086 C 
ATOM     21  C   UNL     1      31.996 -23.292 -15.675  0.00  0.00    +0.012 C 
ATOM     22  C   UNL     1      32.170 -25.112 -14.097  0.00  0.00    +0.012 C 
ATOM     23  C   UNL     1      30.607 -23.319 -15.554  0.00  0.00    +0.001 C 
ATOM     24  C   UNL     1      30.781 -25.140 -13.976  0.00  0.00    +0.001 C 
ATOM     25  C   UNL     1      29.998 -24.244 -14.705  0.00  0.00    +0.000 C 
ENDBRANCH   9  20
TORSDOF 1
ENDMDL
MODEL 5
REMARK VINA RESULT:      -9.8      1.620      6.494
REMARK  Name = 6419766
REMARK  1 active torsions:
REMARK  status: ('A' for Active; 'I' for Inactive)
REMARK    1  A    between atoms: C_9  and  C_20
REMARK                            x       y       z     vdW  Elec       q    Type
REMARK                         _______ _______ _______ _____ _____    ______ ____
ROOT
ATOM      1  N   UNL     1      32.889 -23.171 -16.408  0.00  0.00    -0.274 N 
ATOM      2  N   UNL     1      35.003 -23.430 -15.408  0.00  0.00    -0.328 NA
ATOM      3  N   UNL     1      37.008 -22.813 -16.594  0.00  0.00    -0.343 NA
ATOM      4  N   UNL     1      31.338 -25.586 -14.536  0.00  0.00    -0.239 N 
ATOM      5  N   UNL     1      32.491 -25.036 -14.952  0.00  0.00    -0.166 NA
ATOM      6  C   UNL     1      34.873 -22.532 -17.648  0.00  0.00    +0.143 C 
ATOM      7  C   UNL     1      34.299 -23.042 -16.487  0.00  0.00    +0.185 C 
ATOM      8  C   UNL     1      36.274 -22.434 -17.654  0.00  0.00    +0.133 C 
ATOM      9  C   UNL     1      36.333 -23.291 -15.529  0.00  0.00    +0.138 C 
ATOM     10  C   UNL     1      32.057 -24.067 -15.718  0.00  0.00    +0.152 C 
ATOM     11  C   UNL     1      34.114 -22.133 -18.763  0.00  0.00    -0.011 C 
ATOM     12  C   UNL     1      36.884 -21.928 -18.799  0.00  0.00    +0.029 C 
ATOM     13  C   UNL     1      30.682 -23.950 -15.828  0.00  0.00    +0.048 C 
ATOM     14  C   UNL     1      30.224 -24.973 -15.033  0.00  0.00    +0.046 C 
ATOM     15  C   UNL     1      34.751 -21.632 -19.893  0.00  0.00    -0.004 C 
ATOM     16  C   UNL     1      36.137 -21.529 -19.912  0.00  0.00    +0.002 C 
ATOM     17  C   UNL     1      28.864 -25.425 -14.698  0.00  0.00    +0.049 C 
ATOM     18  H   UNL     1      32.399 -22.503 -16.939  0.00  0.00    +0.156 HD
ATOM     19  H   UNL     1      31.299 -26.360 -13.930  0.00  0.00    +0.174 HD
ENDROOT
BRANCH   9  20
ATOM     20  C   UNL     1      37.127 -23.694 -14.397  0.00  0.00    +0.086 C 
ATOM     21  C   UNL     1      36.880 -23.150 -13.133  0.00  0.00    +0.012 C 
ATOM     22  C   UNL     1      38.150 -24.634 -14.554  0.00  0.00    +0.012 C 
ATOM     23  C   UNL     1      37.648 -23.542 -12.037  0.00  0.00    +0.001 C 
ATOM     24  C   UNL     1      38.918 -25.026 -13.459  0.00  0.00    +0.001 C 
ATOM     25  C   UNL     1      38.667 -24.481 -12.199  0.00  0.00    +0.000 C 
ENDBRANCH   9  20
TORSDOF 1
ENDMDL
MODEL 6
REMARK VINA RESULT:      -9.5      1.386      5.099
REMARK  Name = 6419766
REMARK  1 active torsions:
REMARK  status: ('A' for Active; 'I' for Inactive)
REMARK    1  A    between atoms: C_9  and  C_20
REMARK                            x       y       z     vdW  Elec       q    Type
REMARK                         _______ _______ _______ _____ _____    ______ ____
ROOT
ATOM      1  N   UNL     1      33.722 -24.855 -15.158  0.00  0.00    -0.274 N 
ATOM      2  N   UNL     1      34.662 -23.478 -16.818  0.00  0.00    -0.328 NA
ATOM      3  N   UNL     1      37.011 -22.943 -16.786  0.00  0.00    -0.343 NA
ATOM      4  N   UNL     1      30.541 -23.618 -15.463  0.00  0.00    -0.239 N 
ATOM      5  N   UNL     1      31.848 -23.469 -15.730  0.00  0.00    -0.166 NA
ATOM      6  C   UNL     1      36.092 -24.350 -15.076  0.00  0.00    +0.143 C 
ATOM      7  C   UNL     1      34.858 -24.206 -15.703  0.00  0.00    +0.185 C 
ATOM      8  C   UNL     1      37.172 -23.679 -15.672  0.00  0.00    +0.133 C 
ATOM      9  C   UNL     1      35.765 -22.881 -17.298  0.00  0.00    +0.138 C 
ATOM     10  C   UNL     1      32.355 -24.534 -15.162  0.00  0.00    +0.152 C 
ATOM     11  C   UNL     1      36.271 -25.118 -13.911  0.00  0.00    -0.011 C 
ATOM     12  C   UNL     1      38.422 -23.799 -15.073  0.00  0.00    +0.029 C 
ATOM     13  C   UNL     1      31.451 -25.375 -14.536  0.00  0.00    +0.048 C 
ATOM     14  C   UNL     1      30.249 -24.744 -14.749  0.00  0.00    +0.046 C 
ATOM     15  C   UNL     1      37.533 -25.220 -13.334  0.00  0.00    -0.004 C 
ATOM     16  C   UNL     1      38.610 -24.560 -13.914  0.00  0.00    +0.002 C 
ATOM     17  C   UNL     1      28.874 -25.089 -14.355  0.00  0.00    +0.049 C 
ATOM     18  H   UNL     1      33.932 -25.692 -14.686  0.00  0.00    +0.156 HD
ATOM     19  H   UNL     1      29.855 -22.975 -15.754  0.00  0.00    +0.174 HD
ENDROOT
BRANCH   9  20
ATOM     20  C   UNL     1      35.602 -22.091 -18.490  0.00  0.00    +0.086 C 
ATOM     21  C   UNL     1      34.336 -21.929 -19.060  0.00  0.00    +0.012 C 
ATOM     22  C   UNL     1      36.709 -21.479 -19.086  0.00  0.00    +0.012 C 
ATOM     23  C   UNL     1      34.178 -21.163 -20.215  0.00  0.00    +0.001 C 
ATOM     24  C   UNL     1      36.551 -20.712 -20.240  0.00  0.00    +0.001 C 
ATOM     25  C   UNL     1      35.285 -20.553 -20.805  0.00  0.00    +0.000 C 
ENDBRANCH   9  20
TORSDOF 1
ENDMDL
MODEL 7
REMARK VINA RESULT:      -9.2     11.341     14.563
REMARK  Name = 6419766
REMARK  1 active torsions:
REMARK  status: ('A' for Active; 'I' for Inactive)
REMARK    1  A    between atoms: C_9  and  C_20
REMARK                            x       y       z     vdW  Elec       q    Type
REMARK                         _______ _______ _______ _____ _____    ______ ____
ROOT
ATOM      1  N   UNL     1      32.860  -9.356 -22.660  0.00  0.00    -0.274 N 
ATOM      2  N   UNL     1      33.287 -11.607 -23.196  0.00  0.00    -0.328 NA
ATOM      3  N   UNL     1      32.829 -13.357 -21.606  0.00  0.00    -0.343 NA
ATOM      4  N   UNL     1      35.146  -8.051 -24.855  0.00  0.00    -0.239 N 
ATOM      5  N   UNL     1      34.689  -9.130 -24.197  0.00  0.00    -0.166 NA
ATOM      6  C   UNL     1      32.380 -11.076 -21.020  0.00  0.00    +0.143 C 
ATOM      7  C   UNL     1      32.843 -10.722 -22.284  0.00  0.00    +0.185 C 
ATOM      8  C   UNL     1      32.392 -12.447 -20.717  0.00  0.00    +0.133 C 
ATOM      9  C   UNL     1      33.254 -12.888 -22.796  0.00  0.00    +0.138 C 
ATOM     10  C   UNL     1      33.688  -8.621 -23.524  0.00  0.00    +0.152 C 
ATOM     11  C   UNL     1      31.920 -10.132 -20.084  0.00  0.00    -0.011 C 
ATOM     12  C   UNL     1      31.936 -12.839 -19.462  0.00  0.00    +0.029 C 
ATOM     13  C   UNL     1      33.462  -7.267 -23.704  0.00  0.00    +0.048 C 
ATOM     14  C   UNL     1      34.446  -6.909 -24.594  0.00  0.00    +0.046 C 
ATOM     15  C   UNL     1      31.470 -10.553 -18.837  0.00  0.00    -0.004 C 
ATOM     16  C   UNL     1      31.478 -11.908 -18.525  0.00  0.00    +0.002 C 
ATOM     17  C   UNL     1      34.789  -5.620 -25.215  0.00  0.00    +0.049 C 
ATOM     18  H   UNL     1      32.155  -8.818 -22.234  0.00  0.00    +0.156 HD
ATOM     19  H   UNL     1      35.915  -8.081 -25.468  0.00  0.00    +0.174 HD
ENDROOT
BRANCH   9  20
ATOM     20  C   UNL     1      33.719 -13.869 -23.741  0.00  0.00    +0.086 C 
ATOM     21  C   UNL     1      34.644 -14.841 -23.350  0.00  0.00    +0.012 C 
ATOM     22  C   UNL     1      33.249 -13.856 -25.058  0.00  0.00    +0.012 C 
ATOM     23  C   UNL     1      35.093 -15.793 -24.265  0.00  0.00    +0.001 C 
ATOM     24  C   UNL     1      33.698 -14.807 -25.974  0.00  0.00    +0.001 C 
ATOM     25  C   UNL     1      34.621 -15.776 -25.578  0.00  0.00    +0.000 C 
ENDBRANCH   9  20
TORSDOF 1
ENDMDL
