MODEL 1
REMARK VINA RESULT:     -11.7      0.000      0.000
REMARK  Name = 24880024
REMARK  5 active torsions:
REMARK  status: ('A' for Active; 'I' for Inactive)
REMARK    1  A    between atoms: N_5  and  C_12
REMARK    2  A    between atoms: C_6  and  C_22
REMARK    3  A    between atoms: C_13  and  C_21
REMARK    4  A    between atoms: C_22  and  C_23
REMARK    5  A    between atoms: C_23  and  N_25
REMARK                            x       y       z     vdW  Elec       q    Type
REMARK                         _______ _______ _______ _____ _____    ______ ____
ROOT
ATOM      1  S   UNL     1      36.744 -20.566 -20.109  0.00  0.00    -0.056 S 
ATOM      2  O   UNL     1      35.450 -23.413 -16.642  0.00  0.00    -0.252 OA
ATOM      3  N   UNL     1      34.740 -21.855 -19.105  0.00  0.00    -0.223 NA
ATOM      4  N   UNL     1      36.851 -22.066 -17.962  0.00  0.00    -0.248 N 
ATOM      5  N   UNL     1      37.709 -23.162 -16.088  0.00  0.00    -0.268 N 
ATOM      6  C   UNL     1      35.229 -20.438 -20.902  0.00  0.00    +0.031 C 
ATOM      7  C   UNL     1      34.288 -21.187 -20.225  0.00  0.00    +0.103 C 
ATOM      8  C   UNL     1      36.021 -21.600 -18.946  0.00  0.00    +0.166 C 
ATOM      9  C   UNL     1      36.559 -22.937 -16.863  0.00  0.00    +0.310 C 
ATOM     10  H   UNL     1      37.785 -21.758 -18.018  0.00  0.00    +0.158 HD
ATOM     11  H   UNL     1      38.529 -22.711 -16.391  0.00  0.00    +0.156 HD
ENDROOT
BRANCH   5  12
ATOM     12  C   UNL     1      37.833 -23.960 -14.926  0.00  0.00    +0.052 C 
ATOM     13  C   UNL     1      37.105 -24.536 -12.696  0.00  0.00    +0.073 C 
ATOM     14  C   UNL     1      36.983 -23.750 -13.841  0.00  0.00    +0.019 C 
ATOM     15  C   UNL     1      38.805 -24.959 -14.867  0.00  0.00    +0.015 C 
ATOM     16  C   UNL     1      38.077 -25.535 -12.637  0.00  0.00    +0.004 C 
ATOM     17  C   UNL     1      38.927 -25.747 -13.723  0.00  0.00    +0.001 C 
BRANCH  13  21
ATOM     18  F   UNL     1      35.754 -25.465 -10.954  0.00  0.00    -0.166 F 
ATOM     19  F   UNL     1      36.774 -23.601 -10.520  0.00  0.00    -0.166 F 
ATOM     20  F   UNL     1      35.073 -23.617 -11.874  0.00  0.00    -0.166 F 
ATOM     21  C   UNL     1      36.197 -24.311 -11.534  0.00  0.00    +0.419 C 
ENDBRANCH  13  21
ENDBRANCH   5  12
BRANCH   6  22
ATOM     22  C   UNL     1      35.082 -19.597 -22.147  0.00  0.00    +0.056 C 
BRANCH  22  23
ATOM     23  C   UNL     1      36.209 -18.580 -22.319  0.00  0.00    +0.093 C 
BRANCH  23  25
ATOM     24  S   UNL     1      34.570 -14.239 -22.349  0.00  0.00    -0.101 S 
ATOM     25  N   UNL     1      35.690 -17.248 -22.395  0.00  0.00    -0.320 N 
ATOM     26  N   UNL     1      35.205 -17.416 -24.719  0.00  0.00    -0.233 NA
ATOM     27  N   UNL     1      34.225 -15.594 -25.973  0.00  0.00    -0.247 NA
ATOM     28  C   UNL     1      35.197 -16.685 -23.587  0.00  0.00    +0.118 C 
ATOM     29  C   UNL     1      34.702 -15.387 -23.619  0.00  0.00    +0.145 C 
ATOM     30  C   UNL     1      34.224 -14.870 -24.823  0.00  0.00    +0.073 C 
ATOM     31  C   UNL     1      33.754 -13.530 -24.678  0.00  0.00    +0.022 C 
ATOM     32  C   UNL     1      33.885 -13.068 -23.388  0.00  0.00    +0.033 C 
ATOM     33  C   UNL     1      34.723 -16.832 -25.832  0.00  0.00    +0.251 C 
ATOM     34  H   UNL     1      35.679 -16.700 -21.577  0.00  0.00    +0.148 HD
ENDBRANCH  23  25
ENDBRANCH  22  23
ENDBRANCH   6  22
TORSDOF 5
ENDMDL
MODEL 2
REMARK VINA RESULT:     -11.4      1.107      1.772
REMARK  Name = 24880024
REMARK  5 active torsions:
REMARK  status: ('A' for Active; 'I' for Inactive)
REMARK    1  A    between atoms: N_5  and  C_12
REMARK    2  A    between atoms: C_6  and  C_22
REMARK    3  A    between atoms: C_13  and  C_21
REMARK    4  A    between atoms: C_22  and  C_23
REMARK    5  A    between atoms: C_23  and  N_25
REMARK                            x       y       z     vdW  Elec       q    Type
REMARK                         _______ _______ _______ _____ _____    ______ ____
ROOT
ATOM      1  S   UNL     1      36.658 -20.655 -20.179  0.00  0.00    -0.056 S 
ATOM      2  O   UNL     1      35.424 -23.408 -16.616  0.00  0.00    -0.252 OA
ATOM      3  N   UNL     1      34.668 -21.902 -19.097  0.00  0.00    -0.223 NA
ATOM      4  N   UNL     1      36.804 -22.105 -18.000  0.00  0.00    -0.248 N 
ATOM      5  N   UNL     1      37.697 -23.165 -16.121  0.00  0.00    -0.268 N 
ATOM      6  C   UNL     1      35.125 -20.533 -20.939  0.00  0.00    +0.031 C 
ATOM      7  C   UNL     1      34.195 -21.257 -20.222  0.00  0.00    +0.103 C 
ATOM      8  C   UNL     1      35.954 -21.655 -18.975  0.00  0.00    +0.166 C 
ATOM      9  C   UNL     1      36.531 -22.948 -16.874  0.00  0.00    +0.310 C 
ATOM     10  H   UNL     1      37.739 -21.807 -18.086  0.00  0.00    +0.158 HD
ATOM     11  H   UNL     1      38.513 -22.728 -16.454  0.00  0.00    +0.156 HD
ENDROOT
BRANCH   5  12
ATOM     12  C   UNL     1      37.842 -23.936 -14.944  0.00  0.00    +0.052 C 
ATOM     13  C   UNL     1      37.143 -24.473 -12.695  0.00  0.00    +0.073 C 
ATOM     14  C   UNL     1      37.000 -23.712 -13.855  0.00  0.00    +0.019 C 
ATOM     15  C   UNL     1      38.827 -24.921 -14.873  0.00  0.00    +0.015 C 
ATOM     16  C   UNL     1      38.128 -25.458 -12.624  0.00  0.00    +0.004 C 
ATOM     17  C   UNL     1      38.970 -25.683 -13.713  0.00  0.00    +0.001 C 
BRANCH  13  21
ATOM     18  F   UNL     1      36.812 -23.479 -10.544  0.00  0.00    -0.166 F 
ATOM     19  F   UNL     1      35.088 -23.582 -11.856  0.00  0.00    -0.166 F 
ATOM     20  F   UNL     1      35.852 -25.392 -10.923  0.00  0.00    -0.166 F 
ATOM     21  C   UNL     1      36.243 -24.234 -11.529  0.00  0.00    +0.419 C 
ENDBRANCH  13  21
ENDBRANCH   5  12
BRANCH   6  22
ATOM     22  C   UNL     1      34.956 -19.720 -22.199  0.00  0.00    +0.056 C 
BRANCH  22  23
ATOM     23  C   UNL     1      36.007 -18.622 -22.350  0.00  0.00    +0.093 C 
BRANCH  23  25
ATOM     24  S   UNL     1      34.479 -15.314 -25.222  0.00  0.00    -0.101 S 
ATOM     25  N   UNL     1      35.525 -17.561 -23.182  0.00  0.00    -0.320 N 
ATOM     26  N   UNL     1      35.094 -16.119 -21.338  0.00  0.00    -0.233 NA
ATOM     27  N   UNL     1      34.190 -13.892 -21.619  0.00  0.00    -0.247 NA
ATOM     28  C   UNL     1      35.076 -16.330 -22.669  0.00  0.00    +0.118 C 
ATOM     29  C   UNL     1      34.614 -15.325 -23.511  0.00  0.00    +0.145 C 
ATOM     30  C   UNL     1      34.178 -14.121 -22.959  0.00  0.00    +0.073 C 
ATOM     31  C   UNL     1      33.739 -13.204 -23.961  0.00  0.00    +0.022 C 
ATOM     32  C   UNL     1      33.849 -13.725 -25.229  0.00  0.00    +0.033 C 
ATOM     33  C   UNL     1      34.655 -14.925 -20.898  0.00  0.00    +0.251 C 
ATOM     34  H   UNL     1      35.504 -17.700 -24.156  0.00  0.00    +0.148 HD
ENDBRANCH  23  25
ENDBRANCH  22  23
ENDBRANCH   6  22
TORSDOF 5
ENDMDL
MODEL 3
REMARK VINA RESULT:     -11.2      2.441      3.178
REMARK  Name = 24880024
REMARK  5 active torsions:
REMARK  status: ('A' for Active; 'I' for Inactive)
REMARK    1  A    between atoms: N_5  and  C_12
REMARK    2  A    between atoms: C_6  and  C_22
REMARK    3  A    between atoms: C_13  and  C_21
REMARK    4  A    between atoms: C_22  and  C_23
REMARK    5  A    between atoms: C_23  and  N_25
REMARK                            x       y       z     vdW  Elec       q    Type
REMARK                         _______ _______ _______ _____ _____    ______ ____
ROOT
ATOM      1  S   UNL     1      36.780 -19.200 -21.295  0.00  0.00    -0.056 S 
ATOM      2  O   UNL     1      35.367 -22.434 -18.237  0.00  0.00    -0.252 OA
ATOM      3  N   UNL     1      34.825 -20.775 -20.677  0.00  0.00    -0.223 NA
ATOM      4  N   UNL     1      36.766 -20.842 -19.252  0.00  0.00    -0.248 N 
ATOM      5  N   UNL     1      37.480 -21.981 -17.343  0.00  0.00    -0.268 N 
ATOM      6  C   UNL     1      35.385 -19.178 -22.293  0.00  0.00    +0.031 C 
ATOM      7  C   UNL     1      34.456 -20.076 -21.809  0.00  0.00    +0.103 C 
ATOM      8  C   UNL     1      36.031 -20.395 -20.317  0.00  0.00    +0.166 C 
ATOM      9  C   UNL     1      36.431 -21.823 -18.263  0.00  0.00    +0.310 C 
ATOM     10  H   UNL     1      37.655 -20.430 -19.151  0.00  0.00    +0.158 HD
ATOM     11  H   UNL     1      38.275 -21.419 -17.493  0.00  0.00    +0.156 HD
ENDROOT
BRANCH   5  12
ATOM     12  C   UNL     1      37.536 -22.848 -16.226  0.00  0.00    +0.052 C 
ATOM     13  C   UNL     1      38.657 -24.590 -14.984  0.00  0.00    +0.073 C 
ATOM     14  C   UNL     1      38.602 -23.736 -16.085  0.00  0.00    +0.019 C 
ATOM     15  C   UNL     1      36.525 -22.814 -15.266  0.00  0.00    +0.015 C 
ATOM     16  C   UNL     1      37.646 -24.557 -14.024  0.00  0.00    +0.004 C 
ATOM     17  C   UNL     1      36.579 -23.668 -14.165  0.00  0.00    +0.001 C 
BRANCH  13  21
ATOM     18  F   UNL     1      40.564 -25.304 -13.728  0.00  0.00    -0.166 F 
ATOM     19  F   UNL     1      39.408 -26.846 -14.722  0.00  0.00    -0.166 F 
ATOM     20  F   UNL     1      40.656 -25.503 -15.891  0.00  0.00    -0.166 F 
ATOM     21  C   UNL     1      39.797 -25.541 -14.832  0.00  0.00    +0.419 C 
ENDBRANCH  13  21
ENDBRANCH   5  12
BRANCH   6  22
ATOM     22  C   UNL     1      35.314 -18.264 -23.492  0.00  0.00    +0.056 C 
BRANCH  22  23
ATOM     23  C   UNL     1      35.900 -16.878 -23.225  0.00  0.00    +0.093 C 
BRANCH  23  25
ATOM     24  S   UNL     1      32.984 -14.446 -20.559  0.00  0.00    -0.101 S 
ATOM     25  N   UNL     1      34.997 -16.080 -22.452  0.00  0.00    -0.320 N 
ATOM     26  N   UNL     1      34.854 -14.379 -24.110  0.00  0.00    -0.233 NA
ATOM     27  N   UNL     1      33.494 -12.399 -23.820  0.00  0.00    -0.247 NA
ATOM     28  C   UNL     1      34.489 -14.847 -22.900  0.00  0.00    +0.118 C 
ATOM     29  C   UNL     1      33.614 -14.102 -22.118  0.00  0.00    +0.145 C 
ATOM     30  C   UNL     1      33.135 -12.885 -22.603  0.00  0.00    +0.073 C 
ATOM     31  C   UNL     1      32.252 -12.254 -21.677  0.00  0.00    +0.022 C 
ATOM     32  C   UNL     1      32.084 -12.993 -20.529  0.00  0.00    +0.033 C 
ATOM     33  C   UNL     1      34.340 -13.195 -24.493  0.00  0.00    +0.251 C 
ATOM     34  H   UNL     1      34.721 -16.408 -21.566  0.00  0.00    +0.148 HD
ENDBRANCH  23  25
ENDBRANCH  22  23
ENDBRANCH   6  22
TORSDOF 5
ENDMDL
MODEL 4
REMARK VINA RESULT:     -11.2      5.930     11.748
REMARK  Name = 24880024
REMARK  5 active torsions:
REMARK  status: ('A' for Active; 'I' for Inactive)
REMARK    1  A    between atoms: N_5  and  C_12
REMARK    2  A    between atoms: C_6  and  C_22
REMARK    3  A    between atoms: C_13  and  C_21
REMARK    4  A    between atoms: C_22  and  C_23
REMARK    5  A    between atoms: C_23  and  N_25
REMARK                            x       y       z     vdW  Elec       q    Type
REMARK                         _______ _______ _______ _____ _____    ______ ____
ROOT
ATOM      1  S   UNL     1      33.896 -23.702 -16.355  0.00  0.00    -0.056 S 
ATOM      2  O   UNL     1      33.262 -20.919 -20.049  0.00  0.00    -0.252 OA
ATOM      3  N   UNL     1      32.100 -22.569 -17.830  0.00  0.00    -0.223 NA
ATOM      4  N   UNL     1      34.402 -22.165 -18.417  0.00  0.00    -0.248 N 
ATOM      5  N   UNL     1      35.600 -20.972 -20.027  0.00  0.00    -0.268 N 
ATOM      6  C   UNL     1      32.248 -23.968 -15.960  0.00  0.00    +0.031 C 
ATOM      7  C   UNL     1      31.444 -23.289 -16.852  0.00  0.00    +0.103 C 
ATOM      8  C   UNL     1      33.397 -22.714 -17.666  0.00  0.00    +0.166 C 
ATOM      9  C   UNL     1      34.318 -21.304 -19.559  0.00  0.00    +0.310 C 
ATOM     10  H   UNL     1      35.316 -22.395 -18.130  0.00  0.00    +0.158 HD
ATOM     11  H   UNL     1      36.355 -21.359 -19.528  0.00  0.00    +0.156 HD
ENDROOT
BRANCH   5  12
ATOM     12  C   UNL     1      35.939 -20.149 -21.126  0.00  0.00    +0.052 C 
ATOM     13  C   UNL     1      35.492 -19.359 -23.365  0.00  0.00    +0.073 C 
ATOM     14  C   UNL     1      35.158 -20.171 -22.282  0.00  0.00    +0.019 C 
ATOM     15  C   UNL     1      37.054 -19.314 -21.054  0.00  0.00    +0.015 C 
ATOM     16  C   UNL     1      36.607 -18.524 -23.293  0.00  0.00    +0.004 C 
ATOM     17  C   UNL     1      37.388 -18.501 -22.137  0.00  0.00    +0.001 C 
BRANCH  13  21
ATOM     18  F   UNL     1      33.320 -19.499 -24.357  0.00  0.00    -0.166 F 
ATOM     19  F   UNL     1      34.784 -18.256 -25.366  0.00  0.00    -0.166 F 
ATOM     20  F   UNL     1      34.973 -20.422 -25.427  0.00  0.00    -0.166 F 
ATOM     21  C   UNL     1      34.658 -19.382 -24.601  0.00  0.00    +0.419 C 
ENDBRANCH  13  21
ENDBRANCH   5  12
BRANCH   6  22
ATOM     22  C   UNL     1      31.870 -24.837 -14.786  0.00  0.00    +0.056 C 
BRANCH  22  23
ATOM     23  C   UNL     1      32.808 -24.671 -13.591  0.00  0.00    +0.093 C 
BRANCH  23  25
ATOM     24  S   UNL     1      37.076 -25.923 -14.911  0.00  0.00    -0.101 S 
ATOM     25  N   UNL     1      34.148 -25.038 -13.936  0.00  0.00    -0.320 N 
ATOM     26  N   UNL     1      35.027 -24.378 -11.825  0.00  0.00    -0.233 NA
ATOM     27  N   UNL     1      37.376 -24.577 -11.280  0.00  0.00    -0.247 NA
ATOM     28  C   UNL     1      35.235 -24.888 -13.055  0.00  0.00    +0.118 C 
ATOM     29  C   UNL     1      36.522 -25.256 -13.429  0.00  0.00    +0.145 C 
ATOM     30  C   UNL     1      37.569 -25.089 -12.524  0.00  0.00    +0.073 C 
ATOM     31  C   UNL     1      38.817 -25.517 -13.068  0.00  0.00    +0.022 C 
ATOM     32  C   UNL     1      38.691 -25.990 -14.354  0.00  0.00    +0.033 C 
ATOM     33  C   UNL     1      36.098 -24.255 -11.020  0.00  0.00    +0.251 C 
ATOM     34  H   UNL     1      34.317 -25.411 -14.831  0.00  0.00    +0.148 HD
ENDBRANCH  23  25
ENDBRANCH  22  23
ENDBRANCH   6  22
TORSDOF 5
ENDMDL
MODEL 5
REMARK VINA RESULT:     -11.1      3.832      4.591
REMARK  Name = 24880024
REMARK  5 active torsions:
REMARK  status: ('A' for Active; 'I' for Inactive)
REMARK    1  A    between atoms: N_5  and  C_12
REMARK    2  A    between atoms: C_6  and  C_22
REMARK    3  A    between atoms: C_13  and  C_21
REMARK    4  A    between atoms: C_22  and  C_23
REMARK    5  A    between atoms: C_23  and  N_25
REMARK                            x       y       z     vdW  Elec       q    Type
REMARK                         _______ _______ _______ _____ _____    ______ ____
ROOT
ATOM      1  S   UNL     1      36.236 -20.963 -20.373  0.00  0.00    -0.056 S 
ATOM      2  O   UNL     1      32.263 -22.311 -18.323  0.00  0.00    -0.252 OA
ATOM      3  N   UNL     1      33.658 -20.836 -20.530  0.00  0.00    -0.223 NA
ATOM      4  N   UNL     1      34.574 -22.083 -18.683  0.00  0.00    -0.248 N 
ATOM      5  N   UNL     1      33.790 -23.307 -16.857  0.00  0.00    -0.268 N 
ATOM      6  C   UNL     1      35.553 -20.086 -21.679  0.00  0.00    +0.031 C 
ATOM      7  C   UNL     1      34.177 -20.128 -21.596  0.00  0.00    +0.103 C 
ATOM      8  C   UNL     1      34.651 -21.321 -19.818  0.00  0.00    +0.166 C 
ATOM      9  C   UNL     1      33.417 -22.550 -17.979  0.00  0.00    +0.310 C 
ATOM     10  H   UNL     1      35.438 -22.350 -18.295  0.00  0.00    +0.158 HD
ATOM     11  H   UNL     1      34.757 -23.413 -16.709  0.00  0.00    +0.156 HD
ENDROOT
BRANCH   5  12
ATOM     12  C   UNL     1      32.946 -23.938 -15.912  0.00  0.00    +0.052 C 
ATOM     13  C   UNL     1      30.742 -24.643 -15.217  0.00  0.00    +0.073 C 
ATOM     14  C   UNL     1      31.574 -24.020 -16.148  0.00  0.00    +0.019 C 
ATOM     15  C   UNL     1      33.487 -24.479 -14.746  0.00  0.00    +0.015 C 
ATOM     16  C   UNL     1      31.283 -25.184 -14.051  0.00  0.00    +0.004 C 
ATOM     17  C   UNL     1      32.655 -25.102 -13.815  0.00  0.00    +0.001 C 
BRANCH  13  21
ATOM     18  F   UNL     1      28.620 -23.543 -15.313  0.00  0.00    -0.166 F 
ATOM     19  F   UNL     1      28.960 -25.149 -16.731  0.00  0.00    -0.166 F 
ATOM     20  F   UNL     1      28.650 -25.605 -14.627  0.00  0.00    -0.166 F 
ATOM     21  C   UNL     1      29.274 -24.731 -15.468  0.00  0.00    +0.419 C 
ENDBRANCH  13  21
ENDBRANCH   5  12
BRANCH   6  22
ATOM     22  C   UNL     1      36.441 -19.414 -22.699  0.00  0.00    +0.056 C 
BRANCH  22  23
ATOM     23  C   UNL     1      36.561 -17.905 -22.487  0.00  0.00    +0.093 C 
BRANCH  23  25
ATOM     24  S   UNL     1      34.423 -15.731 -25.984  0.00  0.00    -0.101 S 
ATOM     25  N   UNL     1      35.880 -17.186 -23.521  0.00  0.00    -0.320 N 
ATOM     26  N   UNL     1      35.105 -15.497 -22.035  0.00  0.00    -0.233 NA
ATOM     27  N   UNL     1      33.749 -13.637 -22.782  0.00  0.00    -0.247 NA
ATOM     28  C   UNL     1      35.165 -15.998 -23.285  0.00  0.00    +0.118 C 
ATOM     29  C   UNL     1      34.517 -15.330 -24.317  0.00  0.00    +0.145 C 
ATOM     30  C   UNL     1      33.819 -14.156 -24.037  0.00  0.00    +0.073 C 
ATOM     31  C   UNL     1      33.216 -13.603 -25.206  0.00  0.00    +0.022 C 
ATOM     32  C   UNL     1      33.465 -14.358 -26.329  0.00  0.00    +0.033 C 
ATOM     33  C   UNL     1      34.409 -14.358 -21.861  0.00  0.00    +0.251 C 
ATOM     34  H   UNL     1      35.913 -17.540 -24.439  0.00  0.00    +0.148 HD
ENDBRANCH  23  25
ENDBRANCH  22  23
ENDBRANCH   6  22
TORSDOF 5
ENDMDL
MODEL 6
REMARK VINA RESULT:     -11.1      2.028      2.720
REMARK  Name = 24880024
REMARK  5 active torsions:
REMARK  status: ('A' for Active; 'I' for Inactive)
REMARK    1  A    between atoms: N_5  and  C_12
REMARK    2  A    between atoms: C_6  and  C_22
REMARK    3  A    between atoms: C_13  and  C_21
REMARK    4  A    between atoms: C_22  and  C_23
REMARK    5  A    between atoms: C_23  and  N_25
REMARK                            x       y       z     vdW  Elec       q    Type
REMARK                         _______ _______ _______ _____ _____    ______ ____
ROOT
ATOM      1  S   UNL     1      34.477 -21.314 -20.486  0.00  0.00    -0.056 S 
ATOM      2  O   UNL     1      37.073 -22.200 -16.708  0.00  0.00    -0.252 OA
ATOM      3  N   UNL     1      36.741 -20.809 -19.344  0.00  0.00    -0.223 NA
ATOM      4  N   UNL     1      35.241 -22.290 -18.177  0.00  0.00    -0.248 N 
ATOM      5  N   UNL     1      35.199 -23.497 -16.179  0.00  0.00    -0.268 N 
ATOM      6  C   UNL     1      35.565 -20.260 -21.291  0.00  0.00    +0.031 C 
ATOM      7  C   UNL     1      36.710 -20.113 -20.536  0.00  0.00    +0.103 C 
ATOM      8  C   UNL     1      35.616 -21.477 -19.213  0.00  0.00    +0.166 C 
ATOM      9  C   UNL     1      35.955 -22.625 -16.980  0.00  0.00    +0.310 C 
ATOM     10  H   UNL     1      34.352 -22.703 -18.266  0.00  0.00    +0.158 HD
ATOM     11  H   UNL     1      34.316 -23.751 -16.531  0.00  0.00    +0.156 HD
ENDROOT
BRANCH   5  12
ATOM     12  C   UNL     1      35.551 -24.054 -14.927  0.00  0.00    +0.052 C 
ATOM     13  C   UNL     1      37.141 -25.212 -13.525  0.00  0.00    +0.073 C 
ATOM     14  C   UNL     1      36.794 -24.664 -14.759  0.00  0.00    +0.019 C 
ATOM     15  C   UNL     1      34.656 -23.992 -13.860  0.00  0.00    +0.015 C 
ATOM     16  C   UNL     1      36.246 -25.150 -12.457  0.00  0.00    +0.004 C 
ATOM     17  C   UNL     1      35.002 -24.539 -12.625  0.00  0.00    +0.001 C 
BRANCH  13  21
ATOM     18  F   UNL     1      39.511 -24.984 -13.294  0.00  0.00    -0.166 F 
ATOM     19  F   UNL     1      38.568 -26.597 -12.194  0.00  0.00    -0.166 F 
ATOM     20  F   UNL     1      38.771 -26.731 -14.355  0.00  0.00    -0.166 F 
ATOM     21  C   UNL     1      38.470 -25.865 -13.344  0.00  0.00    +0.419 C 
ENDBRANCH  13  21
ENDBRANCH   5  12
BRANCH   6  22
ATOM     22  C   UNL     1      35.200 -19.652 -22.623  0.00  0.00    +0.056 C 
BRANCH  22  23
ATOM     23  C   UNL     1      36.246 -18.664 -23.138  0.00  0.00    +0.093 C 
BRANCH  23  25
ATOM     24  S   UNL     1      34.289 -15.428 -25.826  0.00  0.00    -0.101 S 
ATOM     25  N   UNL     1      35.634 -17.626 -23.912  0.00  0.00    -0.320 N 
ATOM     26  N   UNL     1      35.301 -16.217 -22.023  0.00  0.00    -0.233 NA
ATOM     27  N   UNL     1      34.260 -14.040 -22.199  0.00  0.00    -0.247 NA
ATOM     28  C   UNL     1      35.171 -16.423 -23.348  0.00  0.00    +0.118 C 
ATOM     29  C   UNL     1      34.582 -15.440 -24.135  0.00  0.00    +0.145 C 
ATOM     30  C   UNL     1      34.137 -14.263 -23.534  0.00  0.00    +0.073 C 
ATOM     31  C   UNL     1      33.560 -13.366 -24.482  0.00  0.00    +0.022 C 
ATOM     32  C   UNL     1      33.579 -13.875 -25.760  0.00  0.00    +0.033 C 
ATOM     33  C   UNL     1      34.842 -15.050 -21.533  0.00  0.00    +0.251 C 
ATOM     34  H   UNL     1      35.531 -17.762 -24.881  0.00  0.00    +0.148 HD
ENDBRANCH  23  25
ENDBRANCH  22  23
ENDBRANCH   6  22
TORSDOF 5
ENDMDL
MODEL 7
REMARK VINA RESULT:     -11.0      1.786      2.281
REMARK  Name = 24880024
REMARK  5 active torsions:
REMARK  status: ('A' for Active; 'I' for Inactive)
REMARK    1  A    between atoms: N_5  and  C_12
REMARK    2  A    between atoms: C_6  and  C_22
REMARK    3  A    between atoms: C_13  and  C_21
REMARK    4  A    between atoms: C_22  and  C_23
REMARK    5  A    between atoms: C_23  and  N_25
REMARK                            x       y       z     vdW  Elec       q    Type
REMARK                         _______ _______ _______ _____ _____    ______ ____
ROOT
ATOM      1  S   UNL     1      34.561 -21.259 -20.638  0.00  0.00    -0.056 S 
ATOM      2  O   UNL     1      37.084 -22.109 -16.802  0.00  0.00    -0.252 OA
ATOM      3  N   UNL     1      36.785 -20.711 -19.439  0.00  0.00    -0.223 NA
ATOM      4  N   UNL     1      35.291 -22.231 -18.315  0.00  0.00    -0.248 N 
ATOM      5  N   UNL     1      35.227 -23.450 -16.325  0.00  0.00    -0.268 N 
ATOM      6  C   UNL     1      35.644 -20.178 -21.411  0.00  0.00    +0.031 C 
ATOM      7  C   UNL     1      36.767 -20.010 -20.628  0.00  0.00    +0.103 C 
ATOM      8  C   UNL     1      35.673 -21.405 -19.338  0.00  0.00    +0.166 C 
ATOM      9  C   UNL     1      35.983 -22.557 -17.103  0.00  0.00    +0.310 C 
ATOM     10  H   UNL     1      34.413 -22.663 -18.428  0.00  0.00    +0.158 HD
ATOM     11  H   UNL     1      34.359 -23.721 -16.699  0.00  0.00    +0.156 HD
ENDROOT
BRANCH   5  12
ATOM     12  C   UNL     1      35.562 -24.005 -15.067  0.00  0.00    +0.052 C 
ATOM     13  C   UNL     1      37.131 -25.164 -13.642  0.00  0.00    +0.073 C 
ATOM     14  C   UNL     1      36.801 -24.617 -14.881  0.00  0.00    +0.019 C 
ATOM     15  C   UNL     1      34.652 -23.940 -14.012  0.00  0.00    +0.015 C 
ATOM     16  C   UNL     1      36.221 -25.099 -12.587  0.00  0.00    +0.004 C 
ATOM     17  C   UNL     1      34.981 -24.486 -12.772  0.00  0.00    +0.001 C 
BRANCH  13  21
ATOM     18  F   UNL     1      38.770 -26.726 -14.413  0.00  0.00    -0.166 F 
ATOM     19  F   UNL     1      39.502 -24.940 -13.424  0.00  0.00    -0.166 F 
ATOM     20  F   UNL     1      38.531 -26.503 -12.264  0.00  0.00    -0.166 F 
ATOM     21  C   UNL     1      38.456 -25.819 -13.443  0.00  0.00    +0.419 C 
ENDBRANCH  13  21
ENDBRANCH   5  12
BRANCH   6  22
ATOM     22  C   UNL     1      35.299 -19.571 -22.749  0.00  0.00    +0.056 C 
BRANCH  22  23
ATOM     23  C   UNL     1      36.242 -18.440 -23.156  0.00  0.00    +0.093 C 
BRANCH  23  25
ATOM     24  S   UNL     1      34.505 -14.332 -21.878  0.00  0.00    -0.101 S 
ATOM     25  N   UNL     1      35.685 -17.163 -22.826  0.00  0.00    -0.320 N 
ATOM     26  N   UNL     1      34.919 -16.764 -25.044  0.00  0.00    -0.233 NA
ATOM     27  N   UNL     1      33.746 -14.741 -25.665  0.00  0.00    -0.247 NA
ATOM     28  C   UNL     1      35.034 -16.345 -23.769  0.00  0.00    +0.118 C 
ATOM     29  C   UNL     1      34.506 -15.111 -23.408  0.00  0.00    +0.145 C 
ATOM     30  C   UNL     1      33.871 -14.333 -24.375  0.00  0.00    +0.073 C 
ATOM     31  C   UNL     1      33.389 -13.102 -23.836  0.00  0.00    +0.022 C 
ATOM     32  C   UNL     1      33.668 -12.976 -22.494  0.00  0.00    +0.033 C 
ATOM     33  C   UNL     1      34.289 -15.945 -25.907  0.00  0.00    +0.251 C 
ATOM     34  H   UNL     1      35.761 -16.843 -21.899  0.00  0.00    +0.148 HD
ENDBRANCH  23  25
ENDBRANCH  22  23
ENDBRANCH   6  22
TORSDOF 5
ENDMDL
MODEL 8
REMARK VINA RESULT:     -10.9      5.380     11.768
REMARK  Name = 24880024
REMARK  5 active torsions:
REMARK  status: ('A' for Active; 'I' for Inactive)
REMARK    1  A    between atoms: N_5  and  C_12
REMARK    2  A    between atoms: C_6  and  C_22
REMARK    3  A    between atoms: C_13  and  C_21
REMARK    4  A    between atoms: C_22  and  C_23
REMARK    5  A    between atoms: C_23  and  N_25
REMARK                            x       y       z     vdW  Elec       q    Type
REMARK                         _______ _______ _______ _____ _____    ______ ____
ROOT
ATOM      1  S   UNL     1      34.374 -23.331 -17.108  0.00  0.00    -0.056 S 
ATOM      2  O   UNL     1      32.725 -20.605 -20.521  0.00  0.00    -0.252 OA
ATOM      3  N   UNL     1      32.214 -22.353 -18.138  0.00  0.00    -0.223 NA
ATOM      4  N   UNL     1      34.292 -21.752 -19.199  0.00  0.00    -0.248 N 
ATOM      5  N   UNL     1      35.009 -20.457 -21.005  0.00  0.00    -0.268 N 
ATOM      6  C   UNL     1      32.879 -23.737 -16.373  0.00  0.00    +0.031 C 
ATOM      7  C   UNL     1      31.847 -23.129 -17.057  0.00  0.00    +0.103 C 
ATOM      8  C   UNL     1      33.522 -22.386 -18.260  0.00  0.00    +0.166 C 
ATOM      9  C   UNL     1      33.891 -20.899 -20.278  0.00  0.00    +0.310 C 
ATOM     10  H   UNL     1      35.262 -21.903 -19.121  0.00  0.00    +0.158 HD
ATOM     11  H   UNL     1      35.884 -20.778 -20.689  0.00  0.00    +0.156 HD
ENDROOT
BRANCH   5  12
ATOM     12  C   UNL     1      35.031 -19.606 -22.134  0.00  0.00    +0.052 C 
ATOM     13  C   UNL     1      35.083 -17.383 -23.079  0.00  0.00    +0.073 C 
ATOM     14  C   UNL     1      35.060 -18.222 -21.965  0.00  0.00    +0.019 C 
ATOM     15  C   UNL     1      35.027 -20.151 -23.418  0.00  0.00    +0.015 C 
ATOM     16  C   UNL     1      35.078 -17.928 -24.362  0.00  0.00    +0.004 C 
ATOM     17  C   UNL     1      35.050 -19.312 -24.532  0.00  0.00    +0.001 C 
BRANCH  13  21
ATOM     18  F   UNL     1      36.053 -15.276 -23.664  0.00  0.00    -0.166 F 
ATOM     19  F   UNL     1      33.932 -15.290 -23.213  0.00  0.00    -0.166 F 
ATOM     20  F   UNL     1      35.383 -15.536 -21.612  0.00  0.00    -0.166 F 
ATOM     21  C   UNL     1      35.112 -15.902 -22.898  0.00  0.00    +0.419 C 
ENDBRANCH  13  21
ENDBRANCH   5  12
BRANCH   6  22
ATOM     22  C   UNL     1      32.839 -24.638 -15.163  0.00  0.00    +0.056 C 
BRANCH  22  23
ATOM     23  C   UNL     1      33.859 -24.251 -14.092  0.00  0.00    +0.093 C 
BRANCH  23  25
ATOM     24  S   UNL     1      37.875 -26.353 -15.082  0.00  0.00    -0.101 S 
ATOM     25  N   UNL     1      35.128 -24.861 -14.350  0.00  0.00    -0.320 N 
ATOM     26  N   UNL     1      36.255 -23.538 -12.723  0.00  0.00    -0.233 NA
ATOM     27  N   UNL     1      38.626 -23.758 -12.292  0.00  0.00    -0.247 NA
ATOM     28  C   UNL     1      36.304 -24.499 -13.667  0.00  0.00    +0.118 C 
ATOM     29  C   UNL     1      37.518 -25.116 -13.948  0.00  0.00    +0.145 C 
ATOM     30  C   UNL     1      38.658 -24.725 -13.246  0.00  0.00    +0.073 C 
ATOM     31  C   UNL     1      39.813 -25.456 -13.657  0.00  0.00    +0.022 C 
ATOM     32  C   UNL     1      39.527 -26.370 -14.646  0.00  0.00    +0.033 C 
ATOM     33  C   UNL     1      37.407 -23.229 -12.099  0.00  0.00    +0.251 C 
ATOM     34  H   UNL     1      35.181 -25.563 -15.037  0.00  0.00    +0.148 HD
ENDBRANCH  23  25
ENDBRANCH  22  23
ENDBRANCH   6  22
TORSDOF 5
ENDMDL
MODEL 9
REMARK VINA RESULT:     -10.8      3.780      4.733
REMARK  Name = 24880024
REMARK  5 active torsions:
REMARK  status: ('A' for Active; 'I' for Inactive)
REMARK    1  A    between atoms: N_5  and  C_12
REMARK    2  A    between atoms: C_6  and  C_22
REMARK    3  A    between atoms: C_13  and  C_21
REMARK    4  A    between atoms: C_22  and  C_23
REMARK    5  A    between atoms: C_23  and  N_25
REMARK                            x       y       z     vdW  Elec       q    Type
REMARK                         _______ _______ _______ _____ _____    ______ ____
ROOT
ATOM      1  S   UNL     1      34.192 -20.173 -21.020  0.00  0.00    -0.056 S 
ATOM      2  O   UNL     1      33.613 -23.199 -17.511  0.00  0.00    -0.252 OA
ATOM      3  N   UNL     1      35.433 -21.804 -19.443  0.00  0.00    -0.223 NA
ATOM      4  N   UNL     1      33.047 -21.627 -19.163  0.00  0.00    -0.248 N 
ATOM      5  N   UNL     1      31.386 -22.542 -17.801  0.00  0.00    -0.268 N 
ATOM      6  C   UNL     1      35.892 -20.318 -21.192  0.00  0.00    +0.031 C 
ATOM      7  C   UNL     1      36.374 -21.227 -20.274  0.00  0.00    +0.103 C 
ATOM      8  C   UNL     1      34.248 -21.323 -19.746  0.00  0.00    +0.166 C 
ATOM      9  C   UNL     1      32.761 -22.532 -18.089  0.00  0.00    +0.310 C 
ATOM     10  H   UNL     1      32.266 -21.156 -19.535  0.00  0.00    +0.158 HD
ATOM     11  H   UNL     1      30.825 -21.951 -18.352  0.00  0.00    +0.156 HD
ENDROOT
BRANCH   5  12
ATOM     12  C   UNL     1      30.710 -23.298 -16.814  0.00  0.00    +0.052 C 
ATOM     13  C   UNL     1      30.631 -24.248 -14.594  0.00  0.00    +0.073 C 
ATOM     14  C   UNL     1      31.298 -23.503 -15.567  0.00  0.00    +0.019 C 
ATOM     15  C   UNL     1      29.453 -23.836 -17.089  0.00  0.00    +0.015 C 
ATOM     16  C   UNL     1      29.374 -24.786 -14.869  0.00  0.00    +0.004 C 
ATOM     17  C   UNL     1      28.785 -24.581 -16.117  0.00  0.00    +0.001 C 
BRANCH  13  21
ATOM     18  F   UNL     1      31.925 -25.656 -13.157  0.00  0.00    -0.166 F 
ATOM     19  F   UNL     1      32.181 -23.515 -12.926  0.00  0.00    -0.166 F 
ATOM     20  F   UNL     1      30.350 -24.469 -12.244  0.00  0.00    -0.166 F 
ATOM     21  C   UNL     1      31.261 -24.468 -13.260  0.00  0.00    +0.419 C 
ENDBRANCH  13  21
ENDBRANCH   5  12
BRANCH   6  22
ATOM     22  C   UNL     1      36.629 -19.513 -22.235  0.00  0.00    +0.056 C 
BRANCH  22  23
ATOM     23  C   UNL     1      36.504 -18.004 -22.026  0.00  0.00    +0.093 C 
BRANCH  23  25
ATOM     24  S   UNL     1      34.576 -16.150 -25.816  0.00  0.00    -0.101 S 
ATOM     25  N   UNL     1      35.888 -17.379 -23.157  0.00  0.00    -0.320 N 
ATOM     26  N   UNL     1      35.097 -15.529 -21.885  0.00  0.00    -0.233 NA
ATOM     27  N   UNL     1      33.825 -13.725 -22.876  0.00  0.00    -0.247 NA
ATOM     28  C   UNL     1      35.196 -16.157 -23.073  0.00  0.00    +0.118 C 
ATOM     29  C   UNL     1      34.610 -15.583 -24.196  0.00  0.00    +0.145 C 
ATOM     30  C   UNL     1      33.934 -14.371 -24.067  0.00  0.00    +0.073 C 
ATOM     31  C   UNL     1      33.396 -13.926 -25.312  0.00  0.00    +0.022 C 
ATOM     32  C   UNL     1      33.672 -14.798 -26.341  0.00  0.00    +0.033 C 
ATOM     33  C   UNL     1      34.425 -14.364 -21.858  0.00  0.00    +0.251 C 
ATOM     34  H   UNL     1      35.950 -17.826 -24.032  0.00  0.00    +0.148 HD
ENDBRANCH  23  25
ENDBRANCH  22  23
ENDBRANCH   6  22
TORSDOF 5
ENDMDL
