MODEL 1
REMARK VINA RESULT:     -12.2      0.000      0.000
REMARK  Name = 11633167
REMARK  7 active torsions:
REMARK  status: ('A' for Active; 'I' for Inactive)
REMARK    1  A    between atoms: C_1  and  C_8
REMARK    2  A    between atoms: C_2  and  C_25
REMARK    3  A    between atoms: C_4  and  O_17
REMARK    4  A    between atoms: O_17  and  C_18
REMARK    5  A    between atoms: C_18  and  C_20
REMARK    6  A    between atoms: C_25  and  N_26
REMARK    7  A    between atoms: N_26  and  C_29
REMARK                            x       y       z     vdW  Elec       q    Type
REMARK                         _______ _______ _______ _____ _____    ______ ____
ROOT
ATOM      1  C   UNL     1      35.510 -20.478 -20.635  0.00  0.00    -0.000 C 
ATOM      2  C   UNL     1      34.577 -22.156 -19.169  0.00  0.00    +0.031 C 
ATOM      3  C   UNL     1      34.450 -21.308 -20.270  0.00  0.00    +0.000 C 
ATOM      4  C   UNL     1      35.762 -22.174 -18.436  0.00  0.00    +0.137 C 
ATOM      5  C   UNL     1      36.695 -20.495 -19.901  0.00  0.00    +0.003 C 
ATOM      6  C   UNL     1      36.822 -21.344 -18.801  0.00  0.00    +0.037 C 
ENDROOT
BRANCH   1   8
ATOM      7  N   UNL     1      35.452 -16.033 -22.848  0.00  0.00    -0.312 N 
ATOM      8  C   UNL     1      35.379 -19.597 -21.776  0.00  0.00    +0.001 C 
ATOM      9  C   UNL     1      35.374 -17.402 -22.725  0.00  0.00    +0.048 C 
ATOM     10  C   UNL     1      35.122 -17.914 -24.001  0.00  0.00    +0.015 C 
ATOM     11  C   UNL     1      35.508 -18.217 -21.596  0.00  0.00    +0.015 C 
ATOM     12  C   UNL     1      35.128 -20.137 -23.035  0.00  0.00    +0.000 C 
ATOM     13  C   UNL     1      34.996 -19.309 -24.157  0.00  0.00    +0.001 C 
ATOM     14  C   UNL     1      35.053 -16.807 -24.890  0.00  0.00    +0.017 C 
ATOM     15  C   UNL     1      35.257 -15.663 -24.152  0.00  0.00    +0.062 C 
ATOM     16  H   UNL     1      35.621 -15.409 -22.105  0.00  0.00    +0.152 HD
ENDBRANCH   1   8
BRANCH   4  17
ATOM     17  O   UNL     1      35.903 -22.996 -17.358  0.00  0.00    -0.469 OA
BRANCH  17  18
ATOM     18  C   UNL     1      36.902 -22.646 -16.402  0.00  0.00    +0.251 C 
BRANCH  18  20
ATOM     19  N   UNL     1      38.645 -23.956 -15.349  0.00  0.00    -0.244 NA
ATOM     20  C   UNL     1      37.338 -23.884 -15.675  0.00  0.00    +0.103 C 
ATOM     21  C   UNL     1      36.403 -24.859 -15.387  0.00  0.00    +0.018 C 
ATOM     22  C   UNL     1      36.840 -25.993 -14.713  0.00  0.00    +0.003 C 
ATOM     23  C   UNL     1      39.033 -25.072 -14.694  0.00  0.00    +0.099 C 
ATOM     24  C   UNL     1      38.179 -26.110 -14.355  0.00  0.00    +0.021 C 
ENDBRANCH  18  20
ENDBRANCH  17  18
ENDBRANCH   4  17
BRANCH   2  25
ATOM     25  C   UNL     1      33.433 -23.038 -18.792  0.00  0.00    +0.117 C 
BRANCH  25  26
ATOM     26  N   UNL     1      32.555 -22.415 -17.801  0.00  0.00    -0.327 N 
ATOM     27  H   UNL     1      32.238 -21.498 -17.964  0.00  0.00    +0.147 HD
BRANCH  26  29
ATOM     28  N   UNL     1      30.369 -23.888 -15.199  0.00  0.00    -0.228 NA
ATOM     29  C   UNL     1      32.151 -23.052 -16.650  0.00  0.00    +0.077 C 
ATOM     30  C   UNL     1      30.805 -23.269 -16.318  0.00  0.00    +0.139 C 
ATOM     31  C   UNL     1      33.092 -23.532 -15.722  0.00  0.00    +0.019 C 
ATOM     32  C   UNL     1      32.683 -24.175 -14.558  0.00  0.00    +0.022 C 
ATOM     33  C   UNL     1      31.321 -24.326 -14.346  0.00  0.00    +0.100 C 
ATOM     34  N   UNL     1      29.829 -22.797 -17.233  0.00  0.00    -0.342 N 
ATOM     35  H   UNL     1      28.872 -22.927 -17.041  0.00  0.00    +0.144 HD
ATOM     36  H   UNL     1      30.108 -22.340 -18.059  0.00  0.00    +0.144 HD
ENDBRANCH  26  29
ENDBRANCH  25  26
ENDBRANCH   2  25
TORSDOF 7
ENDMDL
MODEL 2
REMARK VINA RESULT:     -12.2      1.719      5.039
REMARK  Name = 11633167
REMARK  7 active torsions:
REMARK  status: ('A' for Active; 'I' for Inactive)
REMARK    1  A    between atoms: C_1  and  C_8
REMARK    2  A    between atoms: C_2  and  C_25
REMARK    3  A    between atoms: C_4  and  O_17
REMARK    4  A    between atoms: O_17  and  C_18
REMARK    5  A    between atoms: C_18  and  C_20
REMARK    6  A    between atoms: C_25  and  N_26
REMARK    7  A    between atoms: N_26  and  C_29
REMARK                            x       y       z     vdW  Elec       q    Type
REMARK                         _______ _______ _______ _____ _____    ______ ____
ROOT
ATOM      1  C   UNL     1      35.342 -21.652 -19.129  0.00  0.00    -0.000 C 
ATOM      2  C   UNL     1      35.957 -22.680 -17.032  0.00  0.00    +0.031 C 
ATOM      3  C   UNL     1      36.257 -21.822 -18.090  0.00  0.00    +0.000 C 
ATOM      4  C   UNL     1      34.743 -23.366 -17.013  0.00  0.00    +0.137 C 
ATOM      5  C   UNL     1      34.129 -22.338 -19.111  0.00  0.00    +0.003 C 
ATOM      6  C   UNL     1      33.828 -23.195 -18.051  0.00  0.00    +0.037 C 
ENDROOT
BRANCH   1   8
ATOM      7  N   UNL     1      34.302 -19.259 -23.354  0.00  0.00    -0.312 N 
ATOM      8  C   UNL     1      35.653 -20.763 -20.228  0.00  0.00    +0.001 C 
ATOM      9  C   UNL     1      35.033 -19.666 -22.261  0.00  0.00    +0.048 C 
ATOM     10  C   UNL     1      36.278 -19.037 -22.344  0.00  0.00    +0.015 C 
ATOM     11  C   UNL     1      34.692 -20.532 -21.217  0.00  0.00    +0.015 C 
ATOM     12  C   UNL     1      36.903 -20.150 -20.284  0.00  0.00    +0.000 C 
ATOM     13  C   UNL     1      37.231 -19.285 -21.335  0.00  0.00    +0.001 C 
ATOM     14  C   UNL     1      36.267 -18.239 -23.521  0.00  0.00    +0.017 C 
ATOM     15  C   UNL     1      35.039 -18.397 -24.122  0.00  0.00    +0.062 C 
ATOM     16  H   UNL     1      33.382 -19.546 -23.555  0.00  0.00    +0.152 HD
ENDBRANCH   1   8
BRANCH   4  17
ATOM     17  O   UNL     1      34.434 -24.207 -15.987  0.00  0.00    -0.469 OA
BRANCH  17  18
ATOM     18  C   UNL     1      33.768 -23.640 -14.861  0.00  0.00    +0.251 C 
BRANCH  18  20
ATOM     19  N   UNL     1      31.934 -25.202 -14.631  0.00  0.00    -0.244 NA
ATOM     20  C   UNL     1      32.302 -23.946 -14.952  0.00  0.00    +0.103 C 
ATOM     21  C   UNL     1      31.432 -22.950 -15.349  0.00  0.00    +0.018 C 
ATOM     22  C   UNL     1      30.080 -23.267 -15.424  0.00  0.00    +0.003 C 
ATOM     23  C   UNL     1      30.612 -25.473 -14.715  0.00  0.00    +0.099 C 
ATOM     24  C   UNL     1      29.654 -24.550 -15.102  0.00  0.00    +0.021 C 
ENDBRANCH  18  20
ENDBRANCH  17  18
ENDBRANCH   4  17
BRANCH   2  25
ATOM     25  C   UNL     1      36.947 -22.851 -15.928  0.00  0.00    +0.117 C 
BRANCH  25  26
ATOM     26  N   UNL     1      37.414 -24.233 -15.810  0.00  0.00    -0.327 N 
ATOM     27  H   UNL     1      37.657 -24.719 -16.631  0.00  0.00    +0.147 HD
BRANCH  26  29
ATOM     28  N   UNL     1      37.086 -26.833 -13.192  0.00  0.00    -0.228 NA
ATOM     29  C   UNL     1      37.529 -24.886 -14.604  0.00  0.00    +0.077 C 
ATOM     30  C   UNL     1      36.995 -26.160 -14.361  0.00  0.00    +0.139 C 
ATOM     31  C   UNL     1      38.208 -24.294 -13.524  0.00  0.00    +0.019 C 
ATOM     32  C   UNL     1      38.324 -24.955 -12.305  0.00  0.00    +0.022 C 
ATOM     33  C   UNL     1      37.751 -26.212 -12.193  0.00  0.00    +0.100 C 
ATOM     34  N   UNL     1      36.303 -26.786 -15.429  0.00  0.00    -0.342 N 
ATOM     35  H   UNL     1      35.911 -27.681 -15.304  0.00  0.00    +0.144 HD
ATOM     36  H   UNL     1      36.215 -26.327 -16.296  0.00  0.00    +0.144 HD
ENDBRANCH  26  29
ENDBRANCH  25  26
ENDBRANCH   2  25
TORSDOF 7
ENDMDL
MODEL 3
REMARK VINA RESULT:     -11.9      1.513      2.110
REMARK  Name = 11633167
REMARK  7 active torsions:
REMARK  status: ('A' for Active; 'I' for Inactive)
REMARK    1  A    between atoms: C_1  and  C_8
REMARK    2  A    between atoms: C_2  and  C_25
REMARK    3  A    between atoms: C_4  and  O_17
REMARK    4  A    between atoms: O_17  and  C_18
REMARK    5  A    between atoms: C_18  and  C_20
REMARK    6  A    between atoms: C_25  and  N_26
REMARK    7  A    between atoms: N_26  and  C_29
REMARK                            x       y       z     vdW  Elec       q    Type
REMARK                         _______ _______ _______ _____ _____    ______ ____
ROOT
ATOM      1  C   UNL     1      35.906 -21.110 -19.644  0.00  0.00    -0.000 C 
ATOM      2  C   UNL     1      34.709 -22.615 -18.183  0.00  0.00    +0.031 C 
ATOM      3  C   UNL     1      34.742 -21.806 -19.320  0.00  0.00    +0.000 C 
ATOM      4  C   UNL     1      35.838 -22.727 -17.374  0.00  0.00    +0.137 C 
ATOM      5  C   UNL     1      37.036 -21.222 -18.836  0.00  0.00    +0.003 C 
ATOM      6  C   UNL     1      37.003 -22.032 -17.700  0.00  0.00    +0.037 C 
ENDROOT
BRANCH   1   8
ATOM      7  N   UNL     1      34.074 -19.332 -23.904  0.00  0.00    -0.312 N 
ATOM      8  C   UNL     1      35.941 -20.270 -20.823  0.00  0.00    +0.001 C 
ATOM      9  C   UNL     1      34.955 -19.492 -22.859  0.00  0.00    +0.048 C 
ATOM     10  C   UNL     1      36.033 -18.635 -23.095  0.00  0.00    +0.015 C 
ATOM     11  C   UNL     1      34.881 -20.320 -21.733  0.00  0.00    +0.015 C 
ATOM     12  C   UNL     1      37.029 -19.426 -21.033  0.00  0.00    +0.000 C 
ATOM     13  C   UNL     1      37.090 -18.603 -22.164  0.00  0.00    +0.001 C 
ATOM     14  C   UNL     1      35.766 -17.956 -24.316  0.00  0.00    +0.017 C 
ATOM     15  C   UNL     1      34.556 -18.406 -24.791  0.00  0.00    +0.062 C 
ATOM     16  H   UNL     1      33.220 -19.813 -24.001  0.00  0.00    +0.152 HD
ENDBRANCH   1   8
BRANCH   4  17
ATOM     17  O   UNL     1      35.823 -23.512 -16.261  0.00  0.00    -0.469 OA
BRANCH  17  18
ATOM     18  C   UNL     1      36.447 -22.990 -15.090  0.00  0.00    +0.251 C 
BRANCH  18  20
ATOM     19  N   UNL     1      37.909 -23.743 -13.313  0.00  0.00    -0.244 NA
ATOM     20  C   UNL     1      37.182 -24.097 -14.391  0.00  0.00    +0.103 C 
ATOM     21  C   UNL     1      37.075 -25.385 -14.877  0.00  0.00    +0.018 C 
ATOM     22  C   UNL     1      37.767 -26.387 -14.207  0.00  0.00    +0.003 C 
ATOM     23  C   UNL     1      38.569 -24.743 -12.687  0.00  0.00    +0.099 C 
ATOM     24  C   UNL     1      38.531 -26.068 -13.089  0.00  0.00    +0.021 C 
ENDBRANCH  18  20
ENDBRANCH  17  18
ENDBRANCH   4  17
BRANCH   2  25
ATOM     25  C   UNL     1      33.455 -23.352 -17.849  0.00  0.00    +0.117 C 
BRANCH  25  26
ATOM     26  N   UNL     1      33.017 -23.110 -16.474  0.00  0.00    -0.327 N 
ATOM     27  H   UNL     1      33.488 -22.427 -15.944  0.00  0.00    +0.147 HD
BRANCH  26  29
ATOM     28  N   UNL     1      31.153 -25.388 -14.226  0.00  0.00    -0.228 NA
ATOM     29  C   UNL     1      31.977 -23.793 -15.886  0.00  0.00    +0.077 C 
ATOM     30  C   UNL     1      32.148 -24.699 -14.828  0.00  0.00    +0.139 C 
ATOM     31  C   UNL     1      30.654 -23.611 -16.326  0.00  0.00    +0.019 C 
ATOM     32  C   UNL     1      29.603 -24.302 -15.731  0.00  0.00    +0.022 C 
ATOM     33  C   UNL     1      29.904 -25.171 -14.693  0.00  0.00    +0.100 C 
ATOM     34  N   UNL     1      33.470 -24.906 -14.360  0.00  0.00    -0.342 N 
ATOM     35  H   UNL     1      33.637 -25.533 -13.620  0.00  0.00    +0.144 HD
ATOM     36  H   UNL     1      34.221 -24.423 -14.775  0.00  0.00    +0.144 HD
ENDBRANCH  26  29
ENDBRANCH  25  26
ENDBRANCH   2  25
TORSDOF 7
ENDMDL
MODEL 4
REMARK VINA RESULT:     -11.9      1.388      4.230
REMARK  Name = 11633167
REMARK  7 active torsions:
REMARK  status: ('A' for Active; 'I' for Inactive)
REMARK    1  A    between atoms: C_1  and  C_8
REMARK    2  A    between atoms: C_2  and  C_25
REMARK    3  A    between atoms: C_4  and  O_17
REMARK    4  A    between atoms: O_17  and  C_18
REMARK    5  A    between atoms: C_18  and  C_20
REMARK    6  A    between atoms: C_25  and  N_26
REMARK    7  A    between atoms: N_26  and  C_29
REMARK                            x       y       z     vdW  Elec       q    Type
REMARK                         _______ _______ _______ _____ _____    ______ ____
ROOT
ATOM      1  C   UNL     1      34.866 -20.277 -20.939  0.00  0.00    -0.000 C 
ATOM      2  C   UNL     1      35.917 -21.608 -19.220  0.00  0.00    +0.031 C 
ATOM      3  C   UNL     1      36.017 -20.701 -20.275  0.00  0.00    +0.000 C 
ATOM      4  C   UNL     1      34.668 -22.091 -18.831  0.00  0.00    +0.137 C 
ATOM      5  C   UNL     1      33.617 -20.759 -20.551  0.00  0.00    +0.003 C 
ATOM      6  C   UNL     1      33.518 -21.666 -19.495  0.00  0.00    +0.037 C 
ENDROOT
BRANCH   1   8
ATOM      7  N   UNL     1      35.287 -15.723 -22.874  0.00  0.00    -0.312 N 
ATOM      8  C   UNL     1      34.968 -19.336 -22.034  0.00  0.00    +0.001 C 
ATOM      9  C   UNL     1      35.172 -17.094 -22.844  0.00  0.00    +0.048 C 
ATOM     10  C   UNL     1      35.166 -17.535 -24.170  0.00  0.00    +0.015 C 
ATOM     11  C   UNL     1      35.075 -17.970 -21.757  0.00  0.00    +0.015 C 
ATOM     12  C   UNL     1      34.960 -19.804 -23.346  0.00  0.00    +0.000 C 
ATOM     13  C   UNL     1      35.057 -18.917 -24.425  0.00  0.00    +0.001 C 
ATOM     14  C   UNL     1      35.283 -16.381 -24.994  0.00  0.00    +0.017 C 
ATOM     15  C   UNL     1      35.353 -15.282 -24.169  0.00  0.00    +0.062 C 
ATOM     16  H   UNL     1      35.316 -15.142 -22.080  0.00  0.00    +0.152 HD
ENDBRANCH   1   8
BRANCH   4  17
ATOM     17  O   UNL     1      34.553 -22.977 -17.803  0.00  0.00    -0.469 OA
BRANCH  17  18
ATOM     18  C   UNL     1      33.454 -23.885 -17.849  0.00  0.00    +0.251 C 
BRANCH  18  20
ATOM     19  N   UNL     1      33.129 -24.259 -15.479  0.00  0.00    -0.244 NA
ATOM     20  C   UNL     1      32.628 -23.718 -16.608  0.00  0.00    +0.103 C 
ATOM     21  C   UNL     1      31.429 -23.036 -16.686  0.00  0.00    +0.018 C 
ATOM     22  C   UNL     1      30.688 -22.899 -15.519  0.00  0.00    +0.003 C 
ATOM     23  C   UNL     1      32.381 -24.106 -14.364  0.00  0.00    +0.099 C 
ATOM     24  C   UNL     1      31.165 -23.441 -14.330  0.00  0.00    +0.021 C 
ENDBRANCH  18  20
ENDBRANCH  17  18
ENDBRANCH   4  17
BRANCH   2  25
ATOM     25  C   UNL     1      37.158 -22.051 -18.519  0.00  0.00    +0.117 C 
BRANCH  25  26
ATOM     26  N   UNL     1      37.103 -21.799 -17.078  0.00  0.00    -0.327 N 
ATOM     27  H   UNL     1      36.838 -20.903 -16.768  0.00  0.00    +0.147 HD
BRANCH  26  29
ATOM     28  N   UNL     1      36.810 -24.028 -14.135  0.00  0.00    -0.228 NA
ATOM     29  C   UNL     1      37.406 -22.754 -16.136  0.00  0.00    +0.077 C 
ATOM     30  C   UNL     1      36.549 -23.096 -15.079  0.00  0.00    +0.139 C 
ATOM     31  C   UNL     1      38.623 -23.458 -16.186  0.00  0.00    +0.019 C 
ATOM     32  C   UNL     1      38.928 -24.424 -15.232  0.00  0.00    +0.022 C 
ATOM     33  C   UNL     1      37.996 -24.669 -14.237  0.00  0.00    +0.100 C 
ATOM     34  N   UNL     1      35.313 -22.406 -14.999  0.00  0.00    -0.342 N 
ATOM     35  H   UNL     1      34.680 -22.613 -14.274  0.00  0.00    +0.144 HD
ATOM     36  H   UNL     1      35.088 -21.720 -15.668  0.00  0.00    +0.144 HD
ENDBRANCH  26  29
ENDBRANCH  25  26
ENDBRANCH   2  25
TORSDOF 7
ENDMDL
MODEL 5
REMARK VINA RESULT:     -11.2      2.159      3.011
REMARK  Name = 11633167
REMARK  7 active torsions:
REMARK  status: ('A' for Active; 'I' for Inactive)
REMARK    1  A    between atoms: C_1  and  C_8
REMARK    2  A    between atoms: C_2  and  C_25
REMARK    3  A    between atoms: C_4  and  O_17
REMARK    4  A    between atoms: O_17  and  C_18
REMARK    5  A    between atoms: C_18  and  C_20
REMARK    6  A    between atoms: C_25  and  N_26
REMARK    7  A    between atoms: N_26  and  C_29
REMARK                            x       y       z     vdW  Elec       q    Type
REMARK                         _______ _______ _______ _____ _____    ______ ____
ROOT
ATOM      1  C   UNL     1      36.070 -21.755 -18.523  0.00  0.00    -0.000 C 
ATOM      2  C   UNL     1      35.500 -23.304 -16.760  0.00  0.00    +0.031 C 
ATOM      3  C   UNL     1      35.145 -22.600 -17.912  0.00  0.00    +0.000 C 
ATOM      4  C   UNL     1      36.778 -23.161 -16.222  0.00  0.00    +0.137 C 
ATOM      5  C   UNL     1      37.348 -21.612 -17.986  0.00  0.00    +0.003 C 
ATOM      6  C   UNL     1      37.703 -22.316 -16.835  0.00  0.00    +0.037 C 
ENDROOT
BRANCH   1   8
ATOM      7  N   UNL     1      36.997 -18.763 -22.377  0.00  0.00    -0.312 N 
ATOM      8  C   UNL     1      35.702 -21.024 -19.718  0.00  0.00    +0.001 C 
ATOM      9  C   UNL     1      36.273 -19.575 -21.533  0.00  0.00    +0.048 C 
ATOM     10  C   UNL     1      34.967 -19.620 -22.028  0.00  0.00    +0.015 C 
ATOM     11  C   UNL     1      36.670 -20.265 -20.383  0.00  0.00    +0.015 C 
ATOM     12  C   UNL     1      34.393 -21.088 -20.187  0.00  0.00    +0.000 C 
ATOM     13  C   UNL     1      34.009 -20.392 -21.340  0.00  0.00    +0.001 C 
ATOM     14  C   UNL     1      34.934 -18.810 -23.196  0.00  0.00    +0.017 C 
ATOM     15  C   UNL     1      36.196 -18.295 -23.385  0.00  0.00    +0.062 C 
ATOM     16  H   UNL     1      37.952 -18.549 -22.272  0.00  0.00    +0.152 HD
ENDBRANCH   1   8
BRANCH   4  17
ATOM     17  O   UNL     1      37.141 -23.840 -15.099  0.00  0.00    -0.469 OA
BRANCH  17  18
ATOM     18  C   UNL     1      37.649 -23.071 -14.011  0.00  0.00    +0.251 C 
BRANCH  18  20
ATOM     19  N   UNL     1      37.493 -23.002 -11.596  0.00  0.00    -0.244 NA
ATOM     20  C   UNL     1      37.036 -23.564 -12.733  0.00  0.00    +0.103 C 
ATOM     21  C   UNL     1      36.060 -24.540 -12.789  0.00  0.00    +0.018 C 
ATOM     22  C   UNL     1      35.513 -24.974 -11.588  0.00  0.00    +0.003 C 
ATOM     23  C   UNL     1      36.938 -23.450 -10.448  0.00  0.00    +0.099 C 
ATOM     24  C   UNL     1      35.954 -24.424 -10.390  0.00  0.00    +0.021 C 
ENDBRANCH  18  20
ENDBRANCH  17  18
ENDBRANCH   4  17
BRANCH   2  25
ATOM     25  C   UNL     1      34.498 -24.205 -16.118  0.00  0.00    +0.117 C 
BRANCH  25  26
ATOM     26  N   UNL     1      33.504 -23.465 -15.339  0.00  0.00    -0.327 N 
ATOM     27  H   UNL     1      33.818 -22.783 -14.702  0.00  0.00    +0.147 HD
BRANCH  26  29
ATOM     28  N   UNL     1      30.116 -24.842 -14.754  0.00  0.00    -0.228 NA
ATOM     29  C   UNL     1      32.150 -23.678 -15.454  0.00  0.00    +0.077 C 
ATOM     30  C   UNL     1      31.444 -24.604 -14.671  0.00  0.00    +0.139 C 
ATOM     31  C   UNL     1      31.382 -22.959 -16.388  0.00  0.00    +0.019 C 
ATOM     32  C   UNL     1      30.013 -23.176 -16.503  0.00  0.00    +0.022 C 
ATOM     33  C   UNL     1      29.433 -24.120 -15.670  0.00  0.00    +0.100 C 
ATOM     34  N   UNL     1      32.187 -25.347 -13.719  0.00  0.00    -0.342 N 
ATOM     35  H   UNL     1      31.734 -26.007 -13.147  0.00  0.00    +0.144 HD
ATOM     36  H   UNL     1      33.157 -25.201 -13.629  0.00  0.00    +0.144 HD
ENDBRANCH  26  29
ENDBRANCH  25  26
ENDBRANCH   2  25
TORSDOF 7
ENDMDL
MODEL 6
REMARK VINA RESULT:     -10.6      1.891      7.120
REMARK  Name = 11633167
REMARK  7 active torsions:
REMARK  status: ('A' for Active; 'I' for Inactive)
REMARK    1  A    between atoms: C_1  and  C_8
REMARK    2  A    between atoms: C_2  and  C_25
REMARK    3  A    between atoms: C_4  and  O_17
REMARK    4  A    between atoms: O_17  and  C_18
REMARK    5  A    between atoms: C_18  and  C_20
REMARK    6  A    between atoms: C_25  and  N_26
REMARK    7  A    between atoms: N_26  and  C_29
REMARK                            x       y       z     vdW  Elec       q    Type
REMARK                         _______ _______ _______ _____ _____    ______ ____
ROOT
ATOM      1  C   UNL     1      33.829 -23.364 -15.688  0.00  0.00    -0.000 C 
ATOM      2  C   UNL     1      35.854 -22.671 -16.806  0.00  0.00    +0.031 C 
ATOM      3  C   UNL     1      34.478 -22.903 -16.832  0.00  0.00    +0.000 C 
ATOM      4  C   UNL     1      36.578 -22.899 -15.637  0.00  0.00    +0.137 C 
ATOM      5  C   UNL     1      34.552 -23.593 -14.518  0.00  0.00    +0.003 C 
ATOM      6  C   UNL     1      35.927 -23.359 -14.492  0.00  0.00    +0.037 C 
ENDROOT
BRANCH   1   8
ATOM      7  N   UNL     1      29.221 -22.654 -17.398  0.00  0.00    -0.312 N 
ATOM      8  C   UNL     1      32.402 -23.606 -15.714  0.00  0.00    +0.001 C 
ATOM      9  C   UNL     1      30.231 -23.176 -16.623  0.00  0.00    +0.048 C 
ATOM     10  C   UNL     1      29.643 -24.091 -15.746  0.00  0.00    +0.015 C 
ATOM     11  C   UNL     1      31.605 -22.913 -16.631  0.00  0.00    +0.015 C 
ATOM     12  C   UNL     1      31.843 -24.524 -14.827  0.00  0.00    +0.000 C 
ATOM     13  C   UNL     1      30.467 -24.777 -14.830  0.00  0.00    +0.001 C 
ATOM     14  C   UNL     1      28.248 -24.100 -16.023  0.00  0.00    +0.017 C 
ATOM     15  C   UNL     1      28.018 -23.205 -17.043  0.00  0.00    +0.062 C 
ATOM     16  H   UNL     1      29.344 -21.980 -18.106  0.00  0.00    +0.152 HD
ENDBRANCH   1   8
BRANCH   4  17
ATOM     17  O   UNL     1      37.921 -22.678 -15.594  0.00  0.00    -0.469 OA
BRANCH  17  18
ATOM     18  C   UNL     1      38.770 -23.817 -15.708  0.00  0.00    +0.251 C 
BRANCH  18  20
ATOM     19  N   UNL     1      38.730 -24.428 -13.366  0.00  0.00    -0.244 NA
ATOM     20  C   UNL     1      38.424 -24.797 -14.626  0.00  0.00    +0.103 C 
ATOM     21  C   UNL     1      37.826 -25.994 -14.970  0.00  0.00    +0.018 C 
ATOM     22  C   UNL     1      37.518 -26.879 -13.943  0.00  0.00    +0.003 C 
ATOM     23  C   UNL     1      38.416 -25.314 -12.395  0.00  0.00    +0.099 C 
ATOM     24  C   UNL     1      37.815 -26.540 -12.628  0.00  0.00    +0.021 C 
ENDBRANCH  18  20
ENDBRANCH  17  18
ENDBRANCH   4  17
BRANCH   2  25
ATOM     25  C   UNL     1      36.534 -22.178 -18.040  0.00  0.00    +0.117 C 
BRANCH  25  26
ATOM     26  N   UNL     1      35.643 -22.170 -19.201  0.00  0.00    -0.327 N 
ATOM     27  H   UNL     1      35.080 -22.960 -19.367  0.00  0.00    +0.147 HD
BRANCH  26  29
ATOM     28  N   UNL     1      34.211 -19.599 -21.451  0.00  0.00    -0.228 NA
ATOM     29  C   UNL     1      35.553 -21.108 -20.071  0.00  0.00    +0.077 C 
ATOM     30  C   UNL     1      34.340 -20.637 -20.594  0.00  0.00    +0.139 C 
ATOM     31  C   UNL     1      36.706 -20.421 -20.493  0.00  0.00    +0.019 C 
ATOM     32  C   UNL     1      36.615 -19.348 -21.374  0.00  0.00    +0.022 C 
ATOM     33  C   UNL     1      35.355 -18.980 -21.819  0.00  0.00    +0.100 C 
ATOM     34  N   UNL     1      33.157 -21.307 -20.190  0.00  0.00    -0.342 N 
ATOM     35  H   UNL     1      32.283 -21.011 -20.532  0.00  0.00    +0.144 HD
ATOM     36  H   UNL     1      33.211 -22.069 -19.567  0.00  0.00    +0.144 HD
ENDBRANCH  26  29
ENDBRANCH  25  26
ENDBRANCH   2  25
TORSDOF 7
ENDMDL
MODEL 7
REMARK VINA RESULT:     -10.6      1.774      8.457
REMARK  Name = 11633167
REMARK  7 active torsions:
REMARK  status: ('A' for Active; 'I' for Inactive)
REMARK    1  A    between atoms: C_1  and  C_8
REMARK    2  A    between atoms: C_2  and  C_25
REMARK    3  A    between atoms: C_4  and  O_17
REMARK    4  A    between atoms: O_17  and  C_18
REMARK    5  A    between atoms: C_18  and  C_20
REMARK    6  A    between atoms: C_25  and  N_26
REMARK    7  A    between atoms: N_26  and  C_29
REMARK                            x       y       z     vdW  Elec       q    Type
REMARK                         _______ _______ _______ _____ _____    ______ ____
ROOT
ATOM      1  C   UNL     1      34.106 -23.127 -17.138  0.00  0.00    -0.000 C 
ATOM      2  C   UNL     1      36.363 -22.312 -17.404  0.00  0.00    +0.031 C 
ATOM      3  C   UNL     1      35.367 -22.870 -16.602  0.00  0.00    +0.000 C 
ATOM      4  C   UNL     1      36.097 -22.011 -18.739  0.00  0.00    +0.137 C 
ATOM      5  C   UNL     1      33.838 -22.827 -18.473  0.00  0.00    +0.003 C 
ATOM      6  C   UNL     1      34.835 -22.269 -19.274  0.00  0.00    +0.037 C 
ENDROOT
BRANCH   1   8
ATOM      7  N   UNL     1      29.428 -24.453 -16.122  0.00  0.00    -0.312 N 
ATOM      8  C   UNL     1      33.071 -23.707 -16.307  0.00  0.00    +0.001 C 
ATOM      9  C   UNL     1      30.783 -24.297 -15.934  0.00  0.00    +0.048 C 
ATOM     10  C   UNL     1      31.088 -24.834 -14.681  0.00  0.00    +0.015 C 
ATOM     11  C   UNL     1      31.752 -23.727 -16.768  0.00  0.00    +0.015 C 
ATOM     12  C   UNL     1      33.405 -24.235 -15.062  0.00  0.00    +0.000 C 
ATOM     13  C   UNL     1      32.426 -24.802 -14.238  0.00  0.00    +0.001 C 
ATOM     14  C   UNL     1      29.872 -25.319 -14.126  0.00  0.00    +0.017 C 
ATOM     15  C   UNL     1      28.868 -25.069 -15.034  0.00  0.00    +0.062 C 
ATOM     16  H   UNL     1      28.933 -24.163 -16.922  0.00  0.00    +0.152 HD
ENDBRANCH   1   8
BRANCH   4  17
ATOM     17  O   UNL     1      37.057 -21.465 -19.535  0.00  0.00    -0.469 OA
BRANCH  17  18
ATOM     18  C   UNL     1      37.123 -20.042 -19.591  0.00  0.00    +0.251 C 
BRANCH  18  20
ATOM     19  N   UNL     1      37.693 -18.970 -21.685  0.00  0.00    -0.244 NA
ATOM     20  C   UNL     1      36.733 -19.586 -20.966  0.00  0.00    +0.103 C 
ATOM     21  C   UNL     1      35.446 -19.818 -21.411  0.00  0.00    +0.018 C 
ATOM     22  C   UNL     1      35.118 -19.384 -22.690  0.00  0.00    +0.003 C 
ATOM     23  C   UNL     1      37.337 -18.561 -22.924  0.00  0.00    +0.099 C 
ATOM     24  C   UNL     1      36.075 -18.743 -23.468  0.00  0.00    +0.021 C 
ENDBRANCH  18  20
ENDBRANCH  17  18
ENDBRANCH   4  17
BRANCH   2  25
ATOM     25  C   UNL     1      37.708 -22.042 -16.815  0.00  0.00    +0.117 C 
BRANCH  25  26
ATOM     26  N   UNL     1      38.429 -23.273 -16.490  0.00  0.00    -0.327 N 
ATOM     27  H   UNL     1      38.966 -23.703 -17.194  0.00  0.00    +0.147 HD
BRANCH  26  29
ATOM     28  N   UNL     1      39.186 -25.553 -13.671  0.00  0.00    -0.228 NA
ATOM     29  C   UNL     1      38.392 -23.860 -15.247  0.00  0.00    +0.077 C 
ATOM     30  C   UNL     1      39.195 -24.950 -14.881  0.00  0.00    +0.139 C 
ATOM     31  C   UNL     1      37.521 -23.383 -14.249  0.00  0.00    +0.019 C 
ATOM     32  C   UNL     1      37.484 -23.977 -12.992  0.00  0.00    +0.022 C 
ATOM     33  C   UNL     1      38.329 -25.049 -12.756  0.00  0.00    +0.100 C 
ATOM     34  N   UNL     1      40.084 -25.457 -15.863  0.00  0.00    -0.342 N 
ATOM     35  H   UNL     1      40.667 -26.221 -15.651  0.00  0.00    +0.144 HD
ATOM     36  H   UNL     1      40.118 -25.044 -16.757  0.00  0.00    +0.144 HD
ENDBRANCH  26  29
ENDBRANCH  25  26
ENDBRANCH   2  25
TORSDOF 7
ENDMDL
MODEL 8
REMARK VINA RESULT:     -10.5      1.949      7.878
REMARK  Name = 11633167
REMARK  7 active torsions:
REMARK  status: ('A' for Active; 'I' for Inactive)
REMARK    1  A    between atoms: C_1  and  C_8
REMARK    2  A    between atoms: C_2  and  C_25
REMARK    3  A    between atoms: C_4  and  O_17
REMARK    4  A    between atoms: O_17  and  C_18
REMARK    5  A    between atoms: C_18  and  C_20
REMARK    6  A    between atoms: C_25  and  N_26
REMARK    7  A    between atoms: N_26  and  C_29
REMARK                            x       y       z     vdW  Elec       q    Type
REMARK                         _______ _______ _______ _____ _____    ______ ____
ROOT
ATOM      1  C   UNL     1      35.951 -22.906 -16.719  0.00  0.00    -0.000 C 
ATOM      2  C   UNL     1      34.026 -22.715 -18.164  0.00  0.00    +0.031 C 
ATOM      3  C   UNL     1      34.592 -23.114 -16.953  0.00  0.00    +0.000 C 
ATOM      4  C   UNL     1      34.817 -22.109 -19.138  0.00  0.00    +0.137 C 
ATOM      5  C   UNL     1      36.743 -22.300 -17.692  0.00  0.00    +0.003 C 
ATOM      6  C   UNL     1      36.176 -21.900 -18.903  0.00  0.00    +0.037 C 
ENDROOT
BRANCH   1   8
ATOM      7  N   UNL     1      35.863 -23.778 -11.831  0.00  0.00    -0.312 N 
ATOM      8  C   UNL     1      36.540 -23.320 -15.463  0.00  0.00    +0.001 C 
ATOM      9  C   UNL     1      36.373 -23.701 -13.107  0.00  0.00    +0.048 C 
ATOM     10  C   UNL     1      37.702 -24.127 -13.045  0.00  0.00    +0.015 C 
ATOM     11  C   UNL     1      35.765 -23.293 -14.300  0.00  0.00    +0.015 C 
ATOM     12  C   UNL     1      37.868 -23.740 -15.431  0.00  0.00    +0.000 C 
ATOM     13  C   UNL     1      38.463 -24.145 -14.231  0.00  0.00    +0.001 C 
ATOM     14  C   UNL     1      37.971 -24.463 -11.690  0.00  0.00    +0.017 C 
ATOM     15  C   UNL     1      36.822 -24.237 -10.966  0.00  0.00    +0.062 C 
ATOM     16  H   UNL     1      34.943 -23.538 -11.575  0.00  0.00    +0.152 HD
ENDBRANCH   1   8
BRANCH   4  17
ATOM     17  O   UNL     1      34.281 -21.713 -20.326  0.00  0.00    -0.469 OA
BRANCH  17  18
ATOM     18  C   UNL     1      33.979 -20.327 -20.472  0.00  0.00    +0.251 C 
BRANCH  18  20
ATOM     19  N   UNL     1      36.107 -19.264 -20.921  0.00  0.00    -0.244 NA
ATOM     20  C   UNL     1      34.947 -19.714 -21.440  0.00  0.00    +0.103 C 
ATOM     21  C   UNL     1      34.607 -19.646 -22.777  0.00  0.00    +0.018 C 
ATOM     22  C   UNL     1      35.525 -19.072 -23.648  0.00  0.00    +0.003 C 
ATOM     23  C   UNL     1      36.975 -18.712 -21.798  0.00  0.00    +0.099 C 
ATOM     24  C   UNL     1      36.736 -18.594 -23.158  0.00  0.00    +0.021 C 
ENDBRANCH  18  20
ENDBRANCH  17  18
ENDBRANCH   4  17
BRANCH   2  25
ATOM     25  C   UNL     1      32.570 -22.945 -18.400  0.00  0.00    +0.117 C 
BRANCH  25  26
ATOM     26  N   UNL     1      31.750 -22.530 -17.261  0.00  0.00    -0.327 N 
ATOM     27  H   UNL     1      31.650 -21.568 -17.080  0.00  0.00    +0.147 HD
BRANCH  26  29
ATOM     28  N   UNL     1      29.072 -24.541 -15.679  0.00  0.00    -0.228 NA
ATOM     29  C   UNL     1      31.113 -23.422 -16.430  0.00  0.00    +0.077 C 
ATOM     30  C   UNL     1      29.733 -23.674 -16.478  0.00  0.00    +0.139 C 
ATOM     31  C   UNL     1      31.831 -24.148 -15.462  0.00  0.00    +0.019 C 
ATOM     32  C   UNL     1      31.186 -25.050 -14.622  0.00  0.00    +0.022 C 
ATOM     33  C   UNL     1      29.817 -25.208 -14.770  0.00  0.00    +0.100 C 
ATOM     34  N   UNL     1      28.978 -22.959 -17.442  0.00  0.00    -0.342 N 
ATOM     35  H   UNL     1      28.007 -23.104 -17.512  0.00  0.00    +0.144 HD
ATOM     36  H   UNL     1      29.426 -22.318 -18.041  0.00  0.00    +0.144 HD
ENDBRANCH  26  29
ENDBRANCH  25  26
ENDBRANCH   2  25
TORSDOF 7
ENDMDL
MODEL 9
REMARK VINA RESULT:     -10.4      2.307      5.461
REMARK  Name = 11633167
REMARK  7 active torsions:
REMARK  status: ('A' for Active; 'I' for Inactive)
REMARK    1  A    between atoms: C_1  and  C_8
REMARK    2  A    between atoms: C_2  and  C_25
REMARK    3  A    between atoms: C_4  and  O_17
REMARK    4  A    between atoms: O_17  and  C_18
REMARK    5  A    between atoms: C_18  and  C_20
REMARK    6  A    between atoms: C_25  and  N_26
REMARK    7  A    between atoms: N_26  and  C_29
REMARK                            x       y       z     vdW  Elec       q    Type
REMARK                         _______ _______ _______ _____ _____    ______ ____
ROOT
ATOM      1  C   UNL     1      34.653 -22.137 -18.563  0.00  0.00    -0.000 C 
ATOM      2  C   UNL     1      35.325 -23.325 -16.571  0.00  0.00    +0.031 C 
ATOM      3  C   UNL     1      35.637 -22.478 -17.635  0.00  0.00    +0.000 C 
ATOM      4  C   UNL     1      34.032 -23.829 -16.437  0.00  0.00    +0.137 C 
ATOM      5  C   UNL     1      33.361 -22.640 -18.430  0.00  0.00    +0.003 C 
ATOM      6  C   UNL     1      33.049 -23.487 -17.365  0.00  0.00    +0.037 C 
ENDROOT
BRANCH   1   8
ATOM      7  N   UNL     1      37.747 -19.406 -21.327  0.00  0.00    -0.312 N 
ATOM      8  C   UNL     1      34.976 -21.258 -19.668  0.00  0.00    +0.001 C 
ATOM      9  C   UNL     1      36.563 -19.978 -20.919  0.00  0.00    +0.048 C 
ATOM     10  C   UNL     1      35.575 -19.560 -21.813  0.00  0.00    +0.015 C 
ATOM     11  C   UNL     1      36.295 -20.826 -19.839  0.00  0.00    +0.015 C 
ATOM     12  C   UNL     1      33.970 -20.857 -20.544  0.00  0.00    +0.000 C 
ATOM     13  C   UNL     1      34.253 -20.008 -21.620  0.00  0.00    +0.001 C 
ATOM     14  C   UNL     1      36.207 -18.719 -22.771  0.00  0.00    +0.017 C 
ATOM     15  C   UNL     1      37.542 -18.642 -22.445  0.00  0.00    +0.062 C 
ATOM     16  H   UNL     1      38.616 -19.527 -20.880  0.00  0.00    +0.152 HD
ENDBRANCH   1   8
BRANCH   4  17
ATOM     17  O   UNL     1      33.711 -24.657 -15.404  0.00  0.00    -0.469 OA
BRANCH  17  18
ATOM     18  C   UNL     1      32.892 -24.116 -14.369  0.00  0.00    +0.251 C 
BRANCH  18  20
ATOM     19  N   UNL     1      30.878 -25.289 -15.027  0.00  0.00    -0.244 NA
ATOM     20  C   UNL     1      31.466 -24.090 -14.836  0.00  0.00    +0.103 C 
ATOM     21  C   UNL     1      30.848 -22.872 -15.038  0.00  0.00    +0.018 C 
ATOM     22  C   UNL     1      29.527 -22.883 -15.471  0.00  0.00    +0.003 C 
ATOM     23  C   UNL     1      29.594 -25.260 -15.448  0.00  0.00    +0.099 C 
ATOM     24  C   UNL     1      28.880 -24.096 -15.682  0.00  0.00    +0.021 C 
ENDBRANCH  18  20
ENDBRANCH  17  18
ENDBRANCH   4  17
BRANCH   2  25
ATOM     25  C   UNL     1      36.389 -23.681 -15.586  0.00  0.00    +0.117 C 
BRANCH  25  26
ATOM     26  N   UNL     1      36.304 -22.882 -14.363  0.00  0.00    -0.327 N 
ATOM     27  H   UNL     1      36.214 -21.905 -14.445  0.00  0.00    +0.147 HD
BRANCH  26  29
ATOM     28  N   UNL     1      37.342 -23.564 -10.874  0.00  0.00    -0.228 NA
ATOM     29  C   UNL     1      36.344 -23.431 -13.103  0.00  0.00    +0.077 C 
ATOM     30  C   UNL     1      37.270 -23.048 -12.121  0.00  0.00    +0.139 C 
ATOM     31  C   UNL     1      35.433 -24.434 -12.722  0.00  0.00    +0.019 C 
ATOM     32  C   UNL     1      35.474 -24.989 -11.447  0.00  0.00    +0.022 C 
ATOM     33  C   UNL     1      36.440 -24.523 -10.569  0.00  0.00    +0.100 C 
ATOM     34  N   UNL     1      38.204 -22.040 -12.472  0.00  0.00    -0.342 N 
ATOM     35  H   UNL     1      38.873 -21.739 -11.815  0.00  0.00    +0.144 HD
ATOM     36  H   UNL     1      38.183 -21.641 -13.372  0.00  0.00    +0.144 HD
ENDBRANCH  26  29
ENDBRANCH  25  26
ENDBRANCH   2  25
TORSDOF 7
ENDMDL
