MODEL 1
REMARK VINA RESULT:     -12.1      0.000      0.000
REMARK  Name = 16040279
REMARK  5 active torsions:
REMARK  status: ('A' for Active; 'I' for Inactive)
REMARK    1  A    between atoms: N_2  and  C_21
REMARK    2  A    between atoms: C_3  and  C_11
REMARK    3  A    between atoms: C_4  and  N_17
REMARK    4  A    between atoms: C_21  and  C_22
REMARK    5  A    between atoms: C_22  and  C_25
REMARK                            x       y       z     vdW  Elec       q    Type
REMARK                         _______ _______ _______ _____ _____    ______ ____
ROOT
ATOM      1  O   UNL     1      34.917 -17.345 -25.635  0.00  0.00    -0.275 OA
ATOM      2  N   UNL     1      35.391 -17.235 -23.365  0.00  0.00    -0.281 N 
ATOM      3  C   UNL     1      34.036 -14.704 -23.246  0.00  0.00    +0.015 C 
ATOM      4  C   UNL     1      35.060 -15.061 -22.154  0.00  0.00    -0.041 C 
ATOM      5  C   UNL     1      35.176 -16.581 -22.076  0.00  0.00    +0.072 C 
ATOM      6  C   UNL     1      34.543 -15.250 -24.583  0.00  0.00    +0.088 C 
ATOM      7  C   UNL     1      34.935 -16.715 -24.574  0.00  0.00    +0.226 C 
ENDROOT
BRANCH   3  11
ATOM      8  F   UNL     1      31.958 -13.409 -21.810  0.00  0.00    -0.204 F 
ATOM      9  F   UNL     1      34.976 -10.303 -25.150  0.00  0.00    -0.202 F 
ATOM     10  F   UNL     1      32.941  -9.186 -23.706  0.00  0.00    -0.202 F 
ATOM     11  C   UNL     1      33.738 -13.218 -23.368  0.00  0.00    +0.006 C 
ATOM     12  C   UNL     1      32.701 -12.654 -22.631  0.00  0.00    +0.138 C 
ATOM     13  C   UNL     1      34.508 -12.430 -24.219  0.00  0.00    +0.030 C 
ATOM     14  C   UNL     1      34.238 -11.065 -24.333  0.00  0.00    +0.167 C 
ATOM     15  C   UNL     1      32.431 -11.290 -22.746  0.00  0.00    +0.061 C 
ATOM     16  C   UNL     1      33.200 -10.496 -23.597  0.00  0.00    +0.170 C 
ENDBRANCH   3  11
BRANCH   4  17
ATOM     17  N   UNL     1      34.657 -14.560 -20.837  0.00  0.00    +0.383 N 
ATOM     18  H   UNL     1      35.329 -14.871 -20.135  0.00  0.00    -0.089 HD
ATOM     19  H   UNL     1      33.731 -14.921 -20.605  0.00  0.00    -0.089 HD
ATOM     20  H   UNL     1      34.630 -13.540 -20.854  0.00  0.00    -0.089 HD
ENDBRANCH   4  17
BRANCH   2  21
ATOM     21  C   UNL     1      35.872 -18.609 -23.309  0.00  0.00    +0.098 C 
BRANCH  21  22
ATOM     22  C   UNL     1      36.382 -18.995 -21.922  0.00  0.00    +0.048 C 
BRANCH  22  25
ATOM     23  O   UNL     1      35.374 -22.629 -18.735  0.00  0.00    -0.435 OA
ATOM     24  O   UNL     1      33.001 -22.462 -19.117  0.00  0.00    -0.435 OA
ATOM     25  C   UNL     1      35.442 -19.914 -21.182  0.00  0.00    -0.017 C 
ATOM     26  C   UNL     1      35.963 -20.842 -20.291  0.00  0.00    +0.036 C 
ATOM     27  C   UNL     1      34.068 -19.807 -21.415  0.00  0.00    -0.001 C 
ATOM     28  C   UNL     1      35.064 -21.661 -19.639  0.00  0.00    +0.176 C 
ATOM     29  C   UNL     1      33.708 -21.566 -19.858  0.00  0.00    +0.176 C 
ATOM     30  C   UNL     1      33.178 -20.647 -20.741  0.00  0.00    +0.040 C 
ATOM     31  C   UNL     1      34.062 -23.132 -18.408  0.00  0.00    +0.429 C 
ENDBRANCH  22  25
ENDBRANCH  21  22
ENDBRANCH   2  21
TORSDOF 5
ENDMDL
MODEL 2
REMARK VINA RESULT:     -11.8      3.695      5.945
REMARK  Name = 16040279
REMARK  5 active torsions:
REMARK  status: ('A' for Active; 'I' for Inactive)
REMARK    1  A    between atoms: N_2  and  C_21
REMARK    2  A    between atoms: C_3  and  C_11
REMARK    3  A    between atoms: C_4  and  N_17
REMARK    4  A    between atoms: C_21  and  C_22
REMARK    5  A    between atoms: C_22  and  C_25
REMARK                            x       y       z     vdW  Elec       q    Type
REMARK                         _______ _______ _______ _____ _____    ______ ____
ROOT
ATOM      1  O   UNL     1      33.147 -21.269 -19.915  0.00  0.00    -0.275 OA
ATOM      2  N   UNL     1      35.467 -21.185 -19.918  0.00  0.00    -0.281 N 
ATOM      3  C   UNL     1      35.341 -18.872 -21.619  0.00  0.00    +0.015 C 
ATOM      4  C   UNL     1      36.632 -19.709 -21.582  0.00  0.00    -0.041 C 
ATOM      5  C   UNL     1      36.689 -20.456 -20.251  0.00  0.00    +0.072 C 
ATOM      6  C   UNL     1      34.145 -19.821 -21.510  0.00  0.00    +0.088 C 
ATOM      7  C   UNL     1      34.201 -20.800 -20.352  0.00  0.00    +0.226 C 
ENDROOT
BRANCH   3  11
ATOM      8  F   UNL     1      34.904 -19.900 -24.228  0.00  0.00    -0.204 F 
ATOM      9  F   UNL     1      35.228 -14.464 -23.724  0.00  0.00    -0.202 F 
ATOM     10  F   UNL     1      34.809 -15.591 -26.180  0.00  0.00    -0.202 F 
ATOM     11  C   UNL     1      35.198 -17.990 -22.849  0.00  0.00    +0.006 C 
ATOM     12  C   UNL     1      34.985 -18.569 -24.097  0.00  0.00    +0.138 C 
ATOM     13  C   UNL     1      35.281 -16.607 -22.718  0.00  0.00    +0.030 C 
ATOM     14  C   UNL     1      35.149 -15.795 -23.845  0.00  0.00    +0.167 C 
ATOM     15  C   UNL     1      34.854 -17.757 -25.224  0.00  0.00    +0.061 C 
ATOM     16  C   UNL     1      34.936 -16.370 -25.098  0.00  0.00    +0.170 C 
ENDBRANCH   3  11
BRANCH   4  17
ATOM     17  N   UNL     1      37.832 -18.876 -21.696  0.00  0.00    +0.383 N 
ATOM     18  H   UNL     1      37.583 -17.976 -22.105  0.00  0.00    -0.089 HD
ATOM     19  H   UNL     1      38.515 -19.344 -22.293  0.00  0.00    -0.089 HD
ATOM     20  H   UNL     1      38.234 -18.729 -20.770  0.00  0.00    -0.089 HD
ENDBRANCH   4  17
BRANCH   2  21
ATOM     21  C   UNL     1      35.593 -22.193 -18.873  0.00  0.00    +0.098 C 
BRANCH  21  22
ATOM     22  C   UNL     1      36.786 -21.938 -17.954  0.00  0.00    +0.048 C 
BRANCH  22  25
ATOM     23  O   UNL     1      38.664 -24.171 -13.971  0.00  0.00    -0.435 OA
ATOM     24  O   UNL     1      36.485 -24.568 -13.023  0.00  0.00    -0.435 OA
ATOM     25  C   UNL     1      36.668 -22.644 -16.626  0.00  0.00    -0.017 C 
ATOM     26  C   UNL     1      37.822 -23.053 -15.972  0.00  0.00    +0.036 C 
ATOM     27  C   UNL     1      35.398 -22.869 -16.089  0.00  0.00    -0.001 C 
ATOM     28  C   UNL     1      37.663 -23.695 -14.761  0.00  0.00    +0.176 C 
ATOM     29  C   UNL     1      36.418 -23.923 -14.220  0.00  0.00    +0.176 C 
ATOM     30  C   UNL     1      35.264 -23.521 -14.860  0.00  0.00    +0.040 C 
ATOM     31  C   UNL     1      37.910 -24.722 -12.872  0.00  0.00    +0.429 C 
ENDBRANCH  22  25
ENDBRANCH  21  22
ENDBRANCH   2  21
TORSDOF 5
ENDMDL
MODEL 3
REMARK VINA RESULT:     -11.7      1.566      2.738
REMARK  Name = 16040279
REMARK  5 active torsions:
REMARK  status: ('A' for Active; 'I' for Inactive)
REMARK    1  A    between atoms: N_2  and  C_21
REMARK    2  A    between atoms: C_3  and  C_11
REMARK    3  A    between atoms: C_4  and  N_17
REMARK    4  A    between atoms: C_21  and  C_22
REMARK    5  A    between atoms: C_22  and  C_25
REMARK                            x       y       z     vdW  Elec       q    Type
REMARK                         _______ _______ _______ _____ _____    ______ ____
ROOT
ATOM      1  O   UNL     1      35.379 -16.325 -20.695  0.00  0.00    -0.275 OA
ATOM      2  N   UNL     1      35.097 -16.546 -22.988  0.00  0.00    -0.281 N 
ATOM      3  C   UNL     1      34.324 -13.781 -23.119  0.00  0.00    +0.015 C 
ATOM      4  C   UNL     1      33.899 -14.735 -24.250  0.00  0.00    -0.041 C 
ATOM      5  C   UNL     1      34.874 -15.910 -24.285  0.00  0.00    +0.072 C 
ATOM      6  C   UNL     1      34.259 -14.543 -21.793  0.00  0.00    +0.088 C 
ATOM      7  C   UNL     1      34.993 -15.870 -21.775  0.00  0.00    +0.226 C 
ENDROOT
BRANCH   3  11
ATOM      8  F   UNL     1      34.924 -11.434 -24.598  0.00  0.00    -0.204 F 
ATOM      9  F   UNL     1      30.567 -11.243 -21.297  0.00  0.00    -0.202 F 
ATOM     10  F   UNL     1      31.260  -9.053 -22.780  0.00  0.00    -0.202 F 
ATOM     11  C   UNL     1      33.500 -12.506 -23.030  0.00  0.00    +0.006 C 
ATOM     12  C   UNL     1      33.857 -11.395 -23.787  0.00  0.00    +0.138 C 
ATOM     13  C   UNL     1      32.392 -12.460 -22.189  0.00  0.00    +0.030 C 
ATOM     14  C   UNL     1      31.634 -11.292 -22.104  0.00  0.00    +0.167 C 
ATOM     15  C   UNL     1      33.100 -10.226 -23.702  0.00  0.00    +0.061 C 
ATOM     16  C   UNL     1      31.988 -10.175 -22.861  0.00  0.00    +0.170 C 
ENDBRANCH   3  11
BRANCH   4  17
ATOM     17  N   UNL     1      33.920 -14.079 -25.560  0.00  0.00    +0.383 N 
ATOM     18  H   UNL     1      34.378 -13.171 -25.478  0.00  0.00    -0.089 HD
ATOM     19  H   UNL     1      32.962 -13.949 -25.890  0.00  0.00    -0.089 HD
ATOM     20  H   UNL     1      34.432 -14.660 -26.224  0.00  0.00    -0.089 HD
ENDBRANCH   4  17
BRANCH   2  21
ATOM     21  C   UNL     1      35.707 -17.869 -23.025  0.00  0.00    +0.098 C 
BRANCH  21  22
ATOM     22  C   UNL     1      34.674 -18.992 -22.946  0.00  0.00    +0.048 C 
BRANCH  22  25
ATOM     23  O   UNL     1      33.085 -22.067 -19.426  0.00  0.00    -0.435 OA
ATOM     24  O   UNL     1      35.302 -22.379 -18.535  0.00  0.00    -0.435 OA
ATOM     25  C   UNL     1      34.880 -19.898 -21.758  0.00  0.00    -0.017 C 
ATOM     26  C   UNL     1      33.783 -20.539 -21.197  0.00  0.00    +0.036 C 
ATOM     27  C   UNL     1      36.171 -20.069 -21.251  0.00  0.00    -0.001 C 
ATOM     28  C   UNL     1      34.021 -21.358 -20.112  0.00  0.00    +0.176 C 
ATOM     29  C   UNL     1      35.288 -21.535 -19.603  0.00  0.00    +0.176 C 
ATOM     30  C   UNL     1      36.385 -20.904 -20.152  0.00  0.00    +0.040 C 
ATOM     31  C   UNL     1      33.904 -22.712 -18.429  0.00  0.00    +0.429 C 
ENDBRANCH  22  25
ENDBRANCH  21  22
ENDBRANCH   2  21
TORSDOF 5
ENDMDL
MODEL 4
REMARK VINA RESULT:     -11.5      1.471      2.326
REMARK  Name = 16040279
REMARK  5 active torsions:
REMARK  status: ('A' for Active; 'I' for Inactive)
REMARK    1  A    between atoms: N_2  and  C_21
REMARK    2  A    between atoms: C_3  and  C_11
REMARK    3  A    between atoms: C_4  and  N_17
REMARK    4  A    between atoms: C_21  and  C_22
REMARK    5  A    between atoms: C_22  and  C_25
REMARK                            x       y       z     vdW  Elec       q    Type
REMARK                         _______ _______ _______ _____ _____    ______ ____
ROOT
ATOM      1  O   UNL     1      33.701 -15.593 -26.574  0.00  0.00    -0.275 OA
ATOM      2  N   UNL     1      34.823 -15.963 -24.577  0.00  0.00    -0.281 N 
ATOM      3  C   UNL     1      33.390 -13.762 -23.410  0.00  0.00    +0.015 C 
ATOM      4  C   UNL     1      34.717 -14.216 -22.776  0.00  0.00    -0.041 C 
ATOM      5  C   UNL     1      34.959 -15.677 -23.150  0.00  0.00    +0.072 C 
ATOM      6  C   UNL     1      33.510 -13.891 -24.931  0.00  0.00    +0.088 C 
ATOM      7  C   UNL     1      33.990 -15.241 -25.428  0.00  0.00    +0.226 C 
ENDROOT
BRANCH   3  11
ATOM      8  F   UNL     1      31.605 -13.186 -21.279  0.00  0.00    -0.204 F 
ATOM      9  F   UNL     1      33.547  -8.929 -24.112  0.00  0.00    -0.202 F 
ATOM     10  F   UNL     1      31.819  -8.519 -22.034  0.00  0.00    -0.202 F 
ATOM     11  C   UNL     1      32.965 -12.351 -23.037  0.00  0.00    +0.006 C 
ATOM     12  C   UNL     1      32.085 -12.148 -21.978  0.00  0.00    +0.138 C 
ATOM     13  C   UNL     1      33.460 -11.270 -23.760  0.00  0.00    +0.030 C 
ATOM     14  C   UNL     1      33.073  -9.973 -23.420  0.00  0.00    +0.167 C 
ATOM     15  C   UNL     1      31.696 -10.851 -21.639  0.00  0.00    +0.061 C 
ATOM     16  C   UNL     1      32.191  -9.764 -22.360  0.00  0.00    +0.170 C 
ENDBRANCH   3  11
BRANCH   4  17
ATOM     17  N   UNL     1      34.692 -14.112 -21.315  0.00  0.00    +0.383 N 
ATOM     18  H   UNL     1      35.619 -13.851 -20.977  0.00  0.00    -0.089 HD
ATOM     19  H   UNL     1      34.425 -15.012 -20.914  0.00  0.00    -0.089 HD
ATOM     20  H   UNL     1      34.016 -13.401 -21.035  0.00  0.00    -0.089 HD
ENDBRANCH   4  17
BRANCH   2  21
ATOM     21  C   UNL     1      35.395 -17.224 -25.030  0.00  0.00    +0.098 C 
BRANCH  21  22
ATOM     22  C   UNL     1      34.675 -18.438 -24.445  0.00  0.00    +0.048 C 
BRANCH  22  25
ATOM     23  O   UNL     1      34.752 -21.145 -20.317  0.00  0.00    -0.435 OA
ATOM     24  O   UNL     1      37.006 -20.479 -19.785  0.00  0.00    -0.435 OA
ATOM     25  C   UNL     1      35.334 -18.969 -23.197  0.00  0.00    -0.017 C 
ATOM     26  C   UNL     1      34.627 -19.836 -22.374  0.00  0.00    +0.036 C 
ATOM     27  C   UNL     1      36.641 -18.574 -22.900  0.00  0.00    -0.001 C 
ATOM     28  C   UNL     1      35.272 -20.295 -21.244  0.00  0.00    +0.176 C 
ATOM     29  C   UNL     1      36.560 -19.914 -20.940  0.00  0.00    +0.176 C 
ATOM     30  C   UNL     1      37.272 -19.053 -21.749  0.00  0.00    +0.040 C 
ATOM     31  C   UNL     1      35.857 -21.257 -19.396  0.00  0.00    +0.429 C 
ENDBRANCH  22  25
ENDBRANCH  21  22
ENDBRANCH   2  21
TORSDOF 5
ENDMDL
MODEL 5
REMARK VINA RESULT:     -11.5      3.989      6.654
REMARK  Name = 16040279
REMARK  5 active torsions:
REMARK  status: ('A' for Active; 'I' for Inactive)
REMARK    1  A    between atoms: N_2  and  C_21
REMARK    2  A    between atoms: C_3  and  C_11
REMARK    3  A    between atoms: C_4  and  N_17
REMARK    4  A    between atoms: C_21  and  C_22
REMARK    5  A    between atoms: C_22  and  C_25
REMARK                            x       y       z     vdW  Elec       q    Type
REMARK                         _______ _______ _______ _____ _____    ______ ____
ROOT
ATOM      1  O   UNL     1      37.091 -22.097 -18.741  0.00  0.00    -0.275 OA
ATOM      2  N   UNL     1      34.791 -22.215 -19.032  0.00  0.00    -0.281 N 
ATOM      3  C   UNL     1      35.016 -20.377 -21.230  0.00  0.00    +0.015 C 
ATOM      4  C   UNL     1      33.661 -20.532 -20.515  0.00  0.00    -0.041 C 
ATOM      5  C   UNL     1      33.619 -21.906 -19.849  0.00  0.00    +0.072 C 
ATOM      6  C   UNL     1      36.130 -20.476 -20.184  0.00  0.00    +0.088 C 
ATOM      7  C   UNL     1      36.057 -21.691 -19.278  0.00  0.00    +0.226 C 
ENDROOT
BRANCH   3  11
ATOM      8  F   UNL     1      35.201 -20.315 -24.061  0.00  0.00    -0.204 F 
ATOM      9  F   UNL     1      35.389 -15.510 -21.455  0.00  0.00    -0.202 F 
ATOM     10  F   UNL     1      35.557 -15.598 -24.182  0.00  0.00    -0.202 F 
ATOM     11  C   UNL     1      35.162 -19.091 -22.028  0.00  0.00    +0.006 C 
ATOM     12  C   UNL     1      35.247 -19.141 -23.416  0.00  0.00    +0.138 C 
ATOM     13  C   UNL     1      35.210 -17.870 -21.362  0.00  0.00    +0.030 C 
ATOM     14  C   UNL     1      35.343 -16.687 -22.091  0.00  0.00    +0.167 C 
ATOM     15  C   UNL     1      35.381 -17.959 -24.145  0.00  0.00    +0.061 C 
ATOM     16  C   UNL     1      35.429 -16.732 -23.482  0.00  0.00    +0.170 C 
ENDBRANCH   3  11
BRANCH   4  17
ATOM     17  N   UNL     1      32.534 -20.435 -21.445  0.00  0.00    +0.383 N 
ATOM     18  H   UNL     1      31.740 -20.002 -20.973  0.00  0.00    -0.089 HD
ATOM     19  H   UNL     1      32.273 -21.370 -21.761  0.00  0.00    -0.089 HD
ATOM     20  H   UNL     1      32.803 -19.867 -22.249  0.00  0.00    -0.089 HD
ENDBRANCH   4  17
BRANCH   2  21
ATOM     21  C   UNL     1      34.640 -23.322 -18.097  0.00  0.00    +0.098 C 
BRANCH  21  22
ATOM     22  C   UNL     1      34.259 -22.856 -16.694  0.00  0.00    +0.048 C 
BRANCH  22  25
ATOM     23  O   UNL     1      29.358 -22.703 -17.275  0.00  0.00    -0.435 OA
ATOM     24  O   UNL     1      28.973 -24.151 -15.388  0.00  0.00    -0.435 OA
ATOM     25  C   UNL     1      32.847 -23.226 -16.314  0.00  0.00    -0.017 C 
ATOM     26  C   UNL     1      31.791 -22.723 -17.062  0.00  0.00    +0.036 C 
ATOM     27  C   UNL     1      32.638 -24.066 -15.216  0.00  0.00    -0.001 C 
ATOM     28  C   UNL     1      30.517 -23.089 -16.676  0.00  0.00    +0.176 C 
ATOM     29  C   UNL     1      30.297 -23.916 -15.597  0.00  0.00    +0.176 C 
ATOM     30  C   UNL     1      31.338 -24.421 -14.846  0.00  0.00    +0.040 C 
ATOM     31  C   UNL     1      28.384 -23.380 -16.454  0.00  0.00    +0.429 C 
ENDBRANCH  22  25
ENDBRANCH  21  22
ENDBRANCH   2  21
TORSDOF 5
ENDMDL
MODEL 6
REMARK VINA RESULT:     -11.5      4.025      6.600
REMARK  Name = 16040279
REMARK  5 active torsions:
REMARK  status: ('A' for Active; 'I' for Inactive)
REMARK    1  A    between atoms: N_2  and  C_21
REMARK    2  A    between atoms: C_3  and  C_11
REMARK    3  A    between atoms: C_4  and  N_17
REMARK    4  A    between atoms: C_21  and  C_22
REMARK    5  A    between atoms: C_22  and  C_25
REMARK                            x       y       z     vdW  Elec       q    Type
REMARK                         _______ _______ _______ _____ _____    ______ ____
ROOT
ATOM      1  O   UNL     1      32.987 -21.932 -19.603  0.00  0.00    -0.275 OA
ATOM      2  N   UNL     1      35.275 -21.650 -19.338  0.00  0.00    -0.281 N 
ATOM      3  C   UNL     1      35.169 -19.417 -21.143  0.00  0.00    +0.015 C 
ATOM      4  C   UNL     1      36.509 -20.139 -20.918  0.00  0.00    -0.041 C 
ATOM      5  C   UNL     1      36.466 -20.832 -19.558  0.00  0.00    +0.072 C 
ATOM      6  C   UNL     1      34.049 -20.460 -21.133  0.00  0.00    +0.088 C 
ATOM      7  C   UNL     1      34.044 -21.390 -19.934  0.00  0.00    +0.226 C 
ENDROOT
BRANCH   3  11
ATOM      8  F   UNL     1      35.694 -16.629 -21.225  0.00  0.00    -0.204 F 
ATOM      9  F   UNL     1      34.396 -19.051 -25.954  0.00  0.00    -0.202 F 
ATOM     10  F   UNL     1      34.926 -16.370 -25.887  0.00  0.00    -0.202 F 
ATOM     11  C   UNL     1      35.104 -18.594 -22.420  0.00  0.00    +0.006 C 
ATOM     12  C   UNL     1      35.375 -17.229 -22.380  0.00  0.00    +0.138 C 
ATOM     13  C   UNL     1      34.773 -19.212 -23.621  0.00  0.00    +0.030 C 
ATOM     14  C   UNL     1      34.713 -18.460 -24.795  0.00  0.00    +0.167 C 
ATOM     15  C   UNL     1      35.314 -16.476 -23.554  0.00  0.00    +0.061 C 
ATOM     16  C   UNL     1      34.983 -17.093 -24.761  0.00  0.00    +0.170 C 
ENDBRANCH   3  11
BRANCH   4  17
ATOM     17  N   UNL     1      37.643 -19.211 -20.928  0.00  0.00    +0.383 N 
ATOM     18  H   UNL     1      37.373 -18.340 -20.469  0.00  0.00    -0.089 HD
ATOM     19  H   UNL     1      37.916 -19.017 -21.893  0.00  0.00    -0.089 HD
ATOM     20  H   UNL     1      38.429 -19.628 -20.429  0.00  0.00    -0.089 HD
ENDBRANCH   4  17
BRANCH   2  21
ATOM     21  C   UNL     1      35.356 -22.607 -18.242  0.00  0.00    +0.098 C 
BRANCH  21  22
ATOM     22  C   UNL     1      36.423 -22.234 -17.216  0.00  0.00    +0.048 C 
BRANCH  22  25
ATOM     23  O   UNL     1      39.033 -24.759 -13.870  0.00  0.00    -0.435 OA
ATOM     24  O   UNL     1      37.108 -26.013 -13.145  0.00  0.00    -0.435 OA
ATOM     25  C   UNL     1      36.572 -23.260 -16.120  0.00  0.00    -0.017 C 
ATOM     26  C   UNL     1      37.820 -23.464 -15.547  0.00  0.00    +0.036 C 
ATOM     27  C   UNL     1      35.447 -23.981 -15.710  0.00  0.00    -0.001 C 
ATOM     28  C   UNL     1      37.906 -24.414 -14.550  0.00  0.00    +0.176 C 
ATOM     29  C   UNL     1      36.806 -25.131 -14.136  0.00  0.00    +0.176 C 
ATOM     30  C   UNL     1      35.561 -24.937 -14.698  0.00  0.00    +0.040 C 
ATOM     31  C   UNL     1      38.519 -25.772 -12.981  0.00  0.00    +0.429 C 
ENDBRANCH  22  25
ENDBRANCH  21  22
ENDBRANCH   2  21
TORSDOF 5
ENDMDL
MODEL 7
REMARK VINA RESULT:     -11.1      3.322      5.719
REMARK  Name = 16040279
REMARK  5 active torsions:
REMARK  status: ('A' for Active; 'I' for Inactive)
REMARK    1  A    between atoms: N_2  and  C_21
REMARK    2  A    between atoms: C_3  and  C_11
REMARK    3  A    between atoms: C_4  and  N_17
REMARK    4  A    between atoms: C_21  and  C_22
REMARK    5  A    between atoms: C_22  and  C_25
REMARK                            x       y       z     vdW  Elec       q    Type
REMARK                         _______ _______ _______ _____ _____    ______ ____
ROOT
ATOM      1  O   UNL     1      33.039 -21.388 -19.944  0.00  0.00    -0.275 OA
ATOM      2  N   UNL     1      35.360 -21.362 -19.931  0.00  0.00    -0.281 N 
ATOM      3  C   UNL     1      35.300 -18.858 -21.340  0.00  0.00    +0.015 C 
ATOM      4  C   UNL     1      36.570 -19.725 -21.402  0.00  0.00    -0.041 C 
ATOM      5  C   UNL     1      36.601 -20.628 -20.171  0.00  0.00    +0.072 C 
ATOM      6  C   UNL     1      34.080 -19.783 -21.349  0.00  0.00    +0.088 C 
ATOM      7  C   UNL     1      34.107 -20.896 -20.319  0.00  0.00    +0.226 C 
ENDROOT
BRANCH   3  11
ATOM      8  F   UNL     1      35.274 -16.057 -20.879  0.00  0.00    -0.204 F 
ATOM      9  F   UNL     1      34.884 -17.722 -26.074  0.00  0.00    -0.202 F 
ATOM     10  F   UNL     1      34.871 -15.052 -25.485  0.00  0.00    -0.202 F 
ATOM     11  C   UNL     1      35.184 -17.830 -22.455  0.00  0.00    +0.006 C 
ATOM     12  C   UNL     1      35.178 -16.472 -22.150  0.00  0.00    +0.138 C 
ATOM     13  C   UNL     1      35.085 -18.257 -23.776  0.00  0.00    +0.030 C 
ATOM     14  C   UNL     1      34.979 -17.317 -24.802  0.00  0.00    +0.167 C 
ATOM     15  C   UNL     1      35.072 -15.532 -23.175  0.00  0.00    +0.061 C 
ATOM     16  C   UNL     1      34.973 -15.955 -24.501  0.00  0.00    +0.170 C 
ENDBRANCH   3  11
BRANCH   4  17
ATOM     17  N   UNL     1      37.790 -18.914 -21.411  0.00  0.00    +0.383 N 
ATOM     18  H   UNL     1      38.428 -19.252 -20.691  0.00  0.00    -0.089 HD
ATOM     19  H   UNL     1      37.551 -17.939 -21.224  0.00  0.00    -0.089 HD
ATOM     20  H   UNL     1      38.239 -18.985 -22.324  0.00  0.00    -0.089 HD
ENDBRANCH   4  17
BRANCH   2  21
ATOM     21  C   UNL     1      35.456 -22.491 -19.016  0.00  0.00    +0.098 C 
BRANCH  21  22
ATOM     22  C   UNL     1      36.197 -22.140 -17.727  0.00  0.00    +0.048 C 
BRANCH  22  25
ATOM     23  O   UNL     1      32.486 -24.198 -15.203  0.00  0.00    -0.435 OA
ATOM     24  O   UNL     1      33.865 -24.584 -13.265  0.00  0.00    -0.435 OA
ATOM     25  C   UNL     1      35.601 -22.797 -16.507  0.00  0.00    -0.017 C 
ATOM     26  C   UNL     1      34.264 -23.169 -16.524  0.00  0.00    +0.036 C 
ATOM     27  C   UNL     1      36.412 -23.013 -15.390  0.00  0.00    -0.001 C 
ATOM     28  C   UNL     1      33.763 -23.766 -15.384  0.00  0.00    +0.176 C 
ATOM     29  C   UNL     1      34.551 -23.985 -14.277  0.00  0.00    +0.176 C 
ATOM     30  C   UNL     1      35.881 -23.620 -14.248  0.00  0.00    +0.040 C 
ATOM     31  C   UNL     1      32.558 -24.715 -13.859  0.00  0.00    +0.429 C 
ENDBRANCH  22  25
ENDBRANCH  21  22
ENDBRANCH   2  21
TORSDOF 5
ENDMDL
MODEL 8
REMARK VINA RESULT:     -11.1      5.482     11.172
REMARK  Name = 16040279
REMARK  5 active torsions:
REMARK  status: ('A' for Active; 'I' for Inactive)
REMARK    1  A    between atoms: N_2  and  C_21
REMARK    2  A    between atoms: C_3  and  C_11
REMARK    3  A    between atoms: C_4  and  N_17
REMARK    4  A    between atoms: C_21  and  C_22
REMARK    5  A    between atoms: C_22  and  C_25
REMARK                            x       y       z     vdW  Elec       q    Type
REMARK                         _______ _______ _______ _____ _____    ______ ____
ROOT
ATOM      1  O   UNL     1      31.002 -11.530 -21.115  0.00  0.00    -0.275 OA
ATOM      2  N   UNL     1      32.421 -10.353 -22.525  0.00  0.00    -0.281 N 
ATOM      3  C   UNL     1      33.156 -12.828 -23.786  0.00  0.00    +0.015 C 
ATOM      4  C   UNL     1      34.100 -11.617 -23.899  0.00  0.00    -0.041 C 
ATOM      5  C   UNL     1      33.279 -10.343 -23.707  0.00  0.00    +0.072 C 
ATOM      6  C   UNL     1      32.530 -12.825 -22.389  0.00  0.00    +0.088 C 
ATOM      7  C   UNL     1      31.889 -11.515 -21.973  0.00  0.00    +0.226 C 
ENDROOT
BRANCH   3  11
ATOM      8  F   UNL     1      33.020 -14.150 -26.294  0.00  0.00    -0.204 F 
ATOM      9  F   UNL     1      35.833 -16.644 -22.321  0.00  0.00    -0.202 F 
ATOM     10  F   UNL     1      35.620 -17.806 -24.787  0.00  0.00    -0.202 F 
ATOM     11  C   UNL     1      33.819 -14.169 -24.058  0.00  0.00    +0.006 C 
ATOM     12  C   UNL     1      33.708 -14.756 -25.315  0.00  0.00    +0.138 C 
ATOM     13  C   UNL     1      34.534 -14.801 -23.046  0.00  0.00    +0.030 C 
ATOM     14  C   UNL     1      35.144 -16.032 -23.292  0.00  0.00    +0.167 C 
ATOM     15  C   UNL     1      34.317 -15.987 -25.562  0.00  0.00    +0.061 C 
ATOM     16  C   UNL     1      35.035 -16.624 -24.550  0.00  0.00    +0.170 C 
ENDBRANCH   3  11
BRANCH   4  17
ATOM     17  N   UNL     1      34.756 -11.551 -25.207  0.00  0.00    +0.383 N 
ATOM     18  H   UNL     1      34.265 -12.157 -25.865  0.00  0.00    -0.089 HD
ATOM     19  H   UNL     1      35.725 -11.860 -25.117  0.00  0.00    -0.089 HD
ATOM     20  H   UNL     1      34.736 -10.590 -25.550  0.00  0.00    -0.089 HD
ENDBRANCH   4  17
BRANCH   2  21
ATOM     21  C   UNL     1      31.914  -9.055 -22.096  0.00  0.00    +0.098 C 
BRANCH  21  22
ATOM     22  C   UNL     1      33.029  -8.032 -21.884  0.00  0.00    +0.048 C 
BRANCH  22  25
ATOM     23  O   UNL     1      30.767  -3.930 -23.444  0.00  0.00    -0.435 OA
ATOM     24  O   UNL     1      32.428  -3.521 -25.142  0.00  0.00    -0.435 OA
ATOM     25  C   UNL     1      32.898  -6.826 -22.780  0.00  0.00    -0.017 C 
ATOM     26  C   UNL     1      31.819  -5.969 -22.608  0.00  0.00    +0.036 C 
ATOM     27  C   UNL     1      33.868  -6.602 -23.761  0.00  0.00    -0.001 C 
ATOM     28  C   UNL     1      31.742  -4.879 -23.451  0.00  0.00    +0.176 C 
ATOM     29  C   UNL     1      32.691  -4.646 -24.422  0.00  0.00    +0.176 C 
ATOM     30  C   UNL     1      33.767  -5.490 -24.602  0.00  0.00    +0.040 C 
ATOM     31  C   UNL     1      31.208  -3.073 -24.517  0.00  0.00    +0.429 C 
ENDBRANCH  22  25
ENDBRANCH  21  22
ENDBRANCH   2  21
TORSDOF 5
ENDMDL
MODEL 9
REMARK VINA RESULT:     -11.0      4.129      7.038
REMARK  Name = 16040279
REMARK  5 active torsions:
REMARK  status: ('A' for Active; 'I' for Inactive)
REMARK    1  A    between atoms: N_2  and  C_21
REMARK    2  A    between atoms: C_3  and  C_11
REMARK    3  A    between atoms: C_4  and  N_17
REMARK    4  A    between atoms: C_21  and  C_22
REMARK    5  A    between atoms: C_22  and  C_25
REMARK                            x       y       z     vdW  Elec       q    Type
REMARK                         _______ _______ _______ _____ _____    ______ ____
ROOT
ATOM      1  O   UNL     1      37.235 -22.012 -18.620  0.00  0.00    -0.275 OA
ATOM      2  N   UNL     1      34.929 -22.147 -18.839  0.00  0.00    -0.281 N 
ATOM      3  C   UNL     1      35.085 -20.415 -21.128  0.00  0.00    +0.015 C 
ATOM      4  C   UNL     1      33.753 -20.538 -20.367  0.00  0.00    -0.041 C 
ATOM      5  C   UNL     1      33.733 -21.878 -19.636  0.00  0.00    +0.072 C 
ATOM      6  C   UNL     1      36.229 -20.463 -20.111  0.00  0.00    +0.088 C 
ATOM      7  C   UNL     1      36.186 -21.633 -19.147  0.00  0.00    +0.226 C 
ENDROOT
BRANCH   3  11
ATOM      8  F   UNL     1      35.216 -20.490 -23.962  0.00  0.00    -0.204 F 
ATOM      9  F   UNL     1      35.413 -15.562 -21.597  0.00  0.00    -0.202 F 
ATOM     10  F   UNL     1      35.529 -15.782 -24.319  0.00  0.00    -0.202 F 
ATOM     11  C   UNL     1      35.205 -19.169 -21.990  0.00  0.00    +0.006 C 
ATOM     12  C   UNL     1      35.264 -19.286 -23.375  0.00  0.00    +0.138 C 
ATOM     13  C   UNL     1      35.255 -17.916 -21.385  0.00  0.00    +0.030 C 
ATOM     14  C   UNL     1      35.365 -16.770 -22.173  0.00  0.00    +0.167 C 
ATOM     15  C   UNL     1      35.374 -18.140 -24.164  0.00  0.00    +0.061 C 
ATOM     16  C   UNL     1      35.424 -16.882 -23.562  0.00  0.00    +0.170 C 
ENDBRANCH   3  11
BRANCH   4  17
ATOM     17  N   UNL     1      32.599 -20.486 -21.268  0.00  0.00    +0.383 N 
ATOM     18  H   UNL     1      32.075 -21.359 -21.200  0.00  0.00    -0.089 HD
ATOM     19  H   UNL     1      32.922 -20.357 -22.228  0.00  0.00    -0.089 HD
ATOM     20  H   UNL     1      31.995 -19.707 -21.005  0.00  0.00    -0.089 HD
ENDBRANCH   4  17
BRANCH   2  21
ATOM     21  C   UNL     1      34.808 -23.208 -17.849  0.00  0.00    +0.098 C 
BRANCH  21  22
ATOM     22  C   UNL     1      35.331 -22.790 -16.476  0.00  0.00    +0.048 C 
BRANCH  22  25
ATOM     23  O   UNL     1      39.654 -24.486 -14.798  0.00  0.00    -0.435 OA
ATOM     24  O   UNL     1      38.696 -26.590 -14.119  0.00  0.00    -0.435 OA
ATOM     25  C   UNL     1      36.209 -23.837 -15.837  0.00  0.00    -0.017 C 
ATOM     26  C   UNL     1      37.558 -23.567 -15.651  0.00  0.00    +0.036 C 
ATOM     27  C   UNL     1      35.641 -25.054 -15.449  0.00  0.00    -0.001 C 
ATOM     28  C   UNL     1      38.321 -24.556 -15.063  0.00  0.00    +0.176 C 
ATOM     29  C   UNL     1      37.774 -25.759 -14.675  0.00  0.00    +0.176 C 
ATOM     30  C   UNL     1      36.435 -26.038 -14.855  0.00  0.00    +0.040 C 
ATOM     31  C   UNL     1      39.884 -25.777 -14.199  0.00  0.00    +0.429 C 
ENDBRANCH  22  25
ENDBRANCH  21  22
ENDBRANCH   2  21
TORSDOF 5
ENDMDL
