MODEL 1
REMARK VINA RESULT:     -12.0      0.000      0.000
REMARK  Name = 24812719
REMARK  3 active torsions:
REMARK  status: ('A' for Active; 'I' for Inactive)
REMARK    1  A    between atoms: N_2  and  C_22
REMARK    2  A    between atoms: C_3  and  C_12
REMARK    3  A    between atoms: C_25  and  C_31
REMARK                            x       y       z     vdW  Elec       q    Type
REMARK                         _______ _______ _______ _____ _____    ______ ____
ROOT
ATOM      1  O   UNL     1      35.077 -15.482 -22.174  0.00  0.00    -0.269 OA
ATOM      2  N   UNL     1      35.082 -17.349 -23.609  0.00  0.00    -0.233 N 
ATOM      3  C   UNL     1      34.250 -15.112 -24.348  0.00  0.00    +0.046 C 
ATOM      4  C   UNL     1      34.066 -15.599 -25.592  0.00  0.00    -0.016 C 
ATOM      5  C   UNL     1      34.828 -16.000 -23.264  0.00  0.00    +0.256 C 
ATOM      6  C   UNL     1      34.879 -17.776 -24.917  0.00  0.00    +0.072 C 
ATOM      7  C   UNL     1      34.408 -16.974 -25.874  0.00  0.00    +0.012 C 
ATOM      8  C   UNL     1      33.511 -14.842 -26.769  0.00  0.00    +0.031 C 
ENDROOT
BRANCH   3  12
ATOM      9  N   UNL     1      33.000  -9.763 -23.058  0.00  0.00    -0.342 NA
ATOM     10  N   UNL     1      31.513 -10.497 -21.310  0.00  0.00    -0.170 NA
ATOM     11  N   UNL     1      31.826  -8.216 -21.740  0.00  0.00    -0.293 N 
ATOM     12  C   UNL     1      33.918 -13.716 -24.006  0.00  0.00    -0.017 C 
ATOM     13  C   UNL     1      33.024 -13.441 -22.976  0.00  0.00    +0.056 C 
ATOM     14  C   UNL     1      34.498 -12.667 -24.711  0.00  0.00    -0.022 C 
ATOM     15  C   UNL     1      32.713 -12.109 -22.654  0.00  0.00    +0.029 C 
ATOM     16  C   UNL     1      33.291 -11.040 -23.358  0.00  0.00    +0.124 C 
ATOM     17  C   UNL     1      34.183 -11.345 -24.384  0.00  0.00    +0.085 C 
ATOM     18  C   UNL     1      31.827 -11.765 -21.636  0.00  0.00    +0.110 C 
ATOM     19  C   UNL     1      32.127  -9.561 -22.051  0.00  0.00    +0.141 C 
ATOM     20  H   UNL     1      32.248  -7.488 -22.251  0.00  0.00    +0.155 HD
ATOM     21  H   UNL     1      31.196  -8.008 -21.013  0.00  0.00    +0.155 HD
ENDBRANCH   3  12
BRANCH   2  22
ATOM     22  C   UNL     1      35.579 -18.272 -22.605  0.00  0.00    +0.058 C 
ATOM     23  C   UNL     1      34.695 -19.118 -21.938  0.00  0.00    +0.019 C 
ATOM     24  C   UNL     1      36.941 -18.310 -22.307  0.00  0.00    +0.015 C 
ATOM     25  C   UNL     1      35.172 -20.004 -20.972  0.00  0.00    +0.073 C 
ATOM     26  C   UNL     1      37.419 -19.196 -21.342  0.00  0.00    +0.001 C 
ATOM     27  C   UNL     1      36.534 -20.043 -20.674  0.00  0.00    +0.004 C 
BRANCH  25  31
ATOM     28  F   UNL     1      33.014 -20.338 -19.996  0.00  0.00    -0.166 F 
ATOM     29  F   UNL     1      33.941 -22.055 -20.943  0.00  0.00    -0.166 F 
ATOM     30  F   UNL     1      34.707 -21.318 -19.046  0.00  0.00    -0.166 F 
ATOM     31  C   UNL     1      34.227 -20.909 -20.256  0.00  0.00    +0.419 C 
ENDBRANCH  25  31
ENDBRANCH   2  22
TORSDOF 3
ENDMDL
MODEL 2
REMARK VINA RESULT:     -11.3      3.711      8.248
REMARK  Name = 24812719
REMARK  3 active torsions:
REMARK  status: ('A' for Active; 'I' for Inactive)
REMARK    1  A    between atoms: N_2  and  C_22
REMARK    2  A    between atoms: C_3  and  C_12
REMARK    3  A    between atoms: C_25  and  C_31
REMARK                            x       y       z     vdW  Elec       q    Type
REMARK                         _______ _______ _______ _____ _____    ______ ____
ROOT
ATOM      1  O   UNL     1      34.849 -15.590 -22.124  0.00  0.00    -0.269 OA
ATOM      2  N   UNL     1      34.194 -15.128 -24.339  0.00  0.00    -0.233 N 
ATOM      3  C   UNL     1      35.009 -17.385 -23.642  0.00  0.00    +0.046 C 
ATOM      4  C   UNL     1      34.748 -17.854 -24.879  0.00  0.00    -0.016 C 
ATOM      5  C   UNL     1      34.693 -15.944 -23.294  0.00  0.00    +0.256 C 
ATOM      6  C   UNL     1      33.939 -15.686 -25.586  0.00  0.00    +0.072 C 
ATOM      7  C   UNL     1      34.183 -16.968 -25.869  0.00  0.00    +0.012 C 
ATOM      8  C   UNL     1      34.999 -19.255 -25.369  0.00  0.00    +0.031 C 
ENDROOT
BRANCH   3  12
ATOM      9  N   UNL     1      37.239 -20.671 -19.633  0.00  0.00    -0.342 NA
ATOM     10  N   UNL     1      35.123 -21.780 -19.319  0.00  0.00    -0.170 NA
ATOM     11  N   UNL     1      36.997 -22.388 -18.051  0.00  0.00    -0.293 N 
ATOM     12  C   UNL     1      35.585 -18.247 -22.592  0.00  0.00    -0.017 C 
ATOM     13  C   UNL     1      34.795 -19.197 -21.953  0.00  0.00    +0.056 C 
ATOM     14  C   UNL     1      36.923 -18.115 -22.236  0.00  0.00    -0.022 C 
ATOM     15  C   UNL     1      35.350 -20.016 -20.956  0.00  0.00    +0.029 C 
ATOM     16  C   UNL     1      36.699 -19.893 -20.586  0.00  0.00    +0.124 C 
ATOM     17  C   UNL     1      37.467 -18.934 -21.242  0.00  0.00    +0.085 C 
ATOM     18  C   UNL     1      34.614 -20.985 -20.278  0.00  0.00    +0.110 C 
ATOM     19  C   UNL     1      36.422 -21.572 -19.051  0.00  0.00    +0.141 C 
ATOM     20  H   UNL     1      37.946 -22.279 -17.814  0.00  0.00    +0.155 HD
ATOM     21  H   UNL     1      36.449 -23.064 -17.592  0.00  0.00    +0.155 HD
ENDBRANCH   3  12
BRANCH   2  22
ATOM     22  C   UNL     1      33.927 -13.723 -24.095  0.00  0.00    +0.058 C 
ATOM     23  C   UNL     1      33.068 -13.345 -23.065  0.00  0.00    +0.019 C 
ATOM     24  C   UNL     1      34.527 -12.751 -24.895  0.00  0.00    +0.015 C 
ATOM     25  C   UNL     1      32.810 -11.995 -22.831  0.00  0.00    +0.073 C 
ATOM     26  C   UNL     1      34.269 -11.400 -24.662  0.00  0.00    +0.001 C 
ATOM     27  C   UNL     1      33.409 -11.022 -23.630  0.00  0.00    +0.004 C 
BRANCH  25  31
ATOM     28  F   UNL     1      32.362 -10.555 -20.974  0.00  0.00    -0.166 F 
ATOM     29  F   UNL     1      30.661 -11.180 -22.165  0.00  0.00    -0.166 F 
ATOM     30  F   UNL     1      31.645 -12.605 -20.850  0.00  0.00    -0.166 F 
ATOM     31  C   UNL     1      31.889 -11.590 -21.729  0.00  0.00    +0.419 C 
ENDBRANCH  25  31
ENDBRANCH   2  22
TORSDOF 3
ENDMDL
MODEL 3
REMARK VINA RESULT:     -10.6      2.910      5.135
REMARK  Name = 24812719
REMARK  3 active torsions:
REMARK  status: ('A' for Active; 'I' for Inactive)
REMARK    1  A    between atoms: N_2  and  C_22
REMARK    2  A    between atoms: C_3  and  C_12
REMARK    3  A    between atoms: C_25  and  C_31
REMARK                            x       y       z     vdW  Elec       q    Type
REMARK                         _______ _______ _______ _____ _____    ______ ____
ROOT
ATOM      1  O   UNL     1      33.513 -12.023 -24.278  0.00  0.00    -0.269 OA
ATOM      2  N   UNL     1      33.359 -13.599 -22.534  0.00  0.00    -0.233 N 
ATOM      3  C   UNL     1      32.584 -11.239 -22.261  0.00  0.00    +0.046 C 
ATOM      4  C   UNL     1      32.132 -11.538 -21.025  0.00  0.00    -0.016 C 
ATOM      5  C   UNL     1      33.212 -12.318 -23.120  0.00  0.00    +0.256 C 
ATOM      6  C   UNL     1      32.857 -13.834 -21.259  0.00  0.00    +0.072 C 
ATOM      7  C   UNL     1      32.269 -12.886 -20.527  0.00  0.00    +0.012 C 
ATOM      8  C   UNL     1      31.483 -10.581 -20.062  0.00  0.00    +0.031 C 
ENDROOT
BRANCH   3  12
ATOM      9  N   UNL     1      32.119  -6.037 -24.399  0.00  0.00    -0.342 NA
ATOM     10  N   UNL     1      34.517  -5.829 -24.500  0.00  0.00    -0.170 NA
ATOM     11  N   UNL     1      33.129  -4.081 -25.212  0.00  0.00    -0.293 N 
ATOM     12  C   UNL     1      32.470  -9.879 -22.819  0.00  0.00    -0.017 C 
ATOM     13  C   UNL     1      33.614  -9.149 -23.127  0.00  0.00    +0.056 C 
ATOM     14  C   UNL     1      31.217  -9.317 -23.042  0.00  0.00    -0.022 C 
ATOM     15  C   UNL     1      33.499  -7.854 -23.660  0.00  0.00    +0.029 C 
ATOM     16  C   UNL     1      32.240  -7.276 -23.890  0.00  0.00    +0.124 C 
ATOM     17  C   UNL     1      31.112  -8.028 -23.572  0.00  0.00    +0.085 C 
ATOM     18  C   UNL     1      34.603  -7.072 -23.989  0.00  0.00    +0.110 C 
ATOM     19  C   UNL     1      33.264  -5.382 -24.676  0.00  0.00    +0.141 C 
ATOM     20  H   UNL     1      32.233  -3.703 -25.362  0.00  0.00    +0.155 HD
ATOM     21  H   UNL     1      33.930  -3.555 -25.435  0.00  0.00    +0.155 HD
ENDBRANCH   3  12
BRANCH   2  22
ATOM     22  C   UNL     1      34.006 -14.664 -23.276  0.00  0.00    +0.058 C 
ATOM     23  C   UNL     1      34.646 -15.699 -22.596  0.00  0.00    +0.019 C 
ATOM     24  C   UNL     1      33.991 -14.651 -24.671  0.00  0.00    +0.015 C 
ATOM     25  C   UNL     1      35.269 -16.722 -23.309  0.00  0.00    +0.073 C 
ATOM     26  C   UNL     1      34.613 -15.675 -25.384  0.00  0.00    +0.001 C 
ATOM     27  C   UNL     1      35.254 -16.711 -24.703  0.00  0.00    +0.004 C 
BRANCH  25  31
ATOM     28  F   UNL     1      37.149 -18.193 -23.136  0.00  0.00    -0.166 F 
ATOM     29  F   UNL     1      36.243 -17.532 -21.279  0.00  0.00    -0.166 F 
ATOM     30  F   UNL     1      35.208 -18.971 -22.538  0.00  0.00    -0.166 F 
ATOM     31  C   UNL     1      35.955 -17.830 -22.581  0.00  0.00    +0.419 C 
ENDBRANCH  25  31
ENDBRANCH   2  22
TORSDOF 3
ENDMDL
MODEL 4
REMARK VINA RESULT:     -10.5      2.833      5.495
REMARK  Name = 24812719
REMARK  3 active torsions:
REMARK  status: ('A' for Active; 'I' for Inactive)
REMARK    1  A    between atoms: N_2  and  C_22
REMARK    2  A    between atoms: C_3  and  C_12
REMARK    3  A    between atoms: C_25  and  C_31
REMARK                            x       y       z     vdW  Elec       q    Type
REMARK                         _______ _______ _______ _____ _____    ______ ____
ROOT
ATOM      1  O   UNL     1      33.441 -11.332 -23.349  0.00  0.00    -0.269 OA
ATOM      2  N   UNL     1      32.999 -13.256 -22.065  0.00  0.00    -0.233 N 
ATOM      3  C   UNL     1      32.320 -10.973 -21.308  0.00  0.00    +0.046 C 
ATOM      4  C   UNL     1      31.710 -11.517 -20.236  0.00  0.00    -0.016 C 
ATOM      5  C   UNL     1      32.990 -11.866 -22.334  0.00  0.00    +0.256 C 
ATOM      6  C   UNL     1      32.337 -13.745 -20.944  0.00  0.00    +0.072 C 
ATOM      7  C   UNL     1      31.715 -12.952 -20.068  0.00  0.00    +0.012 C 
ATOM      8  C   UNL     1      31.000 -10.766 -19.141  0.00  0.00    +0.031 C 
ENDROOT
BRANCH   3  12
ATOM      9  N   UNL     1      32.422  -5.390 -22.125  0.00  0.00    -0.342 NA
ATOM     10  N   UNL     1      31.245  -5.642 -24.212  0.00  0.00    -0.170 NA
ATOM     11  N   UNL     1      31.879  -3.523 -23.439  0.00  0.00    -0.293 N 
ATOM     12  C   UNL     1      32.344  -9.515 -21.528  0.00  0.00    -0.017 C 
ATOM     13  C   UNL     1      31.767  -8.969 -22.671  0.00  0.00    +0.056 C 
ATOM     14  C   UNL     1      32.942  -8.676 -20.594  0.00  0.00    -0.022 C 
ATOM     15  C   UNL     1      31.791  -7.579 -22.875  0.00  0.00    +0.029 C 
ATOM     16  C   UNL     1      32.393  -6.722 -21.939  0.00  0.00    +0.124 C 
ATOM     17  C   UNL     1      32.962  -7.295 -20.805  0.00  0.00    +0.085 C 
ATOM     18  C   UNL     1      31.233  -6.970 -23.996  0.00  0.00    +0.110 C 
ATOM     19  C   UNL     1      31.846  -4.923 -23.251  0.00  0.00    +0.141 C 
ATOM     20  H   UNL     1      32.308  -2.947 -22.766  0.00  0.00    +0.155 HD
ATOM     21  H   UNL     1      31.474  -3.125 -24.243  0.00  0.00    +0.155 HD
ENDBRANCH   3  12
BRANCH   2  22
ATOM     22  C   UNL     1      33.674 -14.165 -22.972  0.00  0.00    +0.058 C 
ATOM     23  C   UNL     1      34.325 -15.292 -22.474  0.00  0.00    +0.019 C 
ATOM     24  C   UNL     1      33.673 -13.908 -24.343  0.00  0.00    +0.015 C 
ATOM     25  C   UNL     1      34.974 -16.165 -23.346  0.00  0.00    +0.073 C 
ATOM     26  C   UNL     1      34.323 -14.781 -25.216  0.00  0.00    +0.001 C 
ATOM     27  C   UNL     1      34.974 -15.909 -24.717  0.00  0.00    +0.004 C 
BRANCH  25  31
ATOM     28  F   UNL     1      34.989 -18.535 -23.021  0.00  0.00    -0.166 F 
ATOM     29  F   UNL     1      36.904 -17.578 -23.365  0.00  0.00    -0.166 F 
ATOM     30  F   UNL     1      35.882 -17.304 -21.466  0.00  0.00    -0.166 F 
ATOM     31  C   UNL     1      35.672 -17.371 -22.813  0.00  0.00    +0.419 C 
ENDBRANCH  25  31
ENDBRANCH   2  22
TORSDOF 3
ENDMDL
MODEL 5
REMARK VINA RESULT:     -10.5      4.376      6.676
REMARK  Name = 24812719
REMARK  3 active torsions:
REMARK  status: ('A' for Active; 'I' for Inactive)
REMARK    1  A    between atoms: N_2  and  C_22
REMARK    2  A    between atoms: C_3  and  C_12
REMARK    3  A    between atoms: C_25  and  C_31
REMARK                            x       y       z     vdW  Elec       q    Type
REMARK                         _______ _______ _______ _____ _____    ______ ____
ROOT
ATOM      1  O   UNL     1      33.255 -10.931 -23.491  0.00  0.00    -0.269 OA
ATOM      2  N   UNL     1      32.913 -12.906 -22.255  0.00  0.00    -0.233 N 
ATOM      3  C   UNL     1      32.282 -10.658 -21.364  0.00  0.00    +0.046 C 
ATOM      4  C   UNL     1      31.751 -11.248 -20.273  0.00  0.00    -0.016 C 
ATOM      5  C   UNL     1      32.880 -11.506 -22.469  0.00  0.00    +0.256 C 
ATOM      6  C   UNL     1      32.335 -13.442 -21.110  0.00  0.00    +0.072 C 
ATOM      7  C   UNL     1      31.774 -12.687 -20.162  0.00  0.00    +0.012 C 
ATOM      8  C   UNL     1      31.119 -10.544 -19.102  0.00  0.00    +0.031 C 
ENDROOT
BRANCH   3  12
ATOM      9  N   UNL     1      32.303  -5.047 -21.966  0.00  0.00    -0.342 NA
ATOM     10  N   UNL     1      31.138  -5.236 -24.067  0.00  0.00    -0.170 NA
ATOM     11  N   UNL     1      31.738  -3.140 -23.210  0.00  0.00    -0.293 N 
ATOM     12  C   UNL     1      32.285  -9.193 -21.528  0.00  0.00    -0.017 C 
ATOM     13  C   UNL     1      31.704  -8.612 -22.651  0.00  0.00    +0.056 C 
ATOM     14  C   UNL     1      32.867  -8.382 -20.560  0.00  0.00    -0.022 C 
ATOM     15  C   UNL     1      31.709  -7.215 -22.802  0.00  0.00    +0.029 C 
ATOM     16  C   UNL     1      32.293  -6.385 -21.831  0.00  0.00    +0.124 C 
ATOM     17  C   UNL     1      32.867  -6.993 -20.717  0.00  0.00    +0.085 C 
ATOM     18  C   UNL     1      31.146  -6.572 -23.901  0.00  0.00    +0.110 C 
ATOM     19  C   UNL     1      31.725  -4.546 -23.076  0.00  0.00    +0.141 C 
ATOM     20  H   UNL     1      32.155  -2.584 -22.514  0.00  0.00    +0.155 HD
ATOM     21  H   UNL     1      31.330  -2.717 -24.000  0.00  0.00    +0.155 HD
ENDBRANCH   3  12
BRANCH   2  22
ATOM     22  C   UNL     1      33.525 -13.774 -23.243  0.00  0.00    +0.058 C 
ATOM     23  C   UNL     1      33.262 -13.583 -24.599  0.00  0.00    +0.019 C 
ATOM     24  C   UNL     1      34.374 -14.803 -22.836  0.00  0.00    +0.015 C 
ATOM     25  C   UNL     1      33.849 -14.418 -25.548  0.00  0.00    +0.073 C 
ATOM     26  C   UNL     1      34.961 -15.639 -23.785  0.00  0.00    +0.001 C 
ATOM     27  C   UNL     1      34.698 -15.447 -25.142  0.00  0.00    +0.004 C 
BRANCH  25  31
ATOM     28  F   UNL     1      32.278 -13.849 -27.260  0.00  0.00    -0.166 F 
ATOM     29  F   UNL     1      34.337 -13.242 -27.573  0.00  0.00    -0.166 F 
ATOM     30  F   UNL     1      33.788 -15.339 -27.739  0.00  0.00    -0.166 F 
ATOM     31  C   UNL     1      33.568 -14.214 -26.999  0.00  0.00    +0.419 C 
ENDBRANCH  25  31
ENDBRANCH   2  22
TORSDOF 3
ENDMDL
MODEL 6
REMARK VINA RESULT:     -10.4      3.626      5.895
REMARK  Name = 24812719
REMARK  3 active torsions:
REMARK  status: ('A' for Active; 'I' for Inactive)
REMARK    1  A    between atoms: N_2  and  C_22
REMARK    2  A    between atoms: C_3  and  C_12
REMARK    3  A    between atoms: C_25  and  C_31
REMARK                            x       y       z     vdW  Elec       q    Type
REMARK                         _______ _______ _______ _____ _____    ______ ____
ROOT
ATOM      1  O   UNL     1      33.492 -11.815 -23.686  0.00  0.00    -0.269 OA
ATOM      2  N   UNL     1      33.241 -13.152 -21.763  0.00  0.00    -0.233 N 
ATOM      3  C   UNL     1      32.446 -10.784 -21.844  0.00  0.00    +0.046 C 
ATOM      4  C   UNL     1      31.923 -10.925 -20.609  0.00  0.00    -0.016 C 
ATOM      5  C   UNL     1      33.126 -11.959 -22.518  0.00  0.00    +0.256 C 
ATOM      6  C   UNL     1      32.666 -13.225 -20.499  0.00  0.00    +0.072 C 
ATOM      7  C   UNL     1      32.034 -12.195 -19.932  0.00  0.00    +0.012 C 
ATOM      8  C   UNL     1      31.216  -9.857 -19.817  0.00  0.00    +0.031 C 
ENDROOT
BRANCH   3  12
ATOM      9  N   UNL     1      32.092  -5.910 -24.666  0.00  0.00    -0.342 NA
ATOM     10  N   UNL     1      34.485  -5.644 -24.571  0.00  0.00    -0.170 NA
ATOM     11  N   UNL     1      33.139  -4.043 -25.627  0.00  0.00    -0.293 N 
ATOM     12  C   UNL     1      32.360  -9.509 -22.581  0.00  0.00    -0.017 C 
ATOM     13  C   UNL     1      33.515  -8.790 -22.873  0.00  0.00    +0.056 C 
ATOM     14  C   UNL     1      31.125  -9.019 -22.989  0.00  0.00    -0.022 C 
ATOM     15  C   UNL     1      33.428  -7.577 -23.576  0.00  0.00    +0.029 C 
ATOM     16  C   UNL     1      32.186  -7.070 -23.993  0.00  0.00    +0.124 C 
ATOM     17  C   UNL     1      31.047  -7.811 -23.688  0.00  0.00    +0.085 C 
ATOM     18  C   UNL     1      34.544  -6.809 -23.899  0.00  0.00    +0.110 C 
ATOM     19  C   UNL     1      33.246  -5.261 -24.918  0.00  0.00    +0.141 C 
ATOM     20  H   UNL     1      32.256  -3.713 -25.907  0.00  0.00    +0.155 HD
ATOM     21  H   UNL     1      33.949  -3.525 -25.840  0.00  0.00    +0.155 HD
ENDBRANCH   3  12
BRANCH   2  22
ATOM     22  C   UNL     1      33.933 -14.298 -22.321  0.00  0.00    +0.058 C 
ATOM     23  C   UNL     1      33.853 -14.564 -23.687  0.00  0.00    +0.019 C 
ATOM     24  C   UNL     1      34.677 -15.135 -21.490  0.00  0.00    +0.015 C 
ATOM     25  C   UNL     1      34.517 -15.666 -24.224  0.00  0.00    +0.073 C 
ATOM     26  C   UNL     1      35.342 -16.238 -22.026  0.00  0.00    +0.001 C 
ATOM     27  C   UNL     1      35.261 -16.504 -23.393  0.00  0.00    +0.004 C 
BRANCH  25  31
ATOM     28  F   UNL     1      33.490 -16.889 -26.005  0.00  0.00    -0.166 F 
ATOM     29  F   UNL     1      34.114 -14.858 -26.438  0.00  0.00    -0.166 F 
ATOM     30  F   UNL     1      35.605 -16.421 -26.199  0.00  0.00    -0.166 F 
ATOM     31  C   UNL     1      34.431 -15.952 -25.685  0.00  0.00    +0.419 C 
ENDBRANCH  25  31
ENDBRANCH   2  22
TORSDOF 3
ENDMDL
MODEL 7
REMARK VINA RESULT:     -10.2      6.259     10.964
REMARK  Name = 24812719
REMARK  3 active torsions:
REMARK  status: ('A' for Active; 'I' for Inactive)
REMARK    1  A    between atoms: N_2  and  C_22
REMARK    2  A    between atoms: C_3  and  C_12
REMARK    3  A    between atoms: C_25  and  C_31
REMARK                            x       y       z     vdW  Elec       q    Type
REMARK                         _______ _______ _______ _____ _____    ______ ____
ROOT
ATOM      1  O   UNL     1      36.941 -20.908 -18.752  0.00  0.00    -0.269 OA
ATOM      2  N   UNL     1      35.040 -20.999 -20.139  0.00  0.00    -0.233 N 
ATOM      3  C   UNL     1      35.175 -22.270 -17.993  0.00  0.00    +0.046 C 
ATOM      4  C   UNL     1      33.902 -22.679 -18.163  0.00  0.00    -0.016 C 
ATOM      5  C   UNL     1      35.814 -21.339 -19.003  0.00  0.00    +0.256 C 
ATOM      6  C   UNL     1      33.729 -21.449 -20.239  0.00  0.00    +0.072 C 
ATOM      7  C   UNL     1      33.162 -22.237 -19.322  0.00  0.00    +0.012 C 
ATOM      8  C   UNL     1      33.132 -23.593 -17.246  0.00  0.00    +0.031 C 
ENDROOT
BRANCH   3  12
ATOM      9  N   UNL     1      38.258 -23.882 -13.549  0.00  0.00    -0.342 NA
ATOM     10  N   UNL     1      36.261 -24.222 -12.246  0.00  0.00    -0.170 NA
ATOM     11  N   UNL     1      38.378 -24.625 -11.326  0.00  0.00    -0.293 N 
ATOM     12  C   UNL     1      35.975 -22.692 -16.827  0.00  0.00    -0.017 C 
ATOM     13  C   UNL     1      35.346 -23.056 -15.641  0.00  0.00    +0.056 C 
ATOM     14  C   UNL     1      37.363 -22.729 -16.908  0.00  0.00    -0.022 C 
ATOM     15  C   UNL     1      36.113 -23.458 -14.534  0.00  0.00    +0.029 C 
ATOM     16  C   UNL     1      37.515 -23.499 -14.603  0.00  0.00    +0.124 C 
ATOM     17  C   UNL     1      38.118 -23.130 -15.802  0.00  0.00    +0.085 C 
ATOM     18  C   UNL     1      35.546 -23.834 -13.319  0.00  0.00    +0.110 C 
ATOM     19  C   UNL     1      37.590 -24.222 -12.429  0.00  0.00    +0.141 C 
ATOM     20  H   UNL     1      39.358 -24.644 -11.404  0.00  0.00    +0.155 HD
ATOM     21  H   UNL     1      37.945 -24.885 -10.482  0.00  0.00    +0.155 HD
ENDBRANCH   3  12
BRANCH   2  22
ATOM     22  C   UNL     1      35.609 -20.160 -21.178  0.00  0.00    +0.058 C 
ATOM     23  C   UNL     1      34.951 -20.020 -22.399  0.00  0.00    +0.019 C 
ATOM     24  C   UNL     1      36.815 -19.497 -20.956  0.00  0.00    +0.015 C 
ATOM     25  C   UNL     1      35.497 -19.215 -23.397  0.00  0.00    +0.073 C 
ATOM     26  C   UNL     1      37.363 -18.692 -21.954  0.00  0.00    +0.001 C 
ATOM     27  C   UNL     1      36.704 -18.551 -23.176  0.00  0.00    +0.004 C 
BRANCH  25  31
ATOM     28  F   UNL     1      33.433 -19.063 -24.597  0.00  0.00    -0.166 F 
ATOM     29  F   UNL     1      35.101 -17.907 -25.360  0.00  0.00    -0.166 F 
ATOM     30  F   UNL     1      35.092 -20.070 -25.579  0.00  0.00    -0.166 F 
ATOM     31  C   UNL     1      34.794 -19.065 -24.704  0.00  0.00    +0.419 C 
ENDBRANCH  25  31
ENDBRANCH   2  22
TORSDOF 3
ENDMDL
MODEL 8
REMARK VINA RESULT:     -10.0      5.858      9.541
REMARK  Name = 24812719
REMARK  3 active torsions:
REMARK  status: ('A' for Active; 'I' for Inactive)
REMARK    1  A    between atoms: N_2  and  C_22
REMARK    2  A    between atoms: C_3  and  C_12
REMARK    3  A    between atoms: C_25  and  C_31
REMARK                            x       y       z     vdW  Elec       q    Type
REMARK                         _______ _______ _______ _____ _____    ______ ____
ROOT
ATOM      1  O   UNL     1      32.458 -22.277 -18.126  0.00  0.00    -0.269 OA
ATOM      2  N   UNL     1      33.495 -23.509 -16.407  0.00  0.00    -0.233 N 
ATOM      3  C   UNL     1      34.813 -22.223 -18.096  0.00  0.00    +0.046 C 
ATOM      4  C   UNL     1      35.949 -22.544 -17.444  0.00  0.00    -0.016 C 
ATOM      5  C   UNL     1      33.473 -22.683 -17.558  0.00  0.00    +0.256 C 
ATOM      6  C   UNL     1      34.706 -23.788 -15.783  0.00  0.00    +0.072 C 
ATOM      7  C   UNL     1      35.877 -23.343 -16.243  0.00  0.00    +0.012 C 
ATOM      8  C   UNL     1      37.346 -22.156 -17.850  0.00  0.00    +0.031 C 
ENDROOT
BRANCH   3  12
ATOM      9  N   UNL     1      34.850 -19.119 -22.809  0.00  0.00    -0.342 NA
ATOM     10  N   UNL     1      37.193 -18.643 -22.516  0.00  0.00    -0.170 NA
ATOM     11  N   UNL     1      36.012 -17.781 -24.346  0.00  0.00    -0.293 N 
ATOM     12  C   UNL     1      34.829 -21.410 -19.327  0.00  0.00    -0.017 C 
ATOM     13  C   UNL     1      36.007 -20.798 -19.746  0.00  0.00    +0.056 C 
ATOM     14  C   UNL     1      33.668 -21.250 -20.075  0.00  0.00    -0.022 C 
ATOM     15  C   UNL     1      36.017 -20.026 -20.920  0.00  0.00    +0.029 C 
ATOM     16  C   UNL     1      34.851 -19.857 -21.685  0.00  0.00    +0.124 C 
ATOM     17  C   UNL     1      33.687 -20.480 -21.241  0.00  0.00    +0.085 C 
ATOM     18  C   UNL     1      37.160 -19.388 -21.395  0.00  0.00    +0.110 C 
ATOM     19  C   UNL     1      36.021 -18.553 -23.163  0.00  0.00    +0.141 C 
ATOM     20  H   UNL     1      35.180 -17.681 -24.862  0.00  0.00    +0.155 HD
ATOM     21  H   UNL     1      36.839 -17.344 -24.654  0.00  0.00    +0.155 HD
ENDBRANCH   3  12
BRANCH   2  22
ATOM     22  C   UNL     1      32.255 -24.037 -15.871  0.00  0.00    +0.058 C 
ATOM     23  C   UNL     1      31.040 -23.712 -16.473  0.00  0.00    +0.019 C 
ATOM     24  C   UNL     1      32.278 -24.868 -14.752  0.00  0.00    +0.015 C 
ATOM     25  C   UNL     1      29.848 -24.218 -15.958  0.00  0.00    +0.073 C 
ATOM     26  C   UNL     1      31.085 -25.375 -14.235  0.00  0.00    +0.001 C 
ATOM     27  C   UNL     1      29.870 -25.050 -14.838  0.00  0.00    +0.004 C 
BRANCH  25  31
ATOM     28  F   UNL     1      27.592 -23.460 -15.716  0.00  0.00    -0.166 F 
ATOM     29  F   UNL     1      28.644 -22.859 -17.515  0.00  0.00    -0.166 F 
ATOM     30  F   UNL     1      27.998 -24.921 -17.275  0.00  0.00    -0.166 F 
ATOM     31  C   UNL     1      28.548 -23.870 -16.601  0.00  0.00    +0.419 C 
ENDBRANCH  25  31
ENDBRANCH   2  22
TORSDOF 3
ENDMDL
MODEL 9
REMARK VINA RESULT:     -10.0      6.026     10.328
REMARK  Name = 24812719
REMARK  3 active torsions:
REMARK  status: ('A' for Active; 'I' for Inactive)
REMARK    1  A    between atoms: N_2  and  C_22
REMARK    2  A    between atoms: C_3  and  C_12
REMARK    3  A    between atoms: C_25  and  C_31
REMARK                            x       y       z     vdW  Elec       q    Type
REMARK                         _______ _______ _______ _____ _____    ______ ____
ROOT
ATOM      1  O   UNL     1      34.431 -10.459 -24.198  0.00  0.00    -0.269 OA
ATOM      2  N   UNL     1      32.999  -9.082 -22.934  0.00  0.00    -0.233 N 
ATOM      3  C   UNL     1      33.034 -11.565 -22.657  0.00  0.00    +0.046 C 
ATOM      4  C   UNL     1      32.151 -11.457 -21.643  0.00  0.00    -0.016 C 
ATOM      5  C   UNL     1      33.546 -10.319 -23.352  0.00  0.00    +0.256 C 
ATOM      6  C   UNL     1      32.101  -9.049 -21.873  0.00  0.00    +0.072 C 
ATOM      7  C   UNL     1      31.687 -10.150 -21.241  0.00  0.00    +0.012 C 
ATOM      8  C   UNL     1      31.559 -12.596 -20.856  0.00  0.00    +0.031 C 
ENDROOT
BRANCH   3  12
ATOM      9  N   UNL     1      34.960 -16.572 -24.406  0.00  0.00    -0.342 NA
ATOM     10  N   UNL     1      35.636 -17.133 -22.163  0.00  0.00    -0.170 NA
ATOM     11  N   UNL     1      35.976 -18.633 -23.930  0.00  0.00    -0.293 N 
ATOM     12  C   UNL     1      33.540 -12.875 -23.107  0.00  0.00    -0.017 C 
ATOM     13  C   UNL     1      34.110 -13.757 -22.195  0.00  0.00    +0.056 C 
ATOM     14  C   UNL     1      33.450 -13.236 -24.447  0.00  0.00    -0.022 C 
ATOM     15  C   UNL     1      34.589 -15.005 -22.630  0.00  0.00    +0.029 C 
ATOM     16  C   UNL     1      34.504 -15.381 -23.980  0.00  0.00    +0.124 C 
ATOM     17  C   UNL     1      33.929 -14.479 -24.871  0.00  0.00    +0.085 C 
ATOM     18  C   UNL     1      35.170 -15.933 -21.769  0.00  0.00    +0.110 C 
ATOM     19  C   UNL     1      35.501 -17.383 -23.475  0.00  0.00    +0.141 C 
ATOM     20  H   UNL     1      35.903 -18.869 -24.882  0.00  0.00    +0.155 HD
ATOM     21  H   UNL     1      36.381 -19.266 -23.294  0.00  0.00    +0.155 HD
ENDBRANCH   3  12
BRANCH   2  22
ATOM     22  C   UNL     1      33.398  -7.853 -23.595  0.00  0.00    +0.058 C 
ATOM     23  C   UNL     1      32.538  -6.756 -23.605  0.00  0.00    +0.019 C 
ATOM     24  C   UNL     1      34.640  -7.772 -24.223  0.00  0.00    +0.015 C 
ATOM     25  C   UNL     1      32.921  -5.576 -24.241  0.00  0.00    +0.073 C 
ATOM     26  C   UNL     1      35.023  -6.591 -24.860  0.00  0.00    +0.001 C 
ATOM     27  C   UNL     1      34.163  -5.493 -24.870  0.00  0.00    +0.004 C 
BRANCH  25  31
ATOM     28  F   UNL     1      32.299  -3.462 -23.309  0.00  0.00    -0.166 F 
ATOM     29  F   UNL     1      31.995  -3.724 -25.440  0.00  0.00    -0.166 F 
ATOM     30  F   UNL     1      30.701  -4.751 -24.026  0.00  0.00    -0.166 F 
ATOM     31  C   UNL     1      32.001  -4.402 -24.254  0.00  0.00    +0.419 C 
ENDBRANCH  25  31
ENDBRANCH   2  22
TORSDOF 3
ENDMDL
