MODEL 1
REMARK VINA RESULT:     -11.5      0.000      0.000
REMARK  Name = 42647297
REMARK  5 active torsions:
REMARK  status: ('A' for Active; 'I' for Inactive)
REMARK    1  A    between atoms: N_3  and  C_14
REMARK    2  A    between atoms: C_7  and  N_20
REMARK    3  A    between atoms: N_20  and  C_24
REMARK    4  A    between atoms: C_22  and  C_31
REMARK    5  A    between atoms: N_30  and  C_33
REMARK                            x       y       z     vdW  Elec       q    Type
REMARK                         _______ _______ _______ _____ _____    ______ ____
ROOT
ATOM      1  O   UNL     1      31.586 -13.223 -20.669  0.00  0.00    -0.269 OA
ATOM      2  N   UNL     1      32.182 -11.290 -21.844  0.00  0.00    -0.240 N 
ATOM      3  N   UNL     1      33.131  -9.571 -23.327  0.00  0.00    -0.174 N 
ATOM      4  N   UNL     1      34.044  -9.457 -24.315  0.00  0.00    -0.171 NA
ATOM      5  C   UNL     1      33.020 -10.842 -22.848  0.00  0.00    +0.133 C 
ATOM      6  C   UNL     1      33.909 -11.598 -23.561  0.00  0.00    +0.064 C 
ATOM      7  C   UNL     1      34.027 -12.988 -23.288  0.00  0.00    +0.057 C 
ATOM      8  C   UNL     1      33.239 -13.498 -22.318  0.00  0.00    +0.073 C 
ATOM      9  C   UNL     1      32.258 -12.657 -21.533  0.00  0.00    +0.255 C 
ATOM     10  C   UNL     1      34.517 -10.703 -24.453  0.00  0.00    +0.122 C 
ATOM     11  C   UNL     1      31.271 -10.393 -21.146  0.00  0.00    +0.122 C 
ENDROOT
BRANCH   3  14
ATOM     12  F   UNL     1      33.824  -8.191 -21.017  0.00  0.00    -0.203 F 
ATOM     13  F   UNL     1      30.419  -5.005 -21.809  0.00  0.00    -0.204 F 
ATOM     14  C   UNL     1      32.447  -8.419 -22.941  0.00  0.00    +0.103 C 
ATOM     15  C   UNL     1      32.814  -7.743 -21.778  0.00  0.00    +0.158 C 
ATOM     16  C   UNL     1      31.395  -7.942 -23.723  0.00  0.00    +0.021 C 
ATOM     17  C   UNL     1      32.129  -6.589 -21.396  0.00  0.00    +0.061 C 
ATOM     18  C   UNL     1      30.710  -6.789 -23.340  0.00  0.00    +0.031 C 
ATOM     19  C   UNL     1      31.077  -6.113 -22.176  0.00  0.00    +0.142 C 
ENDBRANCH   3  14
BRANCH   7  20
ATOM     20  N   UNL     1      34.915 -13.751 -23.997  0.00  0.00    -0.313 N 
ATOM     21  H   UNL     1      35.761 -13.310 -24.239  0.00  0.00    +0.152 HD
BRANCH  20  24
ATOM     22  C   UNL     1      35.187 -17.427 -24.060  0.00  0.00    +0.055 C 
ATOM     23  C   UNL     1      35.320 -16.100 -23.652  0.00  0.00    +0.019 C 
ATOM     24  C   UNL     1      34.772 -15.074 -24.421  0.00  0.00    +0.044 C 
ATOM     25  C   UNL     1      34.505 -17.728 -25.240  0.00  0.00    +0.004 C 
ATOM     26  C   UNL     1      34.089 -15.375 -25.600  0.00  0.00    -0.008 C 
ATOM     27  C   UNL     1      33.955 -16.702 -26.009  0.00  0.00    -0.003 C 
ATOM     28  C   UNL     1      33.491 -14.297 -26.444  0.00  0.00    +0.032 C 
BRANCH  22  31
ATOM     29  O   UNL     1      36.993 -18.641 -23.183  0.00  0.00    -0.270 OA
ATOM     30  N   UNL     1      34.864 -19.352 -22.604  0.00  0.00    -0.302 N 
ATOM     31  C   UNL     1      35.759 -18.497 -23.259  0.00  0.00    +0.246 C 
ATOM     32  H   UNL     1      33.900 -19.183 -22.704  0.00  0.00    +0.150 HD
BRANCH  30  33
ATOM     33  C   UNL     1      35.283 -20.462 -21.795  0.00  0.00    +0.072 C 
ATOM     34  C   UNL     1      34.635 -20.747 -20.472  0.00  0.00    +0.021 C 
ATOM     35  C   UNL     1      36.050 -20.250 -20.523  0.00  0.00    +0.021 C 
ENDBRANCH  30  33
ENDBRANCH  22  31
ENDBRANCH  20  24
ENDBRANCH   7  20
TORSDOF 5
ENDMDL
MODEL 2
REMARK VINA RESULT:     -10.7      4.248      9.866
REMARK  Name = 42647297
REMARK  5 active torsions:
REMARK  status: ('A' for Active; 'I' for Inactive)
REMARK    1  A    between atoms: N_3  and  C_14
REMARK    2  A    between atoms: C_7  and  N_20
REMARK    3  A    between atoms: N_20  and  C_24
REMARK    4  A    between atoms: C_22  and  C_31
REMARK    5  A    between atoms: N_30  and  C_33
REMARK                            x       y       z     vdW  Elec       q    Type
REMARK                         _______ _______ _______ _____ _____    ______ ____
ROOT
ATOM      1  O   UNL     1      30.874 -10.820 -20.921  0.00  0.00    -0.269 OA
ATOM      2  N   UNL     1      32.410 -11.379 -22.595  0.00  0.00    -0.240 N 
ATOM      3  N   UNL     1      34.158 -11.472 -24.324  0.00  0.00    -0.174 N 
ATOM      4  N   UNL     1      35.053 -10.660 -24.925  0.00  0.00    -0.171 NA
ATOM      5  C   UNL     1      33.406 -10.835 -23.385  0.00  0.00    +0.133 C 
ATOM      6  C   UNL     1      33.831  -9.535 -23.372  0.00  0.00    +0.064 C 
ATOM      7  C   UNL     1      33.228  -8.606 -22.481  0.00  0.00    +0.057 C 
ATOM      8  C   UNL     1      32.245  -9.066 -21.678  0.00  0.00    +0.073 C 
ATOM      9  C   UNL     1      31.779 -10.504 -21.696  0.00  0.00    +0.255 C 
ATOM     10  C   UNL     1      34.847  -9.474 -24.337  0.00  0.00    +0.122 C 
ATOM     11  C   UNL     1      32.034 -12.783 -22.692  0.00  0.00    +0.122 C 
ENDROOT
BRANCH   3  14
ATOM     12  F   UNL     1      35.147 -13.495 -22.695  0.00  0.00    -0.203 F 
ATOM     13  F   UNL     1      34.011 -16.757 -25.926  0.00  0.00    -0.204 F 
ATOM     14  C   UNL     1      34.123 -12.808 -24.726  0.00  0.00    +0.103 C 
ATOM     15  C   UNL     1      34.625 -13.804 -23.891  0.00  0.00    +0.158 C 
ATOM     16  C   UNL     1      33.583 -13.144 -25.967  0.00  0.00    +0.021 C 
ATOM     17  C   UNL     1      34.586 -15.139 -24.296  0.00  0.00    +0.061 C 
ATOM     18  C   UNL     1      33.545 -14.478 -26.373  0.00  0.00    +0.031 C 
ATOM     19  C   UNL     1      34.047 -15.476 -25.537  0.00  0.00    +0.142 C 
ENDBRANCH   3  14
BRANCH   7  20
ATOM     20  N   UNL     1      33.647  -7.304 -22.464  0.00  0.00    -0.313 N 
ATOM     21  H   UNL     1      34.272  -7.064 -21.742  0.00  0.00    +0.152 HD
BRANCH  20  24
ATOM     22  C   UNL     1      33.737  -5.038 -25.371  0.00  0.00    +0.055 C 
ATOM     23  C   UNL     1      34.069  -6.063 -24.486  0.00  0.00    +0.019 C 
ATOM     24  C   UNL     1      33.301  -6.272 -23.340  0.00  0.00    +0.044 C 
ATOM     25  C   UNL     1      32.637  -4.221 -25.111  0.00  0.00    +0.004 C 
ATOM     26  C   UNL     1      32.200  -5.456 -23.081  0.00  0.00    -0.008 C 
ATOM     27  C   UNL     1      31.868  -4.431 -23.966  0.00  0.00    -0.003 C 
ATOM     28  C   UNL     1      31.358  -5.656 -21.863  0.00  0.00    +0.032 C 
BRANCH  22  31
ATOM     29  O   UNL     1      33.995  -4.663 -27.673  0.00  0.00    -0.270 OA
ATOM     30  N   UNL     1      35.930  -4.815 -26.407  0.00  0.00    -0.302 N 
ATOM     31  C   UNL     1      34.539  -4.820 -26.565  0.00  0.00    +0.246 C 
ATOM     32  H   UNL     1      36.298  -4.944 -25.503  0.00  0.00    +0.150 HD
BRANCH  30  33
ATOM     33  C   UNL     1      36.847  -4.632 -27.497  0.00  0.00    +0.072 C 
ATOM     34  C   UNL     1      38.250  -4.154 -27.261  0.00  0.00    +0.021 C 
ATOM     35  C   UNL     1      37.257  -3.259 -27.944  0.00  0.00    +0.021 C 
ENDBRANCH  30  33
ENDBRANCH  22  31
ENDBRANCH  20  24
ENDBRANCH   7  20
TORSDOF 5
ENDMDL
MODEL 3
REMARK VINA RESULT:     -10.4      2.990      5.342
REMARK  Name = 42647297
REMARK  5 active torsions:
REMARK  status: ('A' for Active; 'I' for Inactive)
REMARK    1  A    between atoms: N_3  and  C_14
REMARK    2  A    between atoms: C_7  and  N_20
REMARK    3  A    between atoms: N_20  and  C_24
REMARK    4  A    between atoms: C_22  and  C_31
REMARK    5  A    between atoms: N_30  and  C_33
REMARK                            x       y       z     vdW  Elec       q    Type
REMARK                         _______ _______ _______ _____ _____    ______ ____
ROOT
ATOM      1  O   UNL     1      33.727 -15.875 -27.098  0.00  0.00    -0.269 OA
ATOM      2  N   UNL     1      33.788 -15.001 -24.928  0.00  0.00    -0.240 N 
ATOM      3  N   UNL     1      34.127 -14.502 -22.543  0.00  0.00    -0.174 N 
ATOM      4  N   UNL     1      34.728 -15.034 -21.458  0.00  0.00    -0.171 NA
ATOM      5  C   UNL     1      34.277 -15.264 -23.662  0.00  0.00    +0.133 C 
ATOM      6  C   UNL     1      35.016 -16.352 -23.288  0.00  0.00    +0.064 C 
ATOM      7  C   UNL     1      35.344 -17.345 -24.251  0.00  0.00    +0.057 C 
ATOM      8  C   UNL     1      34.898 -17.155 -25.512  0.00  0.00    +0.073 C 
ATOM      9  C   UNL     1      34.083 -15.950 -25.920  0.00  0.00    +0.255 C 
ATOM     10  C   UNL     1      35.270 -16.169 -21.921  0.00  0.00    +0.122 C 
ATOM     11  C   UNL     1      33.008 -13.805 -25.217  0.00  0.00    +0.122 C 
ENDROOT
BRANCH   3  14
ATOM     12  F   UNL     1      32.010 -14.250 -20.762  0.00  0.00    -0.203 F 
ATOM     13  F   UNL     1      31.484  -9.693 -21.913  0.00  0.00    -0.204 F 
ATOM     14  C   UNL     1      33.457 -13.289 -22.383  0.00  0.00    +0.103 C 
ATOM     15  C   UNL     1      32.398 -13.188 -21.482  0.00  0.00    +0.158 C 
ATOM     16  C   UNL     1      33.851 -12.176 -23.125  0.00  0.00    +0.021 C 
ATOM     17  C   UNL     1      31.732 -11.972 -21.323  0.00  0.00    +0.061 C 
ATOM     18  C   UNL     1      33.184 -10.961 -22.967  0.00  0.00    +0.031 C 
ATOM     19  C   UNL     1      32.124 -10.860 -22.066  0.00  0.00    +0.142 C 
ENDBRANCH   3  14
BRANCH   7  20
ATOM     20  N   UNL     1      36.081 -18.437 -23.884  0.00  0.00    -0.313 N 
ATOM     21  H   UNL     1      36.617 -18.853 -24.597  0.00  0.00    +0.152 HD
BRANCH  20  24
ATOM     22  C   UNL     1      35.148 -20.360 -20.880  0.00  0.00    +0.055 C 
ATOM     23  C   UNL     1      35.078 -19.754 -22.134  0.00  0.00    +0.019 C 
ATOM     24  C   UNL     1      36.169 -19.038 -22.625  0.00  0.00    +0.044 C 
ATOM     25  C   UNL     1      36.311 -20.250 -20.116  0.00  0.00    +0.004 C 
ATOM     26  C   UNL     1      37.331 -18.928 -21.862  0.00  0.00    -0.008 C 
ATOM     27  C   UNL     1      37.402 -19.533 -20.608  0.00  0.00    -0.003 C 
ATOM     28  C   UNL     1      38.516 -18.167 -22.363  0.00  0.00    +0.032 C 
BRANCH  22  31
ATOM     29  O   UNL     1      32.853 -20.820 -20.722  0.00  0.00    -0.270 OA
ATOM     30  N   UNL     1      34.281 -22.135 -19.455  0.00  0.00    -0.302 N 
ATOM     31  C   UNL     1      34.011 -21.107 -20.367  0.00  0.00    +0.246 C 
ATOM     32  H   UNL     1      35.219 -22.312 -19.217  0.00  0.00    +0.150 HD
BRANCH  30  33
ATOM     33  C   UNL     1      33.258 -22.942 -18.851  0.00  0.00    +0.072 C 
ATOM     34  C   UNL     1      32.519 -22.474 -17.632  0.00  0.00    +0.021 C 
ATOM     35  C   UNL     1      33.483 -23.620 -17.531  0.00  0.00    +0.021 C 
ENDBRANCH  30  33
ENDBRANCH  22  31
ENDBRANCH  20  24
ENDBRANCH   7  20
TORSDOF 5
ENDMDL
MODEL 4
REMARK VINA RESULT:     -10.2      7.144     11.407
REMARK  Name = 42647297
REMARK  5 active torsions:
REMARK  status: ('A' for Active; 'I' for Inactive)
REMARK    1  A    between atoms: N_3  and  C_14
REMARK    2  A    between atoms: C_7  and  N_20
REMARK    3  A    between atoms: N_20  and  C_24
REMARK    4  A    between atoms: C_22  and  C_31
REMARK    5  A    between atoms: N_30  and  C_33
REMARK                            x       y       z     vdW  Elec       q    Type
REMARK                         _______ _______ _______ _____ _____    ______ ____
ROOT
ATOM      1  O   UNL     1      37.978 -21.473 -18.285  0.00  0.00    -0.269 OA
ATOM      2  N   UNL     1      36.361 -20.628 -19.750  0.00  0.00    -0.240 N 
ATOM      3  N   UNL     1      34.351 -20.079 -21.059  0.00  0.00    -0.174 N 
ATOM      4  N   UNL     1      33.057 -20.449 -21.158  0.00  0.00    -0.171 NA
ATOM      5  C   UNL     1      35.031 -20.768 -20.101  0.00  0.00    +0.133 C 
ATOM      6  C   UNL     1      34.132 -21.637 -19.545  0.00  0.00    +0.064 C 
ATOM      7  C   UNL     1      34.548 -22.506 -18.500  0.00  0.00    +0.057 C 
ATOM      8  C   UNL     1      35.837 -22.426 -18.104  0.00  0.00    +0.073 C 
ATOM      9  C   UNL     1      36.826 -21.464 -18.722  0.00  0.00    +0.255 C 
ATOM     10  C   UNL     1      32.930 -21.405 -20.228  0.00  0.00    +0.122 C 
ATOM     11  C   UNL     1      37.233 -19.668 -20.412  0.00  0.00    +0.122 C 
ENDROOT
BRANCH   3  14
ATOM     12  F   UNL     1      34.996 -20.630 -23.704  0.00  0.00    -0.203 F 
ATOM     13  F   UNL     1      36.147 -16.103 -24.448  0.00  0.00    -0.204 F 
ATOM     14  C   UNL     1      34.806 -19.077 -21.916  0.00  0.00    +0.103 C 
ATOM     15  C   UNL     1      35.122 -19.379 -23.240  0.00  0.00    +0.158 C 
ATOM     16  C   UNL     1      34.942 -17.771 -21.447  0.00  0.00    +0.021 C 
ATOM     17  C   UNL     1      35.575 -18.373 -24.096  0.00  0.00    +0.061 C 
ATOM     18  C   UNL     1      35.395 -16.766 -22.301  0.00  0.00    +0.031 C 
ATOM     19  C   UNL     1      35.712 -17.068 -23.626  0.00  0.00    +0.142 C 
ENDBRANCH   3  14
BRANCH   7  20
ATOM     20  N   UNL     1      33.655 -23.378 -17.940  0.00  0.00    -0.313 N 
ATOM     21  H   UNL     1      33.215 -24.000 -18.563  0.00  0.00    +0.152 HD
BRANCH  20  24
ATOM     22  C   UNL     1      33.884 -24.060 -14.324  0.00  0.00    +0.055 C 
ATOM     23  C   UNL     1      34.233 -23.935 -15.669  0.00  0.00    +0.019 C 
ATOM     24  C   UNL     1      33.289 -23.497 -16.597  0.00  0.00    +0.044 C 
ATOM     25  C   UNL     1      32.590 -23.746 -13.907  0.00  0.00    +0.004 C 
ATOM     26  C   UNL     1      31.995 -23.183 -16.180  0.00  0.00    -0.008 C 
ATOM     27  C   UNL     1      31.646 -23.308 -14.836  0.00  0.00    -0.003 C 
ATOM     28  C   UNL     1      30.962 -22.712 -17.152  0.00  0.00    +0.032 C 
BRANCH  22  31
ATOM     29  O   UNL     1      34.759 -24.220 -12.153  0.00  0.00    -0.270 OA
ATOM     30  N   UNL     1      35.938 -25.278 -13.845  0.00  0.00    -0.302 N 
ATOM     31  C   UNL     1      34.869 -24.516 -13.356  0.00  0.00    +0.246 C 
ATOM     32  H   UNL     1      35.966 -25.479 -14.808  0.00  0.00    +0.150 HD
BRANCH  30  33
ATOM     33  C   UNL     1      36.994 -25.780 -13.011  0.00  0.00    +0.072 C 
ATOM     34  C   UNL     1      38.150 -24.908 -12.613  0.00  0.00    +0.021 C 
ATOM     35  C   UNL     1      38.362 -26.047 -13.568  0.00  0.00    +0.021 C 
ENDBRANCH  30  33
ENDBRANCH  22  31
ENDBRANCH  20  24
ENDBRANCH   7  20
TORSDOF 5
ENDMDL
MODEL 5
REMARK VINA RESULT:     -10.2      1.505      1.812
REMARK  Name = 42647297
REMARK  5 active torsions:
REMARK  status: ('A' for Active; 'I' for Inactive)
REMARK    1  A    between atoms: N_3  and  C_14
REMARK    2  A    between atoms: C_7  and  N_20
REMARK    3  A    between atoms: N_20  and  C_24
REMARK    4  A    between atoms: C_22  and  C_31
REMARK    5  A    between atoms: N_30  and  C_33
REMARK                            x       y       z     vdW  Elec       q    Type
REMARK                         _______ _______ _______ _____ _____    ______ ____
ROOT
ATOM      1  O   UNL     1      30.995 -12.050 -21.397  0.00  0.00    -0.269 OA
ATOM      2  N   UNL     1      32.069 -10.241 -22.422  0.00  0.00    -0.240 N 
ATOM      3  N   UNL     1      33.521  -8.698 -23.672  0.00  0.00    -0.174 N 
ATOM      4  N   UNL     1      34.627  -8.728 -24.445  0.00  0.00    -0.171 NA
ATOM      5  C   UNL     1      33.149  -9.930 -23.226  0.00  0.00    +0.133 C 
ATOM      6  C   UNL     1      34.063 -10.812 -23.734  0.00  0.00    +0.064 C 
ATOM      7  C   UNL     1      33.941 -12.198 -23.441  0.00  0.00    +0.057 C 
ATOM      8  C   UNL     1      32.908 -12.577 -22.658  0.00  0.00    +0.073 C 
ATOM      9  C   UNL     1      31.901 -11.598 -22.100  0.00  0.00    +0.255 C 
ATOM     10  C   UNL     1      34.955 -10.027 -24.478  0.00  0.00    +0.122 C 
ATOM     11  C   UNL     1      31.155  -9.217 -21.933  0.00  0.00    +0.122 C 
ENDROOT
BRANCH   3  14
ATOM     12  F   UNL     1      31.367  -7.828 -25.196  0.00  0.00    -0.203 F 
ATOM     13  F   UNL     1      31.167  -3.788 -22.746  0.00  0.00    -0.204 F 
ATOM     14  C   UNL     1      32.926  -7.458 -23.441  0.00  0.00    +0.103 C 
ATOM     15  C   UNL     1      31.845  -7.045 -24.219  0.00  0.00    +0.158 C 
ATOM     16  C   UNL     1      33.412  -6.633 -22.428  0.00  0.00    +0.021 C 
ATOM     17  C   UNL     1      31.251  -5.804 -23.984  0.00  0.00    +0.061 C 
ATOM     18  C   UNL     1      32.819  -5.393 -22.193  0.00  0.00    +0.031 C 
ATOM     19  C   UNL     1      31.738  -4.978 -22.971  0.00  0.00    +0.142 C 
ENDBRANCH   3  14
BRANCH   7  20
ATOM     20  N   UNL     1      34.852 -13.086 -23.944  0.00  0.00    -0.313 N 
ATOM     21  H   UNL     1      35.798 -12.841 -23.831  0.00  0.00    +0.152 HD
BRANCH  20  24
ATOM     22  C   UNL     1      34.800 -16.703 -24.655  0.00  0.00    +0.055 C 
ATOM     23  C   UNL     1      35.035 -15.487 -24.014  0.00  0.00    +0.019 C 
ATOM     24  C   UNL     1      34.609 -14.295 -24.600  0.00  0.00    +0.044 C 
ATOM     25  C   UNL     1      34.139 -16.728 -25.883  0.00  0.00    +0.004 C 
ATOM     26  C   UNL     1      33.947 -14.320 -25.828  0.00  0.00    -0.008 C 
ATOM     27  C   UNL     1      33.712 -15.536 -26.469  0.00  0.00    -0.003 C 
ATOM     28  C   UNL     1      33.478 -13.060 -26.480  0.00  0.00    +0.032 C 
BRANCH  22  31
ATOM     29  O   UNL     1      34.696 -19.024 -24.330  0.00  0.00    -0.270 OA
ATOM     30  N   UNL     1      36.294 -17.862 -23.119  0.00  0.00    -0.302 N 
ATOM     31  C   UNL     1      35.245 -17.946 -24.044  0.00  0.00    +0.246 C 
ATOM     32  H   UNL     1      36.687 -16.978 -22.938  0.00  0.00    +0.150 HD
BRANCH  30  33
ATOM     33  C   UNL     1      36.824 -19.001 -22.423  0.00  0.00    +0.072 C 
ATOM     34  C   UNL     1      36.108 -19.592 -21.244  0.00  0.00    +0.021 C 
ATOM     35  C   UNL     1      37.407 -18.867 -21.047  0.00  0.00    +0.021 C 
ENDBRANCH  30  33
ENDBRANCH  22  31
ENDBRANCH  20  24
ENDBRANCH   7  20
TORSDOF 5
ENDMDL
MODEL 6
REMARK VINA RESULT:     -10.1      6.894     10.852
REMARK  Name = 42647297
REMARK  5 active torsions:
REMARK  status: ('A' for Active; 'I' for Inactive)
REMARK    1  A    between atoms: N_3  and  C_14
REMARK    2  A    between atoms: C_7  and  N_20
REMARK    3  A    between atoms: N_20  and  C_24
REMARK    4  A    between atoms: C_22  and  C_31
REMARK    5  A    between atoms: N_30  and  C_33
REMARK                            x       y       z     vdW  Elec       q    Type
REMARK                         _______ _______ _______ _____ _____    ______ ____
ROOT
ATOM      1  O   UNL     1      32.484 -22.115 -19.775  0.00  0.00    -0.269 OA
ATOM      2  N   UNL     1      34.134 -20.739 -20.702  0.00  0.00    -0.240 N 
ATOM      3  N   UNL     1      36.168 -19.495 -21.311  0.00  0.00    -0.174 N 
ATOM      4  N   UNL     1      37.452 -19.369 -20.916  0.00  0.00    -0.171 NA
ATOM      5  C   UNL     1      35.463 -20.384 -20.558  0.00  0.00    +0.133 C 
ATOM      6  C   UNL     1      36.333 -20.864 -19.618  0.00  0.00    +0.064 C 
ATOM      7  C   UNL     1      35.886 -21.825 -18.671  0.00  0.00    +0.057 C 
ATOM      8  C   UNL     1      34.597 -22.220 -18.750  0.00  0.00    +0.073 C 
ATOM      9  C   UNL     1      33.639 -21.686 -19.791  0.00  0.00    +0.255 C 
ATOM     10  C   UNL     1      37.547 -20.210 -19.877  0.00  0.00    +0.122 C 
ATOM     11  C   UNL     1      33.293 -20.162 -21.742  0.00  0.00    +0.122 C 
ENDROOT
BRANCH   3  14
ATOM     12  F   UNL     1      35.690 -16.770 -21.054  0.00  0.00    -0.203 F 
ATOM     13  F   UNL     1      34.505 -16.469 -25.623  0.00  0.00    -0.204 F 
ATOM     14  C   UNL     1      35.747 -18.729 -22.398  0.00  0.00    +0.103 C 
ATOM     15  C   UNL     1      35.515 -17.363 -22.244  0.00  0.00    +0.158 C 
ATOM     16  C   UNL     1      35.560 -19.332 -23.642  0.00  0.00    +0.021 C 
ATOM     17  C   UNL     1      35.095 -16.599 -23.334  0.00  0.00    +0.061 C 
ATOM     18  C   UNL     1      35.140 -18.569 -24.731  0.00  0.00    +0.031 C 
ATOM     19  C   UNL     1      34.908 -17.202 -24.577  0.00  0.00    +0.142 C 
ENDBRANCH   3  14
BRANCH   7  20
ATOM     20  N   UNL     1      36.751 -22.308 -17.728  0.00  0.00    -0.313 N 
ATOM     21  H   UNL     1      37.709 -22.196 -17.926  0.00  0.00    +0.152 HD
BRANCH  20  24
ATOM     22  C   UNL     1      34.797 -23.656 -14.907  0.00  0.00    +0.055 C 
ATOM     23  C   UNL     1      35.118 -23.027 -16.110  0.00  0.00    +0.019 C 
ATOM     24  C   UNL     1      36.448 -22.942 -16.520  0.00  0.00    +0.044 C 
ATOM     25  C   UNL     1      35.807 -24.201 -14.114  0.00  0.00    +0.004 C 
ATOM     26  C   UNL     1      37.458 -23.487 -15.728  0.00  0.00    -0.008 C 
ATOM     27  C   UNL     1      37.138 -24.117 -14.525  0.00  0.00    -0.003 C 
ATOM     28  C   UNL     1      38.892 -23.412 -16.142  0.00  0.00    +0.032 C 
BRANCH  22  31
ATOM     29  O   UNL     1      33.108 -24.342 -13.431  0.00  0.00    -0.270 OA
ATOM     30  N   UNL     1      32.449 -23.146 -15.303  0.00  0.00    -0.302 N 
ATOM     31  C   UNL     1      33.410 -23.744 -14.478  0.00  0.00    +0.246 C 
ATOM     32  H   UNL     1      32.754 -22.686 -16.118  0.00  0.00    +0.150 HD
BRANCH  30  33
ATOM     33  C   UNL     1      31.041 -23.170 -15.019  0.00  0.00    +0.072 C 
ATOM     34  C   UNL     1      30.184 -24.329 -15.437  0.00  0.00    +0.021 C 
ATOM     35  C   UNL     1      30.026 -22.997 -16.110  0.00  0.00    +0.021 C 
ENDBRANCH  30  33
ENDBRANCH  22  31
ENDBRANCH  20  24
ENDBRANCH   7  20
TORSDOF 5
ENDMDL
MODEL 7
REMARK VINA RESULT:     -10.0      2.729      4.864
REMARK  Name = 42647297
REMARK  5 active torsions:
REMARK  status: ('A' for Active; 'I' for Inactive)
REMARK    1  A    between atoms: N_3  and  C_14
REMARK    2  A    between atoms: C_7  and  N_20
REMARK    3  A    between atoms: N_20  and  C_24
REMARK    4  A    between atoms: C_22  and  C_31
REMARK    5  A    between atoms: N_30  and  C_33
REMARK                            x       y       z     vdW  Elec       q    Type
REMARK                         _______ _______ _______ _____ _____    ______ ____
ROOT
ATOM      1  O   UNL     1      33.923 -15.592 -27.079  0.00  0.00    -0.269 OA
ATOM      2  N   UNL     1      33.831 -14.539 -24.992  0.00  0.00    -0.240 N 
ATOM      3  N   UNL     1      34.040 -13.816 -22.649  0.00  0.00    -0.174 N 
ATOM      4  N   UNL     1      34.646 -14.200 -21.506  0.00  0.00    -0.171 NA
ATOM      5  C   UNL     1      34.295 -14.651 -23.694  0.00  0.00    +0.133 C 
ATOM      6  C   UNL     1      35.111 -15.635 -23.207  0.00  0.00    +0.064 C 
ATOM      7  C   UNL     1      35.558 -16.671 -24.072  0.00  0.00    +0.057 C 
ATOM      8  C   UNL     1      35.143 -16.627 -25.356  0.00  0.00    +0.073 C 
ATOM      9  C   UNL     1      34.241 -15.538 -25.890  0.00  0.00    +0.255 C 
ATOM     10  C   UNL     1      35.300 -15.316 -21.855  0.00  0.00    +0.122 C 
ATOM     11  C   UNL     1      32.961 -13.445 -25.404  0.00  0.00    +0.122 C 
ENDROOT
BRANCH   3  14
ATOM     12  F   UNL     1      34.816 -11.517 -24.003  0.00  0.00    -0.203 F 
ATOM     13  F   UNL     1      30.953  -9.237 -22.503  0.00  0.00    -0.204 F 
ATOM     14  C   UNL     1      33.263 -12.658 -22.613  0.00  0.00    +0.103 C 
ATOM     15  C   UNL     1      33.674 -11.517 -23.302  0.00  0.00    +0.158 C 
ATOM     16  C   UNL     1      32.072 -12.644 -21.888  0.00  0.00    +0.021 C 
ATOM     17  C   UNL     1      32.893 -10.361 -23.264  0.00  0.00    +0.061 C 
ATOM     18  C   UNL     1      31.292 -11.488 -21.850  0.00  0.00    +0.031 C 
ATOM     19  C   UNL     1      31.703 -10.347 -22.539  0.00  0.00    +0.142 C 
ENDBRANCH   3  14
BRANCH   7  20
ATOM     20  N   UNL     1      36.373 -17.659 -23.591  0.00  0.00    -0.313 N 
ATOM     21  H   UNL     1      37.292 -17.666 -23.943  0.00  0.00    +0.152 HD
BRANCH  20  24
ATOM     22  C   UNL     1      36.524 -19.753 -20.561  0.00  0.00    +0.055 C 
ATOM     23  C   UNL     1      36.817 -18.760 -21.496  0.00  0.00    +0.019 C 
ATOM     24  C   UNL     1      36.066 -18.659 -22.666  0.00  0.00    +0.044 C 
ATOM     25  C   UNL     1      35.478 -20.645 -20.796  0.00  0.00    +0.004 C 
ATOM     26  C   UNL     1      35.018 -19.551 -22.901  0.00  0.00    -0.008 C 
ATOM     27  C   UNL     1      34.725 -20.543 -21.966  0.00  0.00    -0.003 C 
ATOM     28  C   UNL     1      34.195 -19.466 -24.145  0.00  0.00    +0.032 C 
BRANCH  22  31
ATOM     29  O   UNL     1      38.208 -19.036 -19.093  0.00  0.00    -0.270 OA
ATOM     30  N   UNL     1      37.017 -20.929 -18.486  0.00  0.00    -0.302 N 
ATOM     31  C   UNL     1      37.309 -19.859 -19.341  0.00  0.00    +0.246 C 
ATOM     32  H   UNL     1      36.292 -21.544 -18.739  0.00  0.00    +0.150 HD
BRANCH  30  33
ATOM     33  C   UNL     1      37.722 -21.171 -17.258  0.00  0.00    +0.072 C 
ATOM     34  C   UNL     1      38.096 -22.563 -16.840  0.00  0.00    +0.021 C 
ATOM     35  C   UNL     1      37.039 -21.811 -16.085  0.00  0.00    +0.021 C 
ENDBRANCH  30  33
ENDBRANCH  22  31
ENDBRANCH  20  24
ENDBRANCH   7  20
TORSDOF 5
ENDMDL
MODEL 8
REMARK VINA RESULT:      -9.8      6.973     11.117
REMARK  Name = 42647297
REMARK  5 active torsions:
REMARK  status: ('A' for Active; 'I' for Inactive)
REMARK    1  A    between atoms: N_3  and  C_14
REMARK    2  A    between atoms: C_7  and  N_20
REMARK    3  A    between atoms: N_20  and  C_24
REMARK    4  A    between atoms: C_22  and  C_31
REMARK    5  A    between atoms: N_30  and  C_33
REMARK                            x       y       z     vdW  Elec       q    Type
REMARK                         _______ _______ _______ _____ _____    ______ ____
ROOT
ATOM      1  O   UNL     1      37.800 -21.474 -18.473  0.00  0.00    -0.269 OA
ATOM      2  N   UNL     1      36.221 -20.552 -19.933  0.00  0.00    -0.240 N 
ATOM      3  N   UNL     1      34.245 -19.931 -21.261  0.00  0.00    -0.174 N 
ATOM      4  N   UNL     1      32.953 -20.290 -21.409  0.00  0.00    -0.171 NA
ATOM      5  C   UNL     1      34.900 -20.669 -20.322  0.00  0.00    +0.133 C 
ATOM      6  C   UNL     1      33.985 -21.560 -19.831  0.00  0.00    +0.064 C 
ATOM      7  C   UNL     1      34.373 -22.480 -18.819  0.00  0.00    +0.057 C 
ATOM      8  C   UNL     1      35.652 -22.426 -18.390  0.00  0.00    +0.073 C 
ATOM      9  C   UNL     1      36.659 -21.439 -18.936  0.00  0.00    +0.255 C 
ATOM     10  C   UNL     1      32.800 -21.290 -20.530  0.00  0.00    +0.122 C 
ATOM     11  C   UNL     1      37.112 -19.564 -20.527  0.00  0.00    +0.122 C 
ENDROOT
BRANCH   3  14
ATOM     12  F   UNL     1      34.947 -20.355 -23.916  0.00  0.00    -0.203 F 
ATOM     13  F   UNL     1      36.133 -15.803 -24.409  0.00  0.00    -0.204 F 
ATOM     14  C   UNL     1      34.723 -18.890 -22.058  0.00  0.00    +0.103 C 
ATOM     15  C   UNL     1      35.068 -19.128 -23.387  0.00  0.00    +0.158 C 
ATOM     16  C   UNL     1      34.854 -17.610 -21.521  0.00  0.00    +0.021 C 
ATOM     17  C   UNL     1      35.544 -18.084 -24.182  0.00  0.00    +0.061 C 
ATOM     18  C   UNL     1      35.331 -16.567 -22.315  0.00  0.00    +0.031 C 
ATOM     19  C   UNL     1      35.676 -16.804 -23.646  0.00  0.00    +0.142 C 
ENDBRANCH   3  14
BRANCH   7  20
ATOM     20  N   UNL     1      33.464 -23.375 -18.324  0.00  0.00    -0.313 N 
ATOM     21  H   UNL     1      33.321 -24.185 -18.865  0.00  0.00    +0.152 HD
BRANCH  20  24
ATOM     22  C   UNL     1      30.592 -22.886 -16.065  0.00  0.00    +0.055 C 
ATOM     23  C   UNL     1      31.356 -22.980 -17.228  0.00  0.00    +0.019 C 
ATOM     24  C   UNL     1      32.714 -23.285 -17.149  0.00  0.00    +0.044 C 
ATOM     25  C   UNL     1      31.188 -23.097 -14.821  0.00  0.00    +0.004 C 
ATOM     26  C   UNL     1      33.310 -23.497 -15.905  0.00  0.00    -0.008 C 
ATOM     27  C   UNL     1      32.546 -23.403 -14.742  0.00  0.00    -0.003 C 
ATOM     28  C   UNL     1      34.763 -23.825 -15.789  0.00  0.00    +0.032 C 
BRANCH  22  31
ATOM     29  O   UNL     1      28.589 -22.034 -15.189  0.00  0.00    -0.270 OA
ATOM     30  N   UNL     1      28.515 -22.905 -17.336  0.00  0.00    -0.302 N 
ATOM     31  C   UNL     1      29.176 -22.567 -16.148  0.00  0.00    +0.246 C 
ATOM     32  H   UNL     1      29.037 -23.323 -18.058  0.00  0.00    +0.150 HD
BRANCH  30  33
ATOM     33  C   UNL     1      27.115 -22.669 -17.553  0.00  0.00    +0.072 C 
ATOM     34  C   UNL     1      26.605 -22.189 -18.880  0.00  0.00    +0.021 C 
ATOM     35  C   UNL     1      26.574 -21.276 -17.689  0.00  0.00    +0.021 C 
ENDBRANCH  30  33
ENDBRANCH  22  31
ENDBRANCH  20  24
ENDBRANCH   7  20
TORSDOF 5
ENDMDL
MODEL 9
REMARK VINA RESULT:      -9.7      2.783      5.139
REMARK  Name = 42647297
REMARK  5 active torsions:
REMARK  status: ('A' for Active; 'I' for Inactive)
REMARK    1  A    between atoms: N_3  and  C_14
REMARK    2  A    between atoms: C_7  and  N_20
REMARK    3  A    between atoms: N_20  and  C_24
REMARK    4  A    between atoms: C_22  and  C_31
REMARK    5  A    between atoms: N_30  and  C_33
REMARK                            x       y       z     vdW  Elec       q    Type
REMARK                         _______ _______ _______ _____ _____    ______ ____
ROOT
ATOM      1  O   UNL     1      33.453  -6.933 -19.503  0.00  0.00    -0.269 OA
ATOM      2  N   UNL     1      32.763  -6.614 -21.716  0.00  0.00    -0.240 N 
ATOM      3  N   UNL     1      31.864  -6.760 -24.001  0.00  0.00    -0.174 N 
ATOM      4  N   UNL     1      31.226  -7.641 -24.800  0.00  0.00    -0.171 NA
ATOM      5  C   UNL     1      32.128  -7.258 -22.761  0.00  0.00    +0.133 C 
ATOM      6  C   UNL     1      31.636  -8.534 -22.750  0.00  0.00    +0.064 C 
ATOM      7  C   UNL     1      31.760  -9.325 -21.575  0.00  0.00    +0.057 C 
ATOM      8  C   UNL     1      32.372  -8.761 -20.511  0.00  0.00    +0.073 C 
ATOM      9  C   UNL     1      32.914  -7.350 -20.529  0.00  0.00    +0.255 C 
ATOM     10  C   UNL     1      31.090  -8.727 -24.026  0.00  0.00    +0.122 C 
ATOM     11  C   UNL     1      33.251  -5.247 -21.838  0.00  0.00    +0.122 C 
ENDROOT
BRANCH   3  14
ATOM     12  F   UNL     1      30.475  -4.495 -23.188  0.00  0.00    -0.203 F 
ATOM     13  F   UNL     1      33.039  -1.786 -26.096  0.00  0.00    -0.204 F 
ATOM     14  C   UNL     1      32.158  -5.503 -24.530  0.00  0.00    +0.103 C 
ATOM     15  C   UNL     1      31.447  -4.381 -24.105  0.00  0.00    +0.158 C 
ATOM     16  C   UNL     1      33.167  -5.370 -25.484  0.00  0.00    +0.021 C 
ATOM     17  C   UNL     1      31.746  -3.125 -24.634  0.00  0.00    +0.061 C 
ATOM     18  C   UNL     1      33.464  -4.114 -26.013  0.00  0.00    +0.031 C 
ATOM     19  C   UNL     1      32.754  -2.992 -25.588  0.00  0.00    +0.142 C 
ENDBRANCH   3  14
BRANCH   7  20
ATOM     20  N   UNL     1      31.272 -10.603 -21.556  0.00  0.00    -0.313 N 
ATOM     21  H   UNL     1      30.296 -10.690 -21.645  0.00  0.00    +0.152 HD
BRANCH  20  24
ATOM     22  C   UNL     1      33.257 -13.579 -22.446  0.00  0.00    +0.055 C 
ATOM     23  C   UNL     1      32.544 -12.385 -22.558  0.00  0.00    +0.019 C 
ATOM     24  C   UNL     1      31.983 -11.798 -21.425  0.00  0.00    +0.044 C 
ATOM     25  C   UNL     1      33.409 -14.185 -21.199  0.00  0.00    +0.004 C 
ATOM     26  C   UNL     1      32.135 -12.404 -20.178  0.00  0.00    -0.008 C 
ATOM     27  C   UNL     1      32.848 -13.597 -20.065  0.00  0.00    -0.003 C 
ATOM     28  C   UNL     1      31.546 -11.798 -18.946  0.00  0.00    +0.032 C 
BRANCH  22  31
ATOM     29  O   UNL     1      33.614 -13.728 -24.760  0.00  0.00    -0.270 OA
ATOM     30  N   UNL     1      34.644 -15.322 -23.430  0.00  0.00    -0.302 N 
ATOM     31  C   UNL     1      33.842 -14.192 -23.628  0.00  0.00    +0.246 C 
ATOM     32  H   UNL     1      34.785 -15.638 -22.508  0.00  0.00    +0.150 HD
BRANCH  30  33
ATOM     33  C   UNL     1      35.269 -16.043 -24.503  0.00  0.00    +0.072 C 
ATOM     34  C   UNL     1      34.454 -16.807 -25.505  0.00  0.00    +0.021 C 
ATOM     35  C   UNL     1      35.306 -17.543 -24.513  0.00  0.00    +0.021 C 
ENDBRANCH  30  33
ENDBRANCH  22  31
ENDBRANCH  20  24
ENDBRANCH   7  20
TORSDOF 5
ENDMDL
