MODEL 1
REMARK VINA RESULT:     -13.1      0.000      0.000
REMARK  Name = 76958312
REMARK  3 active torsions:
REMARK  status: ('A' for Active; 'I' for Inactive)
REMARK    1  A    between atoms: C_16  and  C_21
REMARK    2  A    between atoms: C_26  and  N_28
REMARK    3  A    between atoms: N_29  and  C_34
REMARK                            x       y       z     vdW  Elec       q    Type
REMARK                         _______ _______ _______ _____ _____    ______ ____
ROOT
ATOM      1  O   UNL     1      30.829 -23.167 -13.493  0.00  0.00    -0.350 OA
ATOM      2  O   UNL     1      38.759 -25.346 -12.920  0.00  0.00    -0.350 OA
ATOM      3  N   UNL     1      32.074 -24.663 -15.548  0.00  0.00    -0.231 N 
ATOM      4  N   UNL     1      34.325 -24.729 -15.060  0.00  0.00    -0.246 NA
ATOM      5  N   UNL     1      33.491 -23.507 -16.950  0.00  0.00    -0.260 NA
ATOM      6  N   UNL     1      36.621 -24.739 -14.641  0.00  0.00    -0.228 N 
ATOM      7  N   UNL     1      35.845 -23.541 -16.487  0.00  0.00    -0.260 NA
ATOM      8  C   UNL     1      31.745 -25.309 -14.276  0.00  0.00    +0.114 C 
ATOM      9  C   UNL     1      30.912 -23.828 -15.858  0.00  0.00    +0.114 C 
ATOM     10  C   UNL     1      30.300 -25.774 -14.528  0.00  0.00    +0.025 C 
ATOM     11  C   UNL     1      29.750 -24.796 -15.574  0.00  0.00    +0.025 C 
ATOM     12  C   UNL     1      30.927 -22.673 -14.839  0.00  0.00    +0.163 C 
ATOM     13  C   UNL     1      31.787 -24.201 -13.207  0.00  0.00    +0.163 C 
ATOM     14  C   UNL     1      33.346 -24.286 -15.865  0.00  0.00    +0.224 C 
ATOM     15  C   UNL     1      35.548 -24.317 -15.432  0.00  0.00    +0.224 C 
ATOM     16  C   UNL     1      34.767 -23.174 -17.199  0.00  0.00    +0.163 C 
ATOM     17  C   UNL     1      37.988 -24.330 -14.984  0.00  0.00    +0.135 C 
ATOM     18  C   UNL     1      36.379 -24.977 -13.211  0.00  0.00    +0.135 C 
ATOM     19  C   UNL     1      37.466 -25.887 -12.650  0.00  0.00    +0.164 C 
ATOM     20  C   UNL     1      38.989 -25.274 -14.327  0.00  0.00    +0.164 C 
ENDROOT
BRANCH  16  21
ATOM     21  C   UNL     1      35.006 -22.339 -18.347  0.00  0.00    +0.087 C 
ATOM     22  C   UNL     1      36.294 -21.877 -18.617  0.00  0.00    +0.013 C 
ATOM     23  C   UNL     1      33.949 -21.992 -19.188  0.00  0.00    +0.013 C 
ATOM     24  C   UNL     1      36.524 -21.067 -19.730  0.00  0.00    +0.015 C 
ATOM     25  C   UNL     1      34.180 -21.183 -20.301  0.00  0.00    +0.015 C 
ATOM     26  C   UNL     1      35.468 -20.721 -20.571  0.00  0.00    +0.052 C 
BRANCH  26  28
ATOM     27  O   UNL     1      34.156 -18.171 -21.405  0.00  0.00    -0.252 OA
ATOM     28  N   UNL     1      35.698 -19.911 -21.684  0.00  0.00    -0.268 N 
ATOM     29  N   UNL     1      35.596 -18.215 -23.248  0.00  0.00    -0.268 N 
ATOM     30  C   UNL     1      35.055 -18.704 -22.048  0.00  0.00    +0.308 C 
ATOM     31  H   UNL     1      36.403 -20.221 -22.299  0.00  0.00    +0.156 HD
ATOM     32  H   UNL     1      36.314 -18.755 -23.650  0.00  0.00    +0.156 HD
BRANCH  29  34
ATOM     33  N   UNL     1      34.521 -14.721 -25.337  0.00  0.00    -0.242 NA
ATOM     34  C   UNL     1      35.235 -17.041 -23.951  0.00  0.00    +0.055 C 
ATOM     35  C   UNL     1      35.251 -15.809 -23.306  0.00  0.00    +0.035 C 
ATOM     36  C   UNL     1      34.862 -17.114 -25.288  0.00  0.00    +0.035 C 
ATOM     37  C   UNL     1      34.889 -14.689 -24.036  0.00  0.00    +0.100 C 
ATOM     38  C   UNL     1      34.517 -15.935 -25.930  0.00  0.00    +0.100 C 
ENDBRANCH  29  34
ENDBRANCH  26  28
ENDBRANCH  16  21
TORSDOF 3
ENDMDL
