MODEL 1
REMARK VINA RESULT:     -12.1      0.000      0.000
REMARK  Name = 445480
REMARK  5 active torsions:
REMARK  status: ('A' for Active; 'I' for Inactive)
REMARK    1  A    between atoms: N_2  and  C_21
REMARK    2  A    between atoms: C_3  and  N_7
REMARK    3  A    between atoms: N_7  and  S_9
REMARK    4  A    between atoms: S_9  and  C_14
REMARK    5  A    between atoms: C_21  and  C_24
REMARK                            x       y       z     vdW  Elec       q    Type
REMARK                         _______ _______ _______ _____ _____    ______ ____
ROOT
ATOM      1  O   UNL     1      36.786 -21.117 -19.856  0.00  0.00    -0.273 OA
ATOM      2  N   UNL     1      35.416 -19.910 -21.339  0.00  0.00    -0.274 N 
ATOM      3  C   UNL     1      34.400 -21.548 -20.028  0.00  0.00    +0.153 C 
ATOM      4  C   UNL     1      33.341 -20.585 -20.552  0.00  0.00    +0.048 C 
ATOM      5  C   UNL     1      34.024 -19.909 -21.726  0.00  0.00    +0.096 C 
ATOM      6  C   UNL     1      35.700 -20.855 -20.353  0.00  0.00    +0.242 C 
ENDROOT
BRANCH   3   7
ATOM      7  N   UNL     1      34.287 -21.717 -18.575  0.00  0.00    -0.171 NA
ATOM      8  H   UNL     1      35.235 -21.719 -18.195  0.00  0.00    +0.149 HD
BRANCH   7   9
ATOM      9  S   UNL     1      33.499 -23.120 -17.984  0.00  0.00    +0.066 S 
ATOM     10  O   UNL     1      33.879 -24.260 -18.796  0.00  0.00    -0.152 OA
ATOM     11  O   UNL     1      32.106 -22.809 -17.728  0.00  0.00    -0.152 OA
BRANCH   9  14
ATOM     12  S   UNL     1      35.769 -22.945 -16.157  0.00  0.00    -0.066 S 
ATOM     13  N   UNL     1      34.319 -24.589 -12.943  0.00  0.00    -0.243 NA
ATOM     14  C   UNL     1      34.164 -23.451 -16.353  0.00  0.00    +0.153 C 
ATOM     15  C   UNL     1      33.625 -24.029 -15.256  0.00  0.00    +0.046 C 
ATOM     16  C   UNL     1      34.560 -24.071 -14.179  0.00  0.00    +0.089 C 
ATOM     17  C   UNL     1      35.787 -23.507 -14.532  0.00  0.00    +0.048 C 
ATOM     18  C   UNL     1      36.832 -23.458 -13.599  0.00  0.00    +0.010 C 
ATOM     19  C   UNL     1      36.592 -23.986 -12.337  0.00  0.00    +0.021 C 
ATOM     20  C   UNL     1      35.346 -24.526 -12.072  0.00  0.00    +0.099 C 
ENDBRANCH   9  14
ENDBRANCH   7   9
ENDBRANCH   3   7
BRANCH   2  21
ATOM     21  C   UNL     1      36.392 -19.089 -22.021  0.00  0.00    +0.120 C 
BRANCH  21  24
ATOM     22  N   UNL     1      34.018 -13.929 -24.492  0.00  0.00    -0.230 NA
ATOM     23  N   UNL     1      34.990 -14.127 -22.357  0.00  0.00    -0.343 N 
ATOM     24  C   UNL     1      35.727 -18.237 -23.066  0.00  0.00    -0.002 C 
ATOM     25  C   UNL     1      35.497 -16.892 -22.808  0.00  0.00    +0.000 C 
ATOM     26  C   UNL     1      35.350 -18.806 -24.273  0.00  0.00    -0.003 C 
ATOM     27  C   UNL     1      34.874 -16.090 -23.779  0.00  0.00    +0.031 C 
ATOM     28  C   UNL     1      34.485 -16.656 -25.012  0.00  0.00    +0.004 C 
ATOM     29  C   UNL     1      34.730 -18.020 -25.245  0.00  0.00    -0.000 C 
ATOM     30  C   UNL     1      34.614 -14.733 -23.584  0.00  0.00    +0.125 C 
ATOM     31  C   UNL     1      33.866 -15.841 -25.966  0.00  0.00    +0.021 C 
ATOM     32  C   UNL     1      33.660 -14.505 -25.660  0.00  0.00    +0.100 C 
ATOM     33  H   UNL     1      34.813 -13.171 -22.206  0.00  0.00    +0.144 HD
ATOM     34  H   UNL     1      35.429 -14.663 -21.658  0.00  0.00    +0.144 HD
ENDBRANCH  21  24
ENDBRANCH   2  21
TORSDOF 5
ENDMDL
MODEL 2
REMARK VINA RESULT:     -12.0      3.008     10.674
REMARK  Name = 445480
REMARK  5 active torsions:
REMARK  status: ('A' for Active; 'I' for Inactive)
REMARK    1  A    between atoms: N_2  and  C_21
REMARK    2  A    between atoms: C_3  and  N_7
REMARK    3  A    between atoms: N_7  and  S_9
REMARK    4  A    between atoms: S_9  and  C_14
REMARK    5  A    between atoms: C_21  and  C_24
REMARK                            x       y       z     vdW  Elec       q    Type
REMARK                         _______ _______ _______ _____ _____    ______ ____
ROOT
ATOM      1  O   UNL     1      36.434 -21.236 -20.477  0.00  0.00    -0.273 OA
ATOM      2  N   UNL     1      34.290 -21.952 -19.825  0.00  0.00    -0.274 N 
ATOM      3  C   UNL     1      34.457 -19.877 -20.873  0.00  0.00    +0.153 C 
ATOM      4  C   UNL     1      33.018 -20.372 -20.950  0.00  0.00    +0.048 C 
ATOM      5  C   UNL     1      32.946 -21.426 -19.860  0.00  0.00    +0.096 C 
ATOM      6  C   UNL     1      35.223 -21.086 -20.396  0.00  0.00    +0.242 C 
ENDROOT
BRANCH   3   7
ATOM      7  N   UNL     1      34.950 -19.479 -22.196  0.00  0.00    -0.171 NA
ATOM      8  H   UNL     1      35.441 -20.281 -22.591  0.00  0.00    +0.149 HD
BRANCH   7   9
ATOM      9  S   UNL     1      36.012 -18.135 -22.291  0.00  0.00    +0.066 S 
ATOM     10  O   UNL     1      37.278 -18.566 -22.854  0.00  0.00    -0.152 OA
ATOM     11  O   UNL     1      35.953 -17.395 -21.046  0.00  0.00    -0.152 OA
BRANCH   9  14
ATOM     12  S   UNL     1      35.017 -15.452 -22.870  0.00  0.00    -0.066 S 
ATOM     13  N   UNL     1      34.043 -15.768 -26.623  0.00  0.00    -0.243 NA
ATOM     14  C   UNL     1      35.318 -16.999 -23.492  0.00  0.00    +0.153 C 
ATOM     15  C   UNL     1      34.991 -17.148 -24.795  0.00  0.00    +0.046 C 
ATOM     16  C   UNL     1      34.462 -15.939 -25.339  0.00  0.00    +0.089 C 
ATOM     17  C   UNL     1      34.417 -14.918 -24.390  0.00  0.00    +0.048 C 
ATOM     18  C   UNL     1      33.926 -13.652 -24.743  0.00  0.00    +0.010 C 
ATOM     19  C   UNL     1      33.497 -13.472 -26.050  0.00  0.00    +0.021 C 
ATOM     20  C   UNL     1      33.576 -14.540 -26.926  0.00  0.00    +0.099 C 
ENDBRANCH   9  14
ENDBRANCH   7   9
ENDBRANCH   3   7
BRANCH   2  21
ATOM     21  C   UNL     1      34.601 -23.191 -19.145  0.00  0.00    +0.120 C 
BRANCH  21  24
ATOM     22  N   UNL     1      30.026 -23.110 -14.969  0.00  0.00    -0.230 NA
ATOM     23  N   UNL     1      29.775 -23.009 -17.308  0.00  0.00    -0.343 N 
ATOM     24  C   UNL     1      33.979 -23.212 -17.777  0.00  0.00    -0.002 C 
ATOM     25  C   UNL     1      32.598 -23.144 -17.650  0.00  0.00    +0.000 C 
ATOM     26  C   UNL     1      34.793 -23.296 -16.657  0.00  0.00    -0.003 C 
ATOM     27  C   UNL     1      32.010 -23.161 -16.375  0.00  0.00    +0.031 C 
ATOM     28  C   UNL     1      32.827 -23.246 -15.228  0.00  0.00    +0.004 C 
ATOM     29  C   UNL     1      34.221 -23.313 -15.385  0.00  0.00    -0.000 C 
ATOM     30  C   UNL     1      30.630 -23.096 -16.179  0.00  0.00    +0.125 C 
ATOM     31  C   UNL     1      32.222 -23.262 -13.965  0.00  0.00    +0.021 C 
ATOM     32  C   UNL     1      30.839 -23.193 -13.894  0.00  0.00    +0.100 C 
ATOM     33  H   UNL     1      28.799 -22.962 -17.185  0.00  0.00    +0.144 HD
ATOM     34  H   UNL     1      30.158 -22.995 -18.215  0.00  0.00    +0.144 HD
ENDBRANCH  21  24
ENDBRANCH   2  21
TORSDOF 5
ENDMDL
MODEL 3
REMARK VINA RESULT:     -11.9      4.779     10.118
REMARK  Name = 445480
REMARK  5 active torsions:
REMARK  status: ('A' for Active; 'I' for Inactive)
REMARK    1  A    between atoms: N_2  and  C_21
REMARK    2  A    between atoms: C_3  and  N_7
REMARK    3  A    between atoms: N_7  and  S_9
REMARK    4  A    between atoms: S_9  and  C_14
REMARK    5  A    between atoms: C_21  and  C_24
REMARK                            x       y       z     vdW  Elec       q    Type
REMARK                         _______ _______ _______ _____ _____    ______ ____
ROOT
ATOM      1  O   UNL     1      35.653 -16.340 -21.328  0.00  0.00    -0.273 OA
ATOM      2  N   UNL     1      36.014 -17.953 -23.001  0.00  0.00    -0.274 N 
ATOM      3  C   UNL     1      34.759 -16.074 -23.572  0.00  0.00    +0.153 C 
ATOM      4  C   UNL     1      35.276 -16.746 -24.838  0.00  0.00    +0.048 C 
ATOM      5  C   UNL     1      35.628 -18.148 -24.379  0.00  0.00    +0.096 C 
ATOM      6  C   UNL     1      35.527 -16.759 -22.469  0.00  0.00    +0.242 C 
ENDROOT
BRANCH   3   7
ATOM      7  N   UNL     1      35.074 -14.641 -23.568  0.00  0.00    -0.171 NA
ATOM      8  H   UNL     1      35.245 -14.370 -22.599  0.00  0.00    +0.149 HD
BRANCH   7   9
ATOM      9  S   UNL     1      33.907 -13.556 -24.201  0.00  0.00    +0.066 S 
ATOM     10  O   UNL     1      32.829 -14.315 -24.809  0.00  0.00    -0.152 OA
ATOM     11  O   UNL     1      34.585 -12.499 -24.925  0.00  0.00    -0.152 OA
BRANCH   9  14
ATOM     12  S   UNL     1      33.069 -13.653 -21.406  0.00  0.00    -0.066 S 
ATOM     13  N   UNL     1      31.620 -10.079 -20.896  0.00  0.00    -0.243 NA
ATOM     14  C   UNL     1      33.165 -12.706 -22.807  0.00  0.00    +0.153 C 
ATOM     15  C   UNL     1      32.671 -11.456 -22.670  0.00  0.00    +0.046 C 
ATOM     16  C   UNL     1      32.179 -11.235 -21.348  0.00  0.00    +0.089 C 
ATOM     17  C   UNL     1      32.333 -12.363 -20.541  0.00  0.00    +0.048 C 
ATOM     18  C   UNL     1      31.907 -12.333 -19.205  0.00  0.00    +0.010 C 
ATOM     19  C   UNL     1      31.336 -11.157 -18.738  0.00  0.00    +0.021 C 
ATOM     20  C   UNL     1      31.221 -10.088 -19.608  0.00  0.00    +0.099 C 
ENDBRANCH   9  14
ENDBRANCH   7   9
ENDBRANCH   3   7
BRANCH   2  21
ATOM     21  C   UNL     1      36.720 -18.975 -22.260  0.00  0.00    +0.120 C 
BRANCH  21  24
ATOM     22  N   UNL     1      34.932 -22.857 -17.775  0.00  0.00    -0.230 NA
ATOM     23  N   UNL     1      37.134 -22.136 -18.193  0.00  0.00    -0.343 N 
ATOM     24  C   UNL     1      35.759 -19.792 -21.442  0.00  0.00    -0.002 C 
ATOM     25  C   UNL     1      36.236 -20.552 -20.382  0.00  0.00    +0.000 C 
ATOM     26  C   UNL     1      34.409 -19.779 -21.759  0.00  0.00    -0.003 C 
ATOM     27  C   UNL     1      35.344 -21.320 -19.615  0.00  0.00    +0.031 C 
ATOM     28  C   UNL     1      33.968 -21.315 -19.926  0.00  0.00    +0.004 C 
ATOM     29  C   UNL     1      33.514 -20.538 -21.004  0.00  0.00    -0.000 C 
ATOM     30  C   UNL     1      35.758 -22.105 -18.537  0.00  0.00    +0.125 C 
ATOM     31  C   UNL     1      33.096 -22.087 -19.149  0.00  0.00    +0.021 C 
ATOM     32  C   UNL     1      33.622 -22.827 -18.102  0.00  0.00    +0.100 C 
ATOM     33  H   UNL     1      37.440 -22.686 -17.436  0.00  0.00    +0.144 HD
ATOM     34  H   UNL     1      37.783 -21.608 -18.713  0.00  0.00    +0.144 HD
ENDBRANCH  21  24
ENDBRANCH   2  21
TORSDOF 5
ENDMDL
MODEL 4
REMARK VINA RESULT:     -11.9      2.867     10.908
REMARK  Name = 445480
REMARK  5 active torsions:
REMARK  status: ('A' for Active; 'I' for Inactive)
REMARK    1  A    between atoms: N_2  and  C_21
REMARK    2  A    between atoms: C_3  and  N_7
REMARK    3  A    between atoms: N_7  and  S_9
REMARK    4  A    between atoms: S_9  and  C_14
REMARK    5  A    between atoms: C_21  and  C_24
REMARK                            x       y       z     vdW  Elec       q    Type
REMARK                         _______ _______ _______ _____ _____    ______ ____
ROOT
ATOM      1  O   UNL     1      36.535 -20.863 -20.212  0.00  0.00    -0.273 OA
ATOM      2  N   UNL     1      34.454 -21.765 -19.591  0.00  0.00    -0.274 N 
ATOM      3  C   UNL     1      34.442 -19.870 -20.947  0.00  0.00    +0.153 C 
ATOM      4  C   UNL     1      33.090 -20.568 -21.034  0.00  0.00    +0.048 C 
ATOM      5  C   UNL     1      33.061 -21.444 -19.796  0.00  0.00    +0.096 C 
ATOM      6  C   UNL     1      35.313 -20.874 -20.233  0.00  0.00    +0.242 C 
ENDROOT
BRANCH   3   7
ATOM      7  N   UNL     1      34.990 -19.611 -22.283  0.00  0.00    -0.171 NA
ATOM      8  H   UNL     1      35.460 -20.464 -22.589  0.00  0.00    +0.149 HD
BRANCH   7   9
ATOM      9  S   UNL     1      36.107 -18.323 -22.461  0.00  0.00    +0.066 S 
ATOM     10  O   UNL     1      37.297 -18.811 -23.133  0.00  0.00    -0.152 OA
ATOM     11  O   UNL     1      36.194 -17.593 -21.211  0.00  0.00    -0.152 OA
BRANCH   9  14
ATOM     12  S   UNL     1      35.122 -15.611 -22.907  0.00  0.00    -0.066 S 
ATOM     13  N   UNL     1      33.967 -15.794 -26.617  0.00  0.00    -0.243 NA
ATOM     14  C   UNL     1      35.372 -17.140 -23.591  0.00  0.00    +0.153 C 
ATOM     15  C   UNL     1      34.982 -17.243 -24.881  0.00  0.00    +0.046 C 
ATOM     16  C   UNL     1      34.445 -16.012 -25.361  0.00  0.00    +0.089 C 
ATOM     17  C   UNL     1      34.458 -15.020 -24.378  0.00  0.00    +0.048 C 
ATOM     18  C   UNL     1      33.968 -13.738 -24.668  0.00  0.00    +0.010 C 
ATOM     19  C   UNL     1      33.480 -13.511 -25.947  0.00  0.00    +0.021 C 
ATOM     20  C   UNL     1      33.503 -14.551 -26.858  0.00  0.00    +0.099 C 
ENDBRANCH   9  14
ENDBRANCH   7   9
ENDBRANCH   3   7
BRANCH   2  21
ATOM     21  C   UNL     1      34.862 -22.832 -18.702  0.00  0.00    +0.120 C 
BRANCH  21  24
ATOM     22  N   UNL     1      32.623 -24.689 -13.233  0.00  0.00    -0.230 NA
ATOM     23  N   UNL     1      34.858 -24.865 -13.952  0.00  0.00    -0.343 N 
ATOM     24  C   UNL     1      33.822 -23.059 -17.640  0.00  0.00    -0.002 C 
ATOM     25  C   UNL     1      34.188 -23.653 -16.440  0.00  0.00    +0.000 C 
ATOM     26  C   UNL     1      32.510 -22.676 -17.874  0.00  0.00    -0.003 C 
ATOM     27  C   UNL     1      33.222 -23.871 -15.443  0.00  0.00    +0.031 C 
ATOM     28  C   UNL     1      31.884 -23.485 -15.668  0.00  0.00    +0.004 C 
ATOM     29  C   UNL     1      31.542 -22.887 -16.893  0.00  0.00    -0.000 C 
ATOM     30  C   UNL     1      33.523 -24.463 -14.216  0.00  0.00    +0.125 C 
ATOM     31  C   UNL     1      30.936 -23.711 -14.664  0.00  0.00    +0.021 C 
ATOM     32  C   UNL     1      31.353 -24.307 -13.483  0.00  0.00    +0.100 C 
ATOM     33  H   UNL     1      35.085 -25.284 -13.090  0.00  0.00    +0.144 HD
ATOM     34  H   UNL     1      35.557 -24.725 -14.631  0.00  0.00    +0.144 HD
ENDBRANCH  21  24
ENDBRANCH   2  21
TORSDOF 5
ENDMDL
MODEL 5
REMARK VINA RESULT:     -11.6      2.809     10.584
REMARK  Name = 445480
REMARK  5 active torsions:
REMARK  status: ('A' for Active; 'I' for Inactive)
REMARK    1  A    between atoms: N_2  and  C_21
REMARK    2  A    between atoms: C_3  and  N_7
REMARK    3  A    between atoms: N_7  and  S_9
REMARK    4  A    between atoms: S_9  and  C_14
REMARK    5  A    between atoms: C_21  and  C_24
REMARK                            x       y       z     vdW  Elec       q    Type
REMARK                         _______ _______ _______ _____ _____    ______ ____
ROOT
ATOM      1  O   UNL     1      32.672 -20.380 -20.376  0.00  0.00    -0.273 OA
ATOM      2  N   UNL     1      34.052 -21.947 -19.294  0.00  0.00    -0.274 N 
ATOM      3  C   UNL     1      34.985 -20.720 -21.041  0.00  0.00    +0.153 C 
ATOM      4  C   UNL     1      36.097 -21.310 -20.182  0.00  0.00    +0.048 C 
ATOM      5  C   UNL     1      35.407 -22.430 -19.427  0.00  0.00    +0.096 C 
ATOM      6  C   UNL     1      33.742 -20.950 -20.218  0.00  0.00    +0.242 C 
ENDROOT
BRANCH   3   7
ATOM      7  N   UNL     1      35.179 -19.279 -21.239  0.00  0.00    -0.171 NA
ATOM      8  H   UNL     1      34.253 -18.849 -21.266  0.00  0.00    +0.149 HD
BRANCH   7   9
ATOM      9  S   UNL     1      36.021 -18.763 -22.640  0.00  0.00    +0.066 S 
ATOM     10  O   UNL     1      35.641 -19.599 -23.762  0.00  0.00    -0.152 OA
ATOM     11  O   UNL     1      37.414 -18.544 -22.302  0.00  0.00    -0.152 OA
BRANCH   9  14
ATOM     12  S   UNL     1      34.995 -16.933 -24.670  0.00  0.00    -0.066 S 
ATOM     13  N   UNL     1      34.454 -13.684 -22.599  0.00  0.00    -0.243 NA
ATOM     14  C   UNL     1      35.421 -17.122 -23.042  0.00  0.00    +0.153 C 
ATOM     15  C   UNL     1      35.247 -16.012 -22.288  0.00  0.00    +0.046 C 
ATOM     16  C   UNL     1      34.736 -14.932 -23.067  0.00  0.00    +0.089 C 
ATOM     17  C   UNL     1      34.548 -15.295 -24.402  0.00  0.00    +0.048 C 
ATOM     18  C   UNL     1      34.049 -14.360 -25.320  0.00  0.00    +0.010 C 
ATOM     19  C   UNL     1      33.761 -13.087 -24.849  0.00  0.00    +0.021 C 
ATOM     20  C   UNL     1      33.978 -12.813 -23.511  0.00  0.00    +0.099 C 
ENDBRANCH   9  14
ENDBRANCH   7   9
ENDBRANCH   3   7
BRANCH   2  21
ATOM     21  C   UNL     1      33.119 -22.556 -18.371  0.00  0.00    +0.120 C 
BRANCH  21  24
ATOM     22  N   UNL     1      37.916 -23.473 -14.559  0.00  0.00    -0.230 NA
ATOM     23  N   UNL     1      38.026 -22.629 -16.755  0.00  0.00    -0.343 N 
ATOM     24  C   UNL     1      33.818 -22.958 -17.102  0.00  0.00    -0.002 C 
ATOM     25  C   UNL     1      35.199 -22.840 -17.014  0.00  0.00    +0.000 C 
ATOM     26  C   UNL     1      33.075 -23.443 -16.036  0.00  0.00    -0.003 C 
ATOM     27  C   UNL     1      35.859 -23.215 -15.832  0.00  0.00    +0.031 C 
ATOM     28  C   UNL     1      35.116 -23.711 -14.740  0.00  0.00    +0.004 C 
ATOM     29  C   UNL     1      33.720 -23.820 -14.857  0.00  0.00    -0.000 C 
ATOM     30  C   UNL     1      37.243 -23.122 -15.679  0.00  0.00    +0.125 C 
ATOM     31  C   UNL     1      35.793 -24.080 -13.572  0.00  0.00    +0.021 C 
ATOM     32  C   UNL     1      37.171 -23.942 -13.535  0.00  0.00    +0.100 C 
ATOM     33  H   UNL     1      39.004 -22.558 -16.661  0.00  0.00    +0.144 HD
ATOM     34  H   UNL     1      37.592 -22.358 -17.595  0.00  0.00    +0.144 HD
ENDBRANCH  21  24
ENDBRANCH   2  21
TORSDOF 5
ENDMDL
MODEL 6
REMARK VINA RESULT:     -11.4      5.988     11.713
REMARK  Name = 445480
REMARK  5 active torsions:
REMARK  status: ('A' for Active; 'I' for Inactive)
REMARK    1  A    between atoms: N_2  and  C_21
REMARK    2  A    between atoms: C_3  and  N_7
REMARK    3  A    between atoms: N_7  and  S_9
REMARK    4  A    between atoms: S_9  and  C_14
REMARK    5  A    between atoms: C_21  and  C_24
REMARK                            x       y       z     vdW  Elec       q    Type
REMARK                         _______ _______ _______ _____ _____    ______ ____
ROOT
ATOM      1  O   UNL     1      34.083 -14.356 -24.397  0.00  0.00    -0.273 OA
ATOM      2  N   UNL     1      34.806 -15.754 -22.650  0.00  0.00    -0.274 N 
ATOM      3  C   UNL     1      33.944 -13.668 -22.071  0.00  0.00    +0.153 C 
ATOM      4  C   UNL     1      33.916 -14.586 -20.855  0.00  0.00    +0.048 C 
ATOM      5  C   UNL     1      34.907 -15.678 -21.211  0.00  0.00    +0.096 C 
ATOM      6  C   UNL     1      34.257 -14.602 -23.213  0.00  0.00    +0.242 C 
ENDROOT
BRANCH   3   7
ATOM      7  N   UNL     1      32.633 -13.047 -22.294  0.00  0.00    -0.171 NA
ATOM      8  H   UNL     1      32.694 -12.512 -23.160  0.00  0.00    +0.149 HD
BRANCH   7   9
ATOM      9  S   UNL     1      32.022 -11.994 -21.087  0.00  0.00    +0.066 S 
ATOM     10  O   UNL     1      32.874 -12.066 -19.914  0.00  0.00    -0.152 OA
ATOM     11  O   UNL     1      30.587 -12.168 -20.987  0.00  0.00    -0.152 OA
BRANCH   9  14
ATOM     12  S   UNL     1      32.273  -9.148 -20.486  0.00  0.00    -0.066 S 
ATOM     13  N   UNL     1      32.544  -7.613 -24.050  0.00  0.00    -0.243 NA
ATOM     14  C   UNL     1      32.204 -10.321 -21.706  0.00  0.00    +0.153 C 
ATOM     15  C   UNL     1      32.295  -9.826 -22.961  0.00  0.00    +0.046 C 
ATOM     16  C   UNL     1      32.430  -8.405 -22.949  0.00  0.00    +0.089 C 
ATOM     17  C   UNL     1      32.433  -7.893 -21.650  0.00  0.00    +0.048 C 
ATOM     18  C   UNL     1      32.558  -6.512 -21.440  0.00  0.00    +0.010 C 
ATOM     19  C   UNL     1      32.674  -5.700 -22.560  0.00  0.00    +0.021 C 
ATOM     20  C   UNL     1      32.662  -6.292 -23.810  0.00  0.00    +0.099 C 
ENDBRANCH   9  14
ENDBRANCH   7   9
ENDBRANCH   3   7
BRANCH   2  21
ATOM     21  C   UNL     1      35.348 -16.873 -23.389  0.00  0.00    +0.120 C 
BRANCH  21  24
ATOM     22  N   UNL     1      34.201 -21.773 -19.776  0.00  0.00    -0.230 NA
ATOM     23  N   UNL     1      32.605 -20.532 -20.983  0.00  0.00    -0.343 N 
ATOM     24  C   UNL     1      35.670 -18.011 -22.461  0.00  0.00    -0.002 C 
ATOM     25  C   UNL     1      34.647 -18.823 -21.991  0.00  0.00    +0.000 C 
ATOM     26  C   UNL     1      36.986 -18.235 -22.085  0.00  0.00    -0.003 C 
ATOM     27  C   UNL     1      34.940 -19.887 -21.122  0.00  0.00    +0.031 C 
ATOM     28  C   UNL     1      36.275 -20.126 -20.731  0.00  0.00    +0.004 C 
ATOM     29  C   UNL     1      37.291 -19.288 -21.222  0.00  0.00    -0.000 C 
ATOM     30  C   UNL     1      33.959 -20.739 -20.614  0.00  0.00    +0.125 C 
ATOM     31  C   UNL     1      36.547 -21.191 -19.865  0.00  0.00    +0.021 C 
ATOM     32  C   UNL     1      35.489 -21.971 -19.425  0.00  0.00    +0.100 C 
ATOM     33  H   UNL     1      31.902 -21.125 -20.631  0.00  0.00    +0.144 HD
ATOM     34  H   UNL     1      32.368 -19.794 -21.590  0.00  0.00    +0.144 HD
ENDBRANCH  21  24
ENDBRANCH   2  21
TORSDOF 5
ENDMDL
MODEL 7
REMARK VINA RESULT:     -11.3      2.619     10.908
REMARK  Name = 445480
REMARK  5 active torsions:
REMARK  status: ('A' for Active; 'I' for Inactive)
REMARK    1  A    between atoms: N_2  and  C_21
REMARK    2  A    between atoms: C_3  and  N_7
REMARK    3  A    between atoms: N_7  and  S_9
REMARK    4  A    between atoms: S_9  and  C_14
REMARK    5  A    between atoms: C_21  and  C_24
REMARK                            x       y       z     vdW  Elec       q    Type
REMARK                         _______ _______ _______ _____ _____    ______ ____
ROOT
ATOM      1  O   UNL     1      32.720 -20.546 -20.301  0.00  0.00    -0.273 OA
ATOM      2  N   UNL     1      34.268 -22.010 -19.306  0.00  0.00    -0.274 N 
ATOM      3  C   UNL     1      35.002 -20.740 -21.116  0.00  0.00    +0.153 C 
ATOM      4  C   UNL     1      36.204 -21.248 -20.330  0.00  0.00    +0.048 C 
ATOM      5  C   UNL     1      35.640 -22.404 -19.526  0.00  0.00    +0.096 C 
ATOM      6  C   UNL     1      33.833 -21.043 -20.211  0.00  0.00    +0.242 C 
ENDROOT
BRANCH   3   7
ATOM      7  N   UNL     1      35.087 -19.291 -21.333  0.00  0.00    -0.171 NA
ATOM      8  H   UNL     1      34.134 -18.945 -21.450  0.00  0.00    +0.149 HD
BRANCH   7   9
ATOM      9  S   UNL     1      36.001 -18.727 -22.668  0.00  0.00    +0.066 S 
ATOM     10  O   UNL     1      35.707 -19.545 -23.830  0.00  0.00    -0.152 OA
ATOM     11  O   UNL     1      37.366 -18.488 -22.242  0.00  0.00    -0.152 OA
BRANCH   9  14
ATOM     12  S   UNL     1      34.981 -16.899 -24.704  0.00  0.00    -0.066 S 
ATOM     13  N   UNL     1      34.391 -13.662 -22.628  0.00  0.00    -0.243 NA
ATOM     14  C   UNL     1      35.391 -17.089 -23.071  0.00  0.00    +0.153 C 
ATOM     15  C   UNL     1      35.200 -15.984 -22.317  0.00  0.00    +0.046 C 
ATOM     16  C   UNL     1      34.688 -14.905 -23.097  0.00  0.00    +0.089 C 
ATOM     17  C   UNL     1      34.517 -15.266 -24.435  0.00  0.00    +0.048 C 
ATOM     18  C   UNL     1      34.020 -14.332 -25.356  0.00  0.00    +0.010 C 
ATOM     19  C   UNL     1      33.716 -13.063 -24.883  0.00  0.00    +0.021 C 
ATOM     20  C   UNL     1      33.917 -12.791 -23.542  0.00  0.00    +0.099 C 
ENDBRANCH   9  14
ENDBRANCH   7   9
ENDBRANCH   3   7
BRANCH   2  21
ATOM     21  C   UNL     1      33.440 -22.670 -18.320  0.00  0.00    +0.120 C 
BRANCH  21  24
ATOM     22  N   UNL     1      34.457 -24.758 -12.576  0.00  0.00    -0.230 NA
ATOM     23  N   UNL     1      32.450 -24.956 -13.792  0.00  0.00    -0.343 N 
ATOM     24  C   UNL     1      34.222 -22.929 -17.062  0.00  0.00    -0.002 C 
ATOM     25  C   UNL     1      33.618 -23.596 -16.005  0.00  0.00    +0.000 C 
ATOM     26  C   UNL     1      35.537 -22.497 -16.974  0.00  0.00    -0.003 C 
ATOM     27  C   UNL     1      34.342 -23.840 -14.826  0.00  0.00    +0.031 C 
ATOM     28  C   UNL     1      35.680 -23.406 -14.722  0.00  0.00    +0.004 C 
ATOM     29  C   UNL     1      36.266 -22.733 -15.808  0.00  0.00    -0.000 C 
ATOM     30  C   UNL     1      33.794 -24.504 -13.727  0.00  0.00    +0.125 C 
ATOM     31  C   UNL     1      36.384 -23.658 -13.539  0.00  0.00    +0.021 C 
ATOM     32  C   UNL     1      35.735 -24.328 -12.514  0.00  0.00    +0.100 C 
ATOM     33  H   UNL     1      32.051 -25.426 -13.025  0.00  0.00    +0.144 HD
ATOM     34  H   UNL     1      31.918 -24.800 -14.606  0.00  0.00    +0.144 HD
ENDBRANCH  21  24
ENDBRANCH   2  21
TORSDOF 5
ENDMDL
MODEL 8
REMARK VINA RESULT:     -11.1      8.015     11.783
REMARK  Name = 445480
REMARK  5 active torsions:
REMARK  status: ('A' for Active; 'I' for Inactive)
REMARK    1  A    between atoms: N_2  and  C_21
REMARK    2  A    between atoms: C_3  and  N_7
REMARK    3  A    between atoms: N_7  and  S_9
REMARK    4  A    between atoms: S_9  and  C_14
REMARK    5  A    between atoms: C_21  and  C_24
REMARK                            x       y       z     vdW  Elec       q    Type
REMARK                         _______ _______ _______ _____ _____    ______ ____
ROOT
ATOM      1  O   UNL     1      35.890  -9.553 -24.412  0.00  0.00    -0.273 OA
ATOM      2  N   UNL     1      34.045  -8.663 -23.257  0.00  0.00    -0.274 N 
ATOM      3  C   UNL     1      33.763 -10.723 -24.309  0.00  0.00    +0.153 C 
ATOM      4  C   UNL     1      32.674 -10.534 -23.259  0.00  0.00    +0.048 C 
ATOM      5  C   UNL     1      32.670  -9.037 -23.017  0.00  0.00    +0.096 C 
ATOM      6  C   UNL     1      34.735  -9.608 -24.017  0.00  0.00    +0.242 C 
ENDROOT
BRANCH   3   7
ATOM      7  N   UNL     1      34.438 -12.015 -24.143  0.00  0.00    -0.171 NA
ATOM      8  H   UNL     1      35.384 -11.913 -24.513  0.00  0.00    +0.149 HD
BRANCH   7   9
ATOM      9  S   UNL     1      33.745 -13.391 -24.894  0.00  0.00    +0.066 S 
ATOM     10  O   UNL     1      34.210 -13.473 -26.266  0.00  0.00    -0.152 OA
ATOM     11  O   UNL     1      32.332 -13.445 -24.574  0.00  0.00    -0.152 OA
BRANCH   9  14
ATOM     12  S   UNL     1      34.748 -16.123 -25.126  0.00  0.00    -0.066 S 
ATOM     13  N   UNL     1      35.629 -16.952 -21.428  0.00  0.00    -0.243 NA
ATOM     14  C   UNL     1      34.420 -14.836 -24.075  0.00  0.00    +0.153 C 
ATOM     15  C   UNL     1      34.713 -15.086 -22.779  0.00  0.00    +0.046 C 
ATOM     16  C   UNL     1      35.239 -16.402 -22.611  0.00  0.00    +0.089 C 
ATOM     17  C   UNL     1      35.315 -17.090 -23.823  0.00  0.00    +0.048 C 
ATOM     18  C   UNL     1      35.810 -18.402 -23.855  0.00  0.00    +0.010 C 
ATOM     19  C   UNL     1      36.209 -18.968 -22.652  0.00  0.00    +0.021 C 
ATOM     20  C   UNL     1      36.099 -18.214 -21.497  0.00  0.00    +0.099 C 
ENDBRANCH   9  14
ENDBRANCH   7   9
ENDBRANCH   3   7
BRANCH   2  21
ATOM     21  C   UNL     1      34.564  -7.379 -22.841  0.00  0.00    +0.120 C 
BRANCH  21  24
ATOM     22  N   UNL     1      30.687  -2.804 -24.396  0.00  0.00    -0.230 NA
ATOM     23  N   UNL     1      30.609  -4.080 -22.419  0.00  0.00    -0.343 N 
ATOM     24  C   UNL     1      33.996  -6.279 -23.695  0.00  0.00    -0.002 C 
ATOM     25  C   UNL     1      32.885  -5.573 -23.254  0.00  0.00    +0.000 C 
ATOM     26  C   UNL     1      34.588  -5.986 -24.914  0.00  0.00    -0.003 C 
ATOM     27  C   UNL     1      32.348  -4.546 -24.047  0.00  0.00    +0.031 C 
ATOM     28  C   UNL     1      32.940  -4.237 -25.290  0.00  0.00    +0.004 C 
ATOM     29  C   UNL     1      34.064  -4.968 -25.712  0.00  0.00    -0.000 C 
ATOM     30  C   UNL     1      31.234  -3.799 -23.662  0.00  0.00    +0.125 C 
ATOM     31  C   UNL     1      32.390  -3.210 -26.065  0.00  0.00    +0.021 C 
ATOM     32  C   UNL     1      31.281  -2.536 -25.579  0.00  0.00    +0.100 C 
ATOM     33  H   UNL     1      29.822  -3.561 -22.135  0.00  0.00    +0.144 HD
ATOM     34  H   UNL     1      30.963  -4.794 -21.841  0.00  0.00    +0.144 HD
ENDBRANCH  21  24
ENDBRANCH   2  21
TORSDOF 5
ENDMDL
MODEL 9
REMARK VINA RESULT:     -11.0      2.629      3.285
REMARK  Name = 445480
REMARK  5 active torsions:
REMARK  status: ('A' for Active; 'I' for Inactive)
REMARK    1  A    between atoms: N_2  and  C_21
REMARK    2  A    between atoms: C_3  and  N_7
REMARK    3  A    between atoms: N_7  and  S_9
REMARK    4  A    between atoms: S_9  and  C_14
REMARK    5  A    between atoms: C_21  and  C_24
REMARK                            x       y       z     vdW  Elec       q    Type
REMARK                         _______ _______ _______ _____ _____    ______ ____
ROOT
ATOM      1  O   UNL     1      37.048 -20.951 -20.088  0.00  0.00    -0.273 OA
ATOM      2  N   UNL     1      35.603 -19.739 -21.493  0.00  0.00    -0.274 N 
ATOM      3  C   UNL     1      34.668 -21.435 -20.197  0.00  0.00    +0.153 C 
ATOM      4  C   UNL     1      33.571 -20.485 -20.661  0.00  0.00    +0.048 C 
ATOM      5  C   UNL     1      34.200 -19.762 -21.837  0.00  0.00    +0.096 C 
ATOM      6  C   UNL     1      35.941 -20.703 -20.543  0.00  0.00    +0.242 C 
ENDROOT
BRANCH   3   7
ATOM      7  N   UNL     1      34.606 -21.645 -18.746  0.00  0.00    -0.171 NA
ATOM      8  H   UNL     1      35.513 -21.377 -18.361  0.00  0.00    +0.149 HD
BRANCH   7   9
ATOM      9  S   UNL     1      34.257 -23.223 -18.173  0.00  0.00    +0.066 S 
ATOM     10  O   UNL     1      35.158 -23.545 -17.082  0.00  0.00    -0.152 OA
ATOM     11  O   UNL     1      34.096 -24.114 -19.305  0.00  0.00    -0.152 OA
BRANCH   9  14
ATOM     12  S   UNL     1      32.465 -24.126 -16.053  0.00  0.00    -0.066 S 
ATOM     13  N   UNL     1      29.169 -22.271 -16.967  0.00  0.00    -0.243 NA
ATOM     14  C   UNL     1      32.621 -23.168 -17.441  0.00  0.00    +0.153 C 
ATOM     15  C   UNL     1      31.495 -22.506 -17.791  0.00  0.00    +0.046 C 
ATOM     16  C   UNL     1      30.428 -22.784 -16.885  0.00  0.00    +0.089 C 
ATOM     17  C   UNL     1      30.818 -23.664 -15.875  0.00  0.00    +0.048 C 
ATOM     18  C   UNL     1      29.900 -24.053 -14.889  0.00  0.00    +0.010 C 
ATOM     19  C   UNL     1      28.615 -23.533 -14.967  0.00  0.00    +0.021 C 
ATOM     20  C   UNL     1      28.314 -22.667 -16.003  0.00  0.00    +0.099 C 
ENDBRANCH   9  14
ENDBRANCH   7   9
ENDBRANCH   3   7
BRANCH   2  21
ATOM     21  C   UNL     1      36.538 -18.877 -22.183  0.00  0.00    +0.120 C 
BRANCH  21  24
ATOM     22  N   UNL     1      33.851 -13.733 -24.351  0.00  0.00    -0.230 NA
ATOM     23  N   UNL     1      34.844 -13.995 -22.233  0.00  0.00    -0.343 N 
ATOM     24  C   UNL     1      35.819 -18.008 -23.177  0.00  0.00    -0.002 C 
ATOM     25  C   UNL     1      35.511 -16.696 -22.843  0.00  0.00    +0.000 C 
ATOM     26  C   UNL     1      35.470 -18.528 -24.414  0.00  0.00    -0.003 C 
ATOM     27  C   UNL     1      34.837 -15.878 -23.765  0.00  0.00    +0.031 C 
ATOM     28  C   UNL     1      34.476 -16.394 -25.027  0.00  0.00    +0.004 C 
ATOM     29  C   UNL     1      34.800 -17.726 -25.339  0.00  0.00    -0.000 C 
ATOM     30  C   UNL     1      34.498 -14.552 -23.491  0.00  0.00    +0.125 C 
ATOM     31  C   UNL     1      33.805 -15.564 -25.932  0.00  0.00    +0.021 C 
ATOM     32  C   UNL     1      33.522 -14.262 -25.550  0.00  0.00    +0.100 C 
ATOM     33  H   UNL     1      34.611 -13.062 -22.026  0.00  0.00    +0.144 HD
ATOM     34  H   UNL     1      35.316 -14.544 -21.566  0.00  0.00    +0.144 HD
ENDBRANCH  21  24
ENDBRANCH   2  21
TORSDOF 5
ENDMDL
