MODEL 1
REMARK VINA RESULT:     -11.0      0.000      0.000
REMARK  Name = 11609586
REMARK  6 active torsions:
REMARK  status: ('A' for Active; 'I' for Inactive)
REMARK    1  A    between atoms: N_1  and  C_3
REMARK    2  A    between atoms: N_1  and  C_17
REMARK    3  A    between atoms: C_6  and  N_9
REMARK    4  A    between atoms: N_9  and  C_12
REMARK    5  A    between atoms: C_17  and  C_18
REMARK    6  A    between atoms: C_18  and  C_20
REMARK                            x       y       z     vdW  Elec       q    Type
REMARK                         _______ _______ _______ _____ _____    ______ ____
ROOT
ATOM      1  N   UNL     1      36.193 -19.158 -21.720  0.00  0.00    -0.332 N 
ATOM      2  H   UNL     1      37.175 -19.231 -21.712  0.00  0.00    +0.147 HD
ENDROOT
BRANCH   1   3
ATOM      3  C   UNL     1      35.463 -20.096 -21.001  0.00  0.00    +0.045 C 
ATOM      4  C   UNL     1      34.057 -20.096 -21.040  0.00  0.00    +0.016 C 
ATOM      5  C   UNL     1      36.112 -21.067 -20.218  0.00  0.00    +0.016 C 
ATOM      6  C   UNL     1      33.985 -21.995 -19.547  0.00  0.00    +0.048 C 
ATOM      7  C   UNL     1      33.325 -21.038 -20.317  0.00  0.00    +0.016 C 
ATOM      8  C   UNL     1      35.379 -22.009 -19.497  0.00  0.00    +0.016 C 
BRANCH   6   9
ATOM      9  N   UNL     1      33.244 -22.948 -18.819  0.00  0.00    -0.312 N 
ATOM     10  H   UNL     1      32.835 -23.646 -19.381  0.00  0.00    +0.152 HD
BRANCH   9  12
ATOM     11  N   UNL     1      32.435 -23.396 -14.717  0.00  0.00    -0.242 NA
ATOM     12  C   UNL     1      32.972 -23.098 -17.445  0.00  0.00    +0.051 C 
ATOM     13  C   UNL     1      33.987 -23.468 -16.569  0.00  0.00    +0.035 C 
ATOM     14  C   UNL     1      31.688 -22.877 -16.957  0.00  0.00    +0.035 C 
ATOM     15  C   UNL     1      33.670 -23.603 -15.226  0.00  0.00    +0.100 C 
ATOM     16  C   UNL     1      31.474 -23.037 -15.598  0.00  0.00    +0.100 C 
ENDBRANCH   9  12
ENDBRANCH   6   9
ENDBRANCH   1   3
BRANCH   1  17
ATOM     17  C   UNL     1      35.600 -18.087 -22.473  0.00  0.00    +0.092 C 
BRANCH  17  18
ATOM     18  C   UNL     1      35.471 -16.796 -21.644  0.00  0.00    +0.049 C 
BRANCH  18  20
ATOM     19  N   UNL     1      34.469 -14.216 -24.026  0.00  0.00    -0.312 N 
ATOM     20  C   UNL     1      34.909 -15.654 -22.393  0.00  0.00    -0.005 C 
ATOM     21  C   UNL     1      33.995 -14.682 -21.898  0.00  0.00    +0.011 C 
ATOM     22  C   UNL     1      33.735 -13.792 -22.942  0.00  0.00    +0.048 C 
ATOM     23  C   UNL     1      35.182 -15.339 -23.705  0.00  0.00    +0.058 C 
ATOM     24  C   UNL     1      33.361 -14.474 -20.657  0.00  0.00    +0.001 C 
ATOM     25  C   UNL     1      32.871 -12.700 -22.807  0.00  0.00    +0.015 C 
ATOM     26  C   UNL     1      32.493 -13.386 -20.507  0.00  0.00    +0.000 C 
ATOM     27  C   UNL     1      32.253 -12.514 -21.568  0.00  0.00    +0.001 C 
ATOM     28  H   UNL     1      34.481 -13.775 -24.907  0.00  0.00    +0.152 HD
ENDBRANCH  18  20
ENDBRANCH  17  18
ENDBRANCH   1  17
TORSDOF 6
ENDMDL
MODEL 2
REMARK VINA RESULT:     -11.0      0.064      1.350
REMARK  Name = 11609586
REMARK  6 active torsions:
REMARK  status: ('A' for Active; 'I' for Inactive)
REMARK    1  A    between atoms: N_1  and  C_3
REMARK    2  A    between atoms: N_1  and  C_17
REMARK    3  A    between atoms: C_6  and  N_9
REMARK    4  A    between atoms: N_9  and  C_12
REMARK    5  A    between atoms: C_17  and  C_18
REMARK    6  A    between atoms: C_18  and  C_20
REMARK                            x       y       z     vdW  Elec       q    Type
REMARK                         _______ _______ _______ _____ _____    ______ ____
ROOT
ATOM      1  N   UNL     1      36.194 -19.195 -21.737  0.00  0.00    -0.332 N 
ATOM      2  H   UNL     1      37.176 -19.281 -21.734  0.00  0.00    +0.147 HD
ENDROOT
BRANCH   1   3
ATOM      3  C   UNL     1      35.455 -20.122 -21.014  0.00  0.00    +0.045 C 
ATOM      4  C   UNL     1      36.096 -21.098 -20.230  0.00  0.00    +0.016 C 
ATOM      5  C   UNL     1      34.050 -20.107 -21.049  0.00  0.00    +0.016 C 
ATOM      6  C   UNL     1      33.960 -21.998 -19.549  0.00  0.00    +0.048 C 
ATOM      7  C   UNL     1      35.353 -22.029 -19.504  0.00  0.00    +0.016 C 
ATOM      8  C   UNL     1      33.308 -21.037 -20.322  0.00  0.00    +0.016 C 
BRANCH   6   9
ATOM      9  N   UNL     1      33.210 -22.939 -18.813  0.00  0.00    -0.312 N 
ATOM     10  H   UNL     1      32.782 -23.628 -19.370  0.00  0.00    +0.152 HD
BRANCH   9  12
ATOM     11  N   UNL     1      32.442 -23.377 -14.701  0.00  0.00    -0.242 NA
ATOM     12  C   UNL     1      32.953 -23.086 -17.435  0.00  0.00    +0.051 C 
ATOM     13  C   UNL     1      31.668 -22.892 -16.940  0.00  0.00    +0.035 C 
ATOM     14  C   UNL     1      33.983 -23.425 -16.564  0.00  0.00    +0.035 C 
ATOM     15  C   UNL     1      31.466 -23.048 -15.578  0.00  0.00    +0.100 C 
ATOM     16  C   UNL     1      33.678 -23.558 -15.219  0.00  0.00    +0.100 C 
ENDBRANCH   9  12
ENDBRANCH   6   9
ENDBRANCH   1   3
BRANCH   1  17
ATOM     17  C   UNL     1      35.612 -18.117 -22.490  0.00  0.00    +0.092 C 
BRANCH  17  18
ATOM     18  C   UNL     1      35.540 -16.813 -21.676  0.00  0.00    +0.049 C 
BRANCH  18  20
ATOM     19  N   UNL     1      34.401 -14.251 -24.016  0.00  0.00    -0.312 N 
ATOM     20  C   UNL     1      34.926 -15.683 -22.404  0.00  0.00    -0.005 C 
ATOM     21  C   UNL     1      34.000 -14.740 -21.877  0.00  0.00    +0.011 C 
ATOM     22  C   UNL     1      33.686 -13.852 -22.909  0.00  0.00    +0.048 C 
ATOM     23  C   UNL     1      35.153 -15.356 -23.720  0.00  0.00    +0.058 C 
ATOM     24  C   UNL     1      33.396 -14.555 -20.618  0.00  0.00    +0.001 C 
ATOM     25  C   UNL     1      32.796 -12.786 -22.744  0.00  0.00    +0.015 C 
ATOM     26  C   UNL     1      32.503 -13.492 -20.438  0.00  0.00    +0.000 C 
ATOM     27  C   UNL     1      32.209 -12.622 -21.487  0.00  0.00    +0.001 C 
ATOM     28  H   UNL     1      34.376 -13.806 -24.894  0.00  0.00    +0.152 HD
ENDBRANCH  18  20
ENDBRANCH  17  18
ENDBRANCH   1  17
TORSDOF 6
ENDMDL
MODEL 3
REMARK VINA RESULT:     -10.9      2.856      9.139
REMARK  Name = 11609586
REMARK  6 active torsions:
REMARK  status: ('A' for Active; 'I' for Inactive)
REMARK    1  A    between atoms: N_1  and  C_3
REMARK    2  A    between atoms: N_1  and  C_17
REMARK    3  A    between atoms: C_6  and  N_9
REMARK    4  A    between atoms: N_9  and  C_12
REMARK    5  A    between atoms: C_17  and  C_18
REMARK    6  A    between atoms: C_18  and  C_20
REMARK                            x       y       z     vdW  Elec       q    Type
REMARK                         _______ _______ _______ _____ _____    ______ ____
ROOT
ATOM      1  N   UNL     1      35.928 -16.205 -23.643  0.00  0.00    -0.332 N 
ATOM      2  H   UNL     1      36.840 -15.852 -23.761  0.00  0.00    +0.147 HD
ENDROOT
BRANCH   1   3
ATOM      3  C   UNL     1      34.940 -15.328 -23.214  0.00  0.00    +0.045 C 
ATOM      4  C   UNL     1      34.747 -15.078 -21.844  0.00  0.00    +0.016 C 
ATOM      5  C   UNL     1      34.110 -14.671 -24.139  0.00  0.00    +0.016 C 
ATOM      6  C   UNL     1      32.941 -13.553 -22.344  0.00  0.00    +0.048 C 
ATOM      7  C   UNL     1      33.754 -14.198 -21.413  0.00  0.00    +0.016 C 
ATOM      8  C   UNL     1      33.119 -13.790 -23.708  0.00  0.00    +0.016 C 
BRANCH   6   9
ATOM      9  N   UNL     1      31.939 -12.662 -21.908  0.00  0.00    -0.312 N 
ATOM     10  H   UNL     1      31.037 -12.890 -22.230  0.00  0.00    +0.152 HD
BRANCH   9  12
ATOM     11  N   UNL     1      32.047  -9.216 -19.500  0.00  0.00    -0.242 NA
ATOM     12  C   UNL     1      31.975 -11.508 -21.101  0.00  0.00    +0.051 C 
ATOM     13  C   UNL     1      32.074 -10.250 -21.685  0.00  0.00    +0.035 C 
ATOM     14  C   UNL     1      31.912 -11.620 -19.716  0.00  0.00    +0.035 C 
ATOM     15  C   UNL     1      32.106  -9.145 -20.849  0.00  0.00    +0.100 C 
ATOM     16  C   UNL     1      31.951 -10.455 -18.968  0.00  0.00    +0.100 C 
ENDBRANCH   9  12
ENDBRANCH   6   9
ENDBRANCH   1   3
BRANCH   1  17
ATOM     17  C   UNL     1      35.699 -17.595 -23.926  0.00  0.00    +0.092 C 
BRANCH  17  18
ATOM     18  C   UNL     1      34.876 -18.284 -22.823  0.00  0.00    +0.049 C 
BRANCH  18  20
ATOM     19  N   UNL     1      37.411 -19.782 -20.663  0.00  0.00    -0.312 N 
ATOM     20  C   UNL     1      35.688 -19.052 -21.857  0.00  0.00    -0.005 C 
ATOM     21  C   UNL     1      35.229 -20.093 -21.002  0.00  0.00    +0.011 C 
ATOM     22  C   UNL     1      36.330 -20.534 -20.264  0.00  0.00    +0.048 C 
ATOM     23  C   UNL     1      37.034 -18.885 -21.626  0.00  0.00    +0.058 C 
ATOM     24  C   UNL     1      33.978 -20.704 -20.784  0.00  0.00    +0.001 C 
ATOM     25  C   UNL     1      36.242 -21.559 -19.316  0.00  0.00    +0.015 C 
ATOM     26  C   UNL     1      33.876 -21.731 -19.838  0.00  0.00    +0.000 C 
ATOM     27  C   UNL     1      34.992 -22.150 -19.116  0.00  0.00    +0.001 C 
ATOM     28  H   UNL     1      38.326 -19.877 -20.309  0.00  0.00    +0.152 HD
ENDBRANCH  18  20
ENDBRANCH  17  18
ENDBRANCH   1  17
TORSDOF 6
ENDMDL
MODEL 4
REMARK VINA RESULT:     -10.9      1.001      1.411
REMARK  Name = 11609586
REMARK  6 active torsions:
REMARK  status: ('A' for Active; 'I' for Inactive)
REMARK    1  A    between atoms: N_1  and  C_3
REMARK    2  A    between atoms: N_1  and  C_17
REMARK    3  A    between atoms: C_6  and  N_9
REMARK    4  A    between atoms: N_9  and  C_12
REMARK    5  A    between atoms: C_17  and  C_18
REMARK    6  A    between atoms: C_18  and  C_20
REMARK                            x       y       z     vdW  Elec       q    Type
REMARK                         _______ _______ _______ _____ _____    ______ ____
ROOT
ATOM      1  N   UNL     1      35.575 -19.265 -21.669  0.00  0.00    -0.332 N 
ATOM      2  H   UNL     1      36.246 -18.663 -21.274  0.00  0.00    +0.147 HD
ENDROOT
BRANCH   1   3
ATOM      3  C   UNL     1      35.045 -20.267 -20.866  0.00  0.00    +0.045 C 
ATOM      4  C   UNL     1      33.654 -20.444 -20.761  0.00  0.00    +0.016 C 
ATOM      5  C   UNL     1      35.886 -21.128 -20.139  0.00  0.00    +0.016 C 
ATOM      6  C   UNL     1      33.971 -22.295 -19.241  0.00  0.00    +0.048 C 
ATOM      7  C   UNL     1      33.122 -21.450 -19.954  0.00  0.00    +0.016 C 
ATOM      8  C   UNL     1      35.354 -22.134 -19.334  0.00  0.00    +0.016 C 
BRANCH   6   9
ATOM      9  N   UNL     1      33.433 -23.313 -18.428  0.00  0.00    -0.312 N 
ATOM     10  H   UNL     1      33.287 -24.164 -18.901  0.00  0.00    +0.152 HD
BRANCH   9  12
ATOM     11  N   UNL     1      32.326 -23.430 -14.372  0.00  0.00    -0.242 NA
ATOM     12  C   UNL     1      33.062 -23.352 -17.069  0.00  0.00    +0.051 C 
ATOM     13  C   UNL     1      33.991 -23.718 -16.102  0.00  0.00    +0.035 C 
ATOM     14  C   UNL     1      31.764 -23.025 -16.688  0.00  0.00    +0.035 C 
ATOM     15  C   UNL     1      33.578 -23.741 -14.779  0.00  0.00    +0.100 C 
ATOM     16  C   UNL     1      31.451 -23.078 -15.340  0.00  0.00    +0.100 C 
ENDBRANCH   9  12
ENDBRANCH   6   9
ENDBRANCH   1   3
BRANCH   1  17
ATOM     17  C   UNL     1      35.201 -19.056 -23.041  0.00  0.00    +0.092 C 
BRANCH  17  18
ATOM     18  C   UNL     1      36.051 -17.963 -23.714  0.00  0.00    +0.049 C 
BRANCH  18  20
ATOM     19  N   UNL     1      34.156 -15.499 -25.630  0.00  0.00    -0.312 N 
ATOM     20  C   UNL     1      35.266 -16.829 -24.242  0.00  0.00    -0.005 C 
ATOM     21  C   UNL     1      34.799 -15.705 -23.504  0.00  0.00    +0.011 C 
ATOM     22  C   UNL     1      34.106 -14.886 -24.398  0.00  0.00    +0.048 C 
ATOM     23  C   UNL     1      34.855 -16.673 -25.545  0.00  0.00    +0.058 C 
ATOM     24  C   UNL     1      34.899 -15.304 -22.157  0.00  0.00    +0.001 C 
ATOM     25  C   UNL     1      33.506 -13.683 -24.011  0.00  0.00    +0.015 C 
ATOM     26  C   UNL     1      34.304 -14.103 -21.756  0.00  0.00    +0.000 C 
ATOM     27  C   UNL     1      33.618 -13.306 -22.671  0.00  0.00    +0.001 C 
ATOM     28  H   UNL     1      33.749 -15.145 -26.453  0.00  0.00    +0.152 HD
ENDBRANCH  18  20
ENDBRANCH  17  18
ENDBRANCH   1  17
TORSDOF 6
ENDMDL
MODEL 5
REMARK VINA RESULT:     -10.8      2.438      9.615
REMARK  Name = 11609586
REMARK  6 active torsions:
REMARK  status: ('A' for Active; 'I' for Inactive)
REMARK    1  A    between atoms: N_1  and  C_3
REMARK    2  A    between atoms: N_1  and  C_17
REMARK    3  A    between atoms: C_6  and  N_9
REMARK    4  A    between atoms: N_9  and  C_12
REMARK    5  A    between atoms: C_17  and  C_18
REMARK    6  A    between atoms: C_18  and  C_20
REMARK                            x       y       z     vdW  Elec       q    Type
REMARK                         _______ _______ _______ _____ _____    ______ ____
ROOT
ATOM      1  N   UNL     1      33.571 -22.960 -18.487  0.00  0.00    -0.332 N 
ATOM      2  H   UNL     1      32.629 -23.196 -18.651  0.00  0.00    +0.147 HD
ENDROOT
BRANCH   1   3
ATOM      3  C   UNL     1      34.167 -22.034 -19.333  0.00  0.00    +0.045 C 
ATOM      4  C   UNL     1      33.385 -21.138 -20.084  0.00  0.00    +0.016 C 
ATOM      5  C   UNL     1      35.566 -21.969 -19.457  0.00  0.00    +0.016 C 
ATOM      6  C   UNL     1      35.374 -20.157 -21.043  0.00  0.00    +0.048 C 
ATOM      7  C   UNL     1      33.985 -20.208 -20.933  0.00  0.00    +0.016 C 
ATOM      8  C   UNL     1      36.165 -21.038 -20.305  0.00  0.00    +0.016 C 
BRANCH   6   9
ATOM      9  N   UNL     1      35.980 -19.214 -21.900  0.00  0.00    -0.312 N 
ATOM     10  H   UNL     1      36.916 -19.015 -21.672  0.00  0.00    +0.152 HD
BRANCH   9  12
ATOM     11  N   UNL     1      34.567 -17.086 -25.240  0.00  0.00    -0.242 NA
ATOM     12  C   UNL     1      35.506 -18.501 -23.019  0.00  0.00    +0.051 C 
ATOM     13  C   UNL     1      34.901 -19.177 -24.073  0.00  0.00    +0.035 C 
ATOM     14  C   UNL     1      35.642 -17.118 -23.075  0.00  0.00    +0.035 C 
ATOM     15  C   UNL     1      34.452 -18.431 -25.151  0.00  0.00    +0.100 C 
ATOM     16  C   UNL     1      35.159 -16.464 -24.197  0.00  0.00    +0.100 C 
ENDBRANCH   9  12
ENDBRANCH   6   9
ENDBRANCH   1   3
BRANCH   1  17
ATOM     17  C   UNL     1      34.247 -23.595 -17.389  0.00  0.00    +0.092 C 
BRANCH  17  18
ATOM     18  C   UNL     1      33.766 -23.062 -16.026  0.00  0.00    +0.049 C 
BRANCH  18  20
ATOM     19  N   UNL     1      31.524 -25.276 -14.180  0.00  0.00    -0.312 N 
ATOM     20  C   UNL     1      32.656 -23.837 -15.435  0.00  0.00    -0.005 C 
ATOM     21  C   UNL     1      31.277 -23.734 -15.772  0.00  0.00    +0.011 C 
ATOM     22  C   UNL     1      30.589 -24.647 -14.971  0.00  0.00    +0.048 C 
ATOM     23  C   UNL     1      32.776 -24.793 -14.454  0.00  0.00    +0.058 C 
ATOM     24  C   UNL     1      30.546 -22.949 -16.686  0.00  0.00    +0.001 C 
ATOM     25  C   UNL     1      29.202 -24.815 -15.037  0.00  0.00    +0.015 C 
ATOM     26  C   UNL     1      29.157 -23.106 -16.763  0.00  0.00    +0.000 C 
ATOM     27  C   UNL     1      28.497 -24.026 -15.949  0.00  0.00    +0.001 C 
ATOM     28  H   UNL     1      31.323 -25.973 -13.514  0.00  0.00    +0.152 HD
ENDBRANCH  18  20
ENDBRANCH  17  18
ENDBRANCH   1  17
TORSDOF 6
ENDMDL
MODEL 6
REMARK VINA RESULT:     -10.7      1.366      2.590
REMARK  Name = 11609586
REMARK  6 active torsions:
REMARK  status: ('A' for Active; 'I' for Inactive)
REMARK    1  A    between atoms: N_1  and  C_3
REMARK    2  A    between atoms: N_1  and  C_17
REMARK    3  A    between atoms: C_6  and  N_9
REMARK    4  A    between atoms: N_9  and  C_12
REMARK    5  A    between atoms: C_17  and  C_18
REMARK    6  A    between atoms: C_18  and  C_20
REMARK                            x       y       z     vdW  Elec       q    Type
REMARK                         _______ _______ _______ _____ _____    ______ ____
ROOT
ATOM      1  N   UNL     1      36.152 -19.311 -21.703  0.00  0.00    -0.332 N 
ATOM      2  H   UNL     1      36.931 -19.648 -22.203  0.00  0.00    +0.147 HD
ENDROOT
BRANCH   1   3
ATOM      3  C   UNL     1      35.406 -20.222 -20.967  0.00  0.00    +0.045 C 
ATOM      4  C   UNL     1      36.039 -21.199 -20.177  0.00  0.00    +0.016 C 
ATOM      5  C   UNL     1      34.000 -20.190 -20.993  0.00  0.00    +0.016 C 
ATOM      6  C   UNL     1      33.896 -22.066 -19.474  0.00  0.00    +0.048 C 
ATOM      7  C   UNL     1      35.289 -22.113 -19.438  0.00  0.00    +0.016 C 
ATOM      8  C   UNL     1      33.251 -21.104 -20.252  0.00  0.00    +0.016 C 
BRANCH   6   9
ATOM      9  N   UNL     1      33.139 -22.990 -18.725  0.00  0.00    -0.312 N 
ATOM     10  H   UNL     1      32.695 -23.676 -19.273  0.00  0.00    +0.152 HD
BRANCH   9  12
ATOM     11  N   UNL     1      32.405 -23.389 -14.603  0.00  0.00    -0.242 NA
ATOM     12  C   UNL     1      32.894 -23.124 -17.344  0.00  0.00    +0.051 C 
ATOM     13  C   UNL     1      31.615 -22.914 -16.838  0.00  0.00    +0.035 C 
ATOM     14  C   UNL     1      33.928 -23.465 -16.479  0.00  0.00    +0.035 C 
ATOM     15  C   UNL     1      31.424 -23.058 -15.473  0.00  0.00    +0.100 C 
ATOM     16  C   UNL     1      33.634 -23.585 -15.131  0.00  0.00    +0.100 C 
ENDBRANCH   9  12
ENDBRANCH   6   9
ENDBRANCH   1   3
BRANCH   1  17
ATOM     17  C   UNL     1      35.854 -17.907 -21.780  0.00  0.00    +0.092 C 
BRANCH  17  18
ATOM     18  C   UNL     1      35.592 -17.447 -23.225  0.00  0.00    +0.049 C 
BRANCH  18  20
ATOM     19  N   UNL     1      34.596 -13.957 -22.824  0.00  0.00    -0.312 N 
ATOM     20  C   UNL     1      35.116 -16.053 -23.336  0.00  0.00    -0.005 C 
ATOM     21  C   UNL     1      34.583 -15.430 -24.499  0.00  0.00    +0.011 C 
ATOM     22  C   UNL     1      34.264 -14.115 -24.151  0.00  0.00    +0.048 C 
ATOM     23  C   UNL     1      35.111 -15.122 -22.323  0.00  0.00    +0.058 C 
ATOM     24  C   UNL     1      34.340 -15.858 -25.819  0.00  0.00    +0.001 C 
ATOM     25  C   UNL     1      33.713 -13.205 -25.059  0.00  0.00    +0.015 C 
ATOM     26  C   UNL     1      33.788 -14.959 -26.739  0.00  0.00    +0.000 C 
ATOM     27  C   UNL     1      33.481 -13.653 -26.362  0.00  0.00    +0.001 C 
ATOM     28  H   UNL     1      34.479 -13.126 -22.308  0.00  0.00    +0.152 HD
ENDBRANCH  18  20
ENDBRANCH  17  18
ENDBRANCH   1  17
TORSDOF 6
ENDMDL
MODEL 7
REMARK VINA RESULT:     -10.7      1.914      9.449
REMARK  Name = 11609586
REMARK  6 active torsions:
REMARK  status: ('A' for Active; 'I' for Inactive)
REMARK    1  A    between atoms: N_1  and  C_3
REMARK    2  A    between atoms: N_1  and  C_17
REMARK    3  A    between atoms: C_6  and  N_9
REMARK    4  A    between atoms: N_9  and  C_12
REMARK    5  A    between atoms: C_17  and  C_18
REMARK    6  A    between atoms: C_18  and  C_20
REMARK                            x       y       z     vdW  Elec       q    Type
REMARK                         _______ _______ _______ _____ _____    ______ ____
ROOT
ATOM      1  N   UNL     1      35.663 -21.331 -19.555  0.00  0.00    -0.332 N 
ATOM      2  H   UNL     1      36.115 -21.107 -18.709  0.00  0.00    +0.147 HD
ENDROOT
BRANCH   1   3
ATOM      3  C   UNL     1      35.770 -20.433 -20.609  0.00  0.00    +0.045 C 
ATOM      4  C   UNL     1      34.691 -20.223 -21.486  0.00  0.00    +0.016 C 
ATOM      5  C   UNL     1      36.959 -19.714 -20.824  0.00  0.00    +0.016 C 
ATOM      6  C   UNL     1      35.985 -18.615 -22.743  0.00  0.00    +0.048 C 
ATOM      7  C   UNL     1      34.799 -19.321 -22.545  0.00  0.00    +0.016 C 
ATOM      8  C   UNL     1      37.066 -18.812 -21.882  0.00  0.00    +0.016 C 
BRANCH   6   9
ATOM      9  N   UNL     1      36.092 -17.702 -23.812  0.00  0.00    -0.312 N 
ATOM     10  H   UNL     1      36.899 -17.828 -24.362  0.00  0.00    +0.152 HD
BRANCH   9  12
ATOM     11  N   UNL     1      33.642 -14.542 -25.112  0.00  0.00    -0.242 NA
ATOM     12  C   UNL     1      35.271 -16.643 -24.248  0.00  0.00    +0.051 C 
ATOM     13  C   UNL     1      35.049 -15.546 -23.423  0.00  0.00    +0.035 C 
ATOM     14  C   UNL     1      34.678 -16.690 -25.505  0.00  0.00    +0.035 C 
ATOM     15  C   UNL     1      34.234 -14.530 -23.897  0.00  0.00    +0.100 C 
ATOM     16  C   UNL     1      33.881 -15.623 -25.887  0.00  0.00    +0.100 C 
ENDBRANCH   9  12
ENDBRANCH   6   9
ENDBRANCH   1   3
BRANCH   1  17
ATOM     17  C   UNL     1      34.934 -22.567 -19.625  0.00  0.00    +0.092 C 
BRANCH  17  18
ATOM     18  C   UNL     1      33.584 -22.488 -18.889  0.00  0.00    +0.049 C 
BRANCH  18  20
ATOM     19  N   UNL     1      34.413 -23.612 -15.515  0.00  0.00    -0.312 N 
ATOM     20  C   UNL     1      33.640 -22.931 -17.481  0.00  0.00    -0.005 C 
ATOM     21  C   UNL     1      32.533 -23.108 -16.604  0.00  0.00    +0.011 C 
ATOM     22  C   UNL     1      33.045 -23.536 -15.377  0.00  0.00    +0.048 C 
ATOM     23  C   UNL     1      34.781 -23.249 -16.782  0.00  0.00    +0.058 C 
ATOM     24  C   UNL     1      31.140 -22.946 -16.736  0.00  0.00    +0.001 C 
ATOM     25  C   UNL     1      32.232 -23.810 -14.273  0.00  0.00    +0.015 C 
ATOM     26  C   UNL     1      30.313 -23.216 -15.639  0.00  0.00    +0.000 C 
ATOM     27  C   UNL     1      30.853 -23.641 -14.427  0.00  0.00    +0.001 C 
ATOM     28  H   UNL     1      35.037 -23.888 -14.805  0.00  0.00    +0.152 HD
ENDBRANCH  18  20
ENDBRANCH  17  18
ENDBRANCH   1  17
TORSDOF 6
ENDMDL
MODEL 8
REMARK VINA RESULT:     -10.6      2.419      9.954
REMARK  Name = 11609586
REMARK  6 active torsions:
REMARK  status: ('A' for Active; 'I' for Inactive)
REMARK    1  A    between atoms: N_1  and  C_3
REMARK    2  A    between atoms: N_1  and  C_17
REMARK    3  A    between atoms: C_6  and  N_9
REMARK    4  A    between atoms: N_9  and  C_12
REMARK    5  A    between atoms: C_17  and  C_18
REMARK    6  A    between atoms: C_18  and  C_20
REMARK                            x       y       z     vdW  Elec       q    Type
REMARK                         _______ _______ _______ _____ _____    ______ ____
ROOT
ATOM      1  N   UNL     1      32.949 -22.747 -18.574  0.00  0.00    -0.332 N 
ATOM      2  H   UNL     1      31.971 -22.778 -18.684  0.00  0.00    +0.147 HD
ENDROOT
BRANCH   1   3
ATOM      3  C   UNL     1      33.673 -21.905 -19.408  0.00  0.00    +0.045 C 
ATOM      4  C   UNL     1      33.024 -20.917 -20.170  0.00  0.00    +0.016 C 
ATOM      5  C   UNL     1      35.070 -22.020 -19.510  0.00  0.00    +0.016 C 
ATOM      6  C   UNL     1      35.137 -20.198 -21.095  0.00  0.00    +0.048 C 
ATOM      7  C   UNL     1      33.751 -20.071 -21.007  0.00  0.00    +0.016 C 
ATOM      8  C   UNL     1      35.797 -21.173 -20.346  0.00  0.00    +0.016 C 
BRANCH   6   9
ATOM      9  N   UNL     1      35.872 -19.341 -21.940  0.00  0.00    -0.312 N 
ATOM     10  H   UNL     1      36.838 -19.333 -21.754  0.00  0.00    +0.152 HD
BRANCH   9  12
ATOM     11  N   UNL     1      34.742 -16.809 -25.102  0.00  0.00    -0.242 NA
ATOM     12  C   UNL     1      35.493 -18.492 -23.000  0.00  0.00    +0.051 C 
ATOM     13  C   UNL     1      34.930 -19.025 -24.154  0.00  0.00    +0.035 C 
ATOM     14  C   UNL     1      35.680 -17.118 -22.896  0.00  0.00    +0.035 C 
ATOM     15  C   UNL     1      34.575 -18.150 -25.168  0.00  0.00    +0.100 C 
ATOM     16  C   UNL     1      35.291 -16.328 -23.965  0.00  0.00    +0.100 C 
ENDBRANCH   9  12
ENDBRANCH   6   9
ENDBRANCH   1   3
BRANCH   1  17
ATOM     17  C   UNL     1      33.543 -23.576 -17.561  0.00  0.00    +0.092 C 
BRANCH  17  18
ATOM     18  C   UNL     1      33.220 -23.079 -16.140  0.00  0.00    +0.049 C 
BRANCH  18  20
ATOM     19  N   UNL     1      34.514 -24.870 -13.233  0.00  0.00    -0.312 N 
ATOM     20  C   UNL     1      33.997 -23.748 -15.077  0.00  0.00    -0.005 C 
ATOM     21  C   UNL     1      35.414 -23.855 -15.004  0.00  0.00    +0.011 C 
ATOM     22  C   UNL     1      35.712 -24.563 -13.837  0.00  0.00    +0.048 C 
ATOM     23  C   UNL     1      33.472 -24.381 -13.974  0.00  0.00    +0.058 C 
ATOM     24  C   UNL     1      36.476 -23.417 -15.819  0.00  0.00    +0.001 C 
ATOM     25  C   UNL     1      37.023 -24.856 -13.445  0.00  0.00    +0.015 C 
ATOM     26  C   UNL     1      37.793 -23.702 -15.439  0.00  0.00    +0.000 C 
ATOM     27  C   UNL     1      38.059 -24.411 -14.269  0.00  0.00    +0.001 C 
ATOM     28  H   UNL     1      34.418 -25.368 -12.389  0.00  0.00    +0.152 HD
ENDBRANCH  18  20
ENDBRANCH  17  18
ENDBRANCH   1  17
TORSDOF 6
ENDMDL
MODEL 9
REMARK VINA RESULT:     -10.6      2.121      4.542
REMARK  Name = 11609586
REMARK  6 active torsions:
REMARK  status: ('A' for Active; 'I' for Inactive)
REMARK    1  A    between atoms: N_1  and  C_3
REMARK    2  A    between atoms: N_1  and  C_17
REMARK    3  A    between atoms: C_6  and  N_9
REMARK    4  A    between atoms: N_9  and  C_12
REMARK    5  A    between atoms: C_17  and  C_18
REMARK    6  A    between atoms: C_18  and  C_20
REMARK                            x       y       z     vdW  Elec       q    Type
REMARK                         _______ _______ _______ _____ _____    ______ ____
ROOT
ATOM      1  N   UNL     1      34.706 -14.892 -24.362  0.00  0.00    -0.332 N 
ATOM      2  H   UNL     1      34.620 -14.925 -25.343  0.00  0.00    +0.147 HD
ENDROOT
BRANCH   1   3
ATOM      3  C   UNL     1      35.037 -16.065 -23.696  0.00  0.00    +0.045 C 
ATOM      4  C   UNL     1      35.180 -17.275 -24.399  0.00  0.00    +0.016 C 
ATOM      5  C   UNL     1      35.238 -16.071 -22.304  0.00  0.00    +0.016 C 
ATOM      6  C   UNL     1      35.709 -18.439 -22.349  0.00  0.00    +0.048 C 
ATOM      7  C   UNL     1      35.512 -18.453 -23.729  0.00  0.00    +0.016 C 
ATOM      8  C   UNL     1      35.572 -17.248 -21.636  0.00  0.00    +0.016 C 
BRANCH   6   9
ATOM      9  N   UNL     1      36.048 -19.630 -21.674  0.00  0.00    -0.312 N 
ATOM     10  H   UNL     1      36.972 -19.927 -21.832  0.00  0.00    +0.152 HD
BRANCH   9  12
ATOM     11  N   UNL     1      33.879 -22.166 -19.113  0.00  0.00    -0.242 NA
ATOM     12  C   UNL     1      35.321 -20.480 -20.816  0.00  0.00    +0.051 C 
ATOM     13  C   UNL     1      35.987 -21.407 -20.022  0.00  0.00    +0.035 C 
ATOM     14  C   UNL     1      33.933 -20.395 -20.758  0.00  0.00    +0.035 C 
ATOM     15  C   UNL     1      35.228 -22.220 -19.195  0.00  0.00    +0.100 C 
ATOM     16  C   UNL     1      33.266 -21.252 -19.898  0.00  0.00    +0.100 C 
ENDBRANCH   9  12
ENDBRANCH   6   9
ENDBRANCH   1   3
BRANCH   1  17
ATOM     17  C   UNL     1      34.481 -13.633 -23.705  0.00  0.00    +0.092 C 
BRANCH  17  18
ATOM     18  C   UNL     1      32.989 -13.386 -23.420  0.00  0.00    +0.049 C 
BRANCH  18  20
ATOM     19  N   UNL     1      32.323 -13.634 -19.838  0.00  0.00    -0.312 N 
ATOM     20  C   UNL     1      32.671 -13.207 -21.988  0.00  0.00    -0.005 C 
ATOM     21  C   UNL     1      32.316 -11.989 -21.345  0.00  0.00    +0.011 C 
ATOM     22  C   UNL     1      32.103 -12.284 -19.996  0.00  0.00    +0.048 C 
ATOM     23  C   UNL     1      32.666 -14.200 -21.036  0.00  0.00    +0.058 C 
ATOM     24  C   UNL     1      32.155 -10.659 -21.780  0.00  0.00    +0.001 C 
ATOM     25  C   UNL     1      31.735 -11.312 -19.059  0.00  0.00    +0.015 C 
ATOM     26  C   UNL     1      31.788  -9.676 -20.854  0.00  0.00    +0.000 C 
ATOM     27  C   UNL     1      31.582 -10.000 -19.514  0.00  0.00    +0.001 C 
ATOM     28  H   UNL     1      32.244 -14.122 -18.987  0.00  0.00    +0.152 HD
ENDBRANCH  18  20
ENDBRANCH  17  18
ENDBRANCH   1  17
TORSDOF 6
ENDMDL
