MODEL 1
REMARK VINA RESULT:     -11.1      0.000      0.000
REMARK  Name = 12087505
REMARK  3 active torsions:
REMARK  status: ('A' for Active; 'I' for Inactive)
REMARK    1  A    between atoms: C_1  and  S_18
REMARK    2  A    between atoms: C_4  and  N_9
REMARK    3  A    between atoms: S_18  and  N_21
REMARK                            x       y       z     vdW  Elec       q    Type
REMARK                         _______ _______ _______ _____ _____    ______ ____
ROOT
ATOM      1  C   UNL     1      35.229 -19.710 -21.946  0.00  0.00    +0.123 C 
ATOM      2  C   UNL     1      35.937 -20.251 -20.886  0.00  0.00    +0.035 C 
ATOM      3  C   UNL     1      33.852 -19.828 -22.028  0.00  0.00    +0.020 C 
ATOM      4  C   UNL     1      35.249 -20.927 -19.879  0.00  0.00    +0.053 C 
ATOM      5  C   UNL     1      33.162 -20.504 -21.021  0.00  0.00    +0.003 C 
ATOM      6  C   UNL     1      33.862 -21.053 -19.946  0.00  0.00    +0.015 C 
ENDROOT
BRANCH   4   9
ATOM      7  S   UNL     1      37.933 -23.747 -14.982  0.00  0.00    -0.051 S 
ATOM      8  O   UNL     1      34.496 -23.138 -18.022  0.00  0.00    -0.252 OA
ATOM      9  N   UNL     1      35.948 -21.477 -18.804  0.00  0.00    -0.268 N 
ATOM     10  N   UNL     1      36.567 -22.762 -16.990  0.00  0.00    -0.248 N 
ATOM     11  N   UNL     1      35.596 -24.566 -15.723  0.00  0.00    -0.222 NA
ATOM     12  C   UNL     1      35.559 -22.530 -17.939  0.00  0.00    +0.310 C 
ATOM     13  C   UNL     1      36.547 -23.719 -15.973  0.00  0.00    +0.167 C 
ATOM     14  C   UNL     1      37.216 -25.030 -14.099  0.00  0.00    +0.059 C 
ATOM     15  C   UNL     1      35.980 -25.328 -14.637  0.00  0.00    +0.108 C 
ATOM     16  H   UNL     1      36.829 -21.077 -18.620  0.00  0.00    +0.156 HD
ATOM     17  H   UNL     1      37.368 -22.193 -17.047  0.00  0.00    +0.158 HD
ENDBRANCH   4   9
BRANCH   1  18
ATOM     18  S   UNL     1      36.101 -18.856 -23.223  0.00  0.00    +0.063 S 
ATOM     19  O   UNL     1      37.453 -18.631 -22.761  0.00  0.00    -0.153 OA
ATOM     20  O   UNL     1      35.842 -19.539 -24.472  0.00  0.00    -0.153 OA
BRANCH  18  21
ATOM     21  N   UNL     1      35.253 -17.368 -23.216  0.00  0.00    -0.152 NA
ATOM     22  N   UNL     1      34.408 -14.661 -23.270  0.00  0.00    -0.290 N 
ATOM     23  C   UNL     1      35.533 -16.478 -22.053  0.00  0.00    +0.117 C 
ATOM     24  C   UNL     1      35.291 -16.603 -24.494  0.00  0.00    +0.117 C 
ATOM     25  C   UNL     1      34.478 -15.377 -21.990  0.00  0.00    +0.111 C 
ATOM     26  C   UNL     1      34.236 -15.500 -24.463  0.00  0.00    +0.111 C 
ATOM     27  N   UNL     1      32.959 -13.000 -22.330  0.00  0.00    -0.229 NA
ATOM     28  C   UNL     1      33.896 -13.359 -23.261  0.00  0.00    +0.132 C 
ATOM     29  C   UNL     1      34.364 -12.450 -24.219  0.00  0.00    +0.034 C 
ATOM     30  C   UNL     1      33.863 -11.153 -24.223  0.00  0.00    +0.004 C 
ATOM     31  C   UNL     1      32.498 -11.729 -22.364  0.00  0.00    +0.100 C 
ATOM     32  C   UNL     1      32.914 -10.777 -23.281  0.00  0.00    +0.021 C 
ENDBRANCH  18  21
ENDBRANCH   1  18
TORSDOF 3
ENDMDL
MODEL 2
REMARK VINA RESULT:     -10.8      2.266     10.988
REMARK  Name = 12087505
REMARK  3 active torsions:
REMARK  status: ('A' for Active; 'I' for Inactive)
REMARK    1  A    between atoms: C_1  and  S_18
REMARK    2  A    between atoms: C_4  and  N_9
REMARK    3  A    between atoms: S_18  and  N_21
REMARK                            x       y       z     vdW  Elec       q    Type
REMARK                         _______ _______ _______ _____ _____    ______ ____
ROOT
ATOM      1  C   UNL     1      35.218 -21.522 -19.816  0.00  0.00    +0.123 C 
ATOM      2  C   UNL     1      34.825 -20.608 -20.780  0.00  0.00    +0.035 C 
ATOM      3  C   UNL     1      36.525 -21.573 -19.361  0.00  0.00    +0.020 C 
ATOM      4  C   UNL     1      35.765 -19.720 -21.303  0.00  0.00    +0.053 C 
ATOM      5  C   UNL     1      37.466 -20.685 -19.883  0.00  0.00    +0.003 C 
ATOM      6  C   UNL     1      37.085 -19.758 -20.854  0.00  0.00    +0.015 C 
ENDROOT
BRANCH   4   9
ATOM      7  S   UNL     1      34.130 -15.152 -25.251  0.00  0.00    -0.051 S 
ATOM      8  O   UNL     1      35.493 -16.754 -21.128  0.00  0.00    -0.252 OA
ATOM      9  N   UNL     1      35.385 -18.793 -22.273  0.00  0.00    -0.268 N 
ATOM     10  N   UNL     1      34.853 -16.840 -23.381  0.00  0.00    -0.248 N 
ATOM     11  N   UNL     1      34.757 -14.497 -22.830  0.00  0.00    -0.222 NA
ATOM     12  C   UNL     1      35.266 -17.385 -22.156  0.00  0.00    +0.310 C 
ATOM     13  C   UNL     1      34.626 -15.489 -23.656  0.00  0.00    +0.167 C 
ATOM     14  C   UNL     1      34.071 -13.491 -24.829  0.00  0.00    +0.059 C 
ATOM     15  C   UNL     1      34.436 -13.336 -23.507  0.00  0.00    +0.108 C 
ATOM     16  H   UNL     1      35.169 -19.166 -23.158  0.00  0.00    +0.156 HD
ATOM     17  H   UNL     1      34.708 -17.473 -24.121  0.00  0.00    +0.158 HD
ENDBRANCH   4   9
BRANCH   1  18
ATOM     18  S   UNL     1      34.028 -22.648 -19.157  0.00  0.00    +0.063 S 
ATOM     19  O   UNL     1      32.846 -21.890 -18.809  0.00  0.00    -0.153 OA
ATOM     20  O   UNL     1      33.951 -23.787 -20.047  0.00  0.00    -0.153 OA
BRANCH  18  21
ATOM     21  N   UNL     1      34.832 -23.119 -17.719  0.00  0.00    -0.152 NA
ATOM     22  N   UNL     1      35.771 -23.512 -15.072  0.00  0.00    -0.290 N 
ATOM     23  C   UNL     1      35.609 -22.044 -17.039  0.00  0.00    +0.117 C 
ATOM     24  C   UNL     1      34.002 -23.878 -16.741  0.00  0.00    +0.117 C 
ATOM     25  C   UNL     1      36.536 -22.667 -15.999  0.00  0.00    +0.111 C 
ATOM     26  C   UNL     1      34.906 -24.522 -15.693  0.00  0.00    +0.111 C 
ATOM     27  N   UNL     1      37.678 -23.777 -13.646  0.00  0.00    -0.229 NA
ATOM     28  C   UNL     1      36.320 -23.754 -13.807  0.00  0.00    +0.132 C 
ATOM     29  C   UNL     1      35.449 -23.968 -12.731  0.00  0.00    +0.034 C 
ATOM     30  C   UNL     1      35.980 -24.210 -11.469  0.00  0.00    +0.004 C 
ATOM     31  C   UNL     1      38.157 -24.014 -12.404  0.00  0.00    +0.100 C 
ATOM     32  C   UNL     1      37.358 -24.235 -11.293  0.00  0.00    +0.021 C 
ENDBRANCH  18  21
ENDBRANCH   1  18
TORSDOF 3
ENDMDL
MODEL 3
REMARK VINA RESULT:      -9.9      1.645      2.100
REMARK  Name = 12087505
REMARK  3 active torsions:
REMARK  status: ('A' for Active; 'I' for Inactive)
REMARK    1  A    between atoms: C_1  and  S_18
REMARK    2  A    between atoms: C_4  and  N_9
REMARK    3  A    between atoms: S_18  and  N_21
REMARK                            x       y       z     vdW  Elec       q    Type
REMARK                         _______ _______ _______ _____ _____    ______ ____
ROOT
ATOM      1  C   UNL     1      35.290 -19.681 -21.773  0.00  0.00    +0.123 C 
ATOM      2  C   UNL     1      35.526 -20.436 -20.636  0.00  0.00    +0.035 C 
ATOM      3  C   UNL     1      34.026 -19.592 -22.331  0.00  0.00    +0.020 C 
ATOM      4  C   UNL     1      34.467 -21.123 -20.041  0.00  0.00    +0.053 C 
ATOM      5  C   UNL     1      32.966 -20.278 -21.736  0.00  0.00    +0.003 C 
ATOM      6  C   UNL     1      33.188 -21.043 -20.590  0.00  0.00    +0.015 C 
ENDROOT
BRANCH   4   9
ATOM      7  S   UNL     1      34.883 -24.575 -14.840  0.00  0.00    -0.051 S 
ATOM      8  O   UNL     1      32.521 -22.328 -18.127  0.00  0.00    -0.252 OA
ATOM      9  N   UNL     1      34.688 -21.888 -18.895  0.00  0.00    -0.268 N 
ATOM     10  N   UNL     1      34.397 -23.144 -16.982  0.00  0.00    -0.248 N 
ATOM     11  N   UNL     1      32.525 -23.939 -15.690  0.00  0.00    -0.222 NA
ATOM     12  C   UNL     1      33.737 -22.446 -18.006  0.00  0.00    +0.310 C 
ATOM     13  C   UNL     1      33.798 -23.826 -15.921  0.00  0.00    +0.167 C 
ATOM     14  C   UNL     1      33.530 -25.127 -13.942  0.00  0.00    +0.059 C 
ATOM     15  C   UNL     1      32.367 -24.692 -14.543  0.00  0.00    +0.108 C 
ATOM     16  H   UNL     1      35.632 -22.062 -18.675  0.00  0.00    +0.156 HD
ATOM     17  H   UNL     1      35.380 -23.152 -17.015  0.00  0.00    +0.158 HD
ENDBRANCH   4   9
BRANCH   1  18
ATOM     18  S   UNL     1      36.631 -18.814 -22.528  0.00  0.00    +0.063 S 
ATOM     19  O   UNL     1      37.758 -18.865 -21.622  0.00  0.00    -0.153 OA
ATOM     20  O   UNL     1      36.748 -19.278 -23.894  0.00  0.00    -0.153 OA
BRANCH  18  21
ATOM     21  N   UNL     1      35.991 -17.225 -22.533  0.00  0.00    -0.152 NA
ATOM     22  N   UNL     1      34.393 -14.882 -22.551  0.00  0.00    -0.290 N 
ATOM     23  C   UNL     1      35.257 -16.835 -23.771  0.00  0.00    +0.117 C 
ATOM     24  C   UNL     1      35.226 -16.838 -21.315  0.00  0.00    +0.117 C 
ATOM     25  C   UNL     1      35.054 -15.323 -23.787  0.00  0.00    +0.111 C 
ATOM     26  C   UNL     1      35.017 -15.326 -21.299  0.00  0.00    +0.111 C 
ATOM     27  N   UNL     1      34.094 -12.672 -23.429  0.00  0.00    -0.229 NA
ATOM     28  C   UNL     1      33.692 -13.670 -22.583  0.00  0.00    +0.132 C 
ATOM     29  C   UNL     1      32.587 -13.516 -21.737  0.00  0.00    +0.034 C 
ATOM     30  C   UNL     1      31.881 -12.317 -21.757  0.00  0.00    +0.004 C 
ATOM     31  C   UNL     1      33.382 -11.522 -23.421  0.00  0.00    +0.100 C 
ATOM     32  C   UNL     1      32.279 -11.297 -22.613  0.00  0.00    +0.021 C 
ENDBRANCH  18  21
ENDBRANCH   1  18
TORSDOF 3
ENDMDL
MODEL 4
REMARK VINA RESULT:      -9.5      4.702     10.525
REMARK  Name = 12087505
REMARK  3 active torsions:
REMARK  status: ('A' for Active; 'I' for Inactive)
REMARK    1  A    between atoms: C_1  and  S_18
REMARK    2  A    between atoms: C_4  and  N_9
REMARK    3  A    between atoms: S_18  and  N_21
REMARK                            x       y       z     vdW  Elec       q    Type
REMARK                         _______ _______ _______ _____ _____    ______ ____
ROOT
ATOM      1  C   UNL     1      37.378 -24.230 -14.086  0.00  0.00    +0.123 C 
ATOM      2  C   UNL     1      37.208 -23.307 -15.105  0.00  0.00    +0.035 C 
ATOM      3  C   UNL     1      38.460 -25.093 -14.068  0.00  0.00    +0.020 C 
ATOM      4  C   UNL     1      38.147 -23.245 -16.134  0.00  0.00    +0.053 C 
ATOM      5  C   UNL     1      39.401 -25.032 -15.097  0.00  0.00    +0.003 C 
ATOM      6  C   UNL     1      39.244 -24.107 -16.130  0.00  0.00    +0.015 C 
ENDROOT
BRANCH   4   9
ATOM      7  S   UNL     1      36.917 -19.319 -20.846  0.00  0.00    -0.051 S 
ATOM      8  O   UNL     1      35.830 -22.761 -17.949  0.00  0.00    -0.252 OA
ATOM      9  N   UNL     1      37.991 -22.321 -17.167  0.00  0.00    -0.268 N 
ATOM     10  N   UNL     1      37.144 -21.080 -18.919  0.00  0.00    -0.248 N 
ATOM     11  N   UNL     1      35.084 -21.009 -20.165  0.00  0.00    -0.222 NA
ATOM     12  C   UNL     1      36.872 -22.117 -18.013  0.00  0.00    +0.310 C 
ATOM     13  C   UNL     1      36.285 -20.592 -19.906  0.00  0.00    +0.167 C 
ATOM     14  C   UNL     1      35.439 -19.292 -21.715  0.00  0.00    +0.059 C 
ATOM     15  C   UNL     1      34.590 -20.257 -21.213  0.00  0.00    +0.108 C 
ATOM     16  H   UNL     1      38.763 -21.731 -17.332  0.00  0.00    +0.156 HD
ATOM     17  H   UNL     1      38.029 -20.653 -18.850  0.00  0.00    +0.158 HD
ENDBRANCH   4   9
BRANCH   1  18
ATOM     18  S   UNL     1      36.187 -24.309 -12.784  0.00  0.00    +0.063 S 
ATOM     19  O   UNL     1      36.391 -25.553 -12.073  0.00  0.00    -0.153 OA
ATOM     20  O   UNL     1      36.202 -23.040 -12.089  0.00  0.00    -0.153 OA
BRANCH  18  21
ATOM     21  N   UNL     1      34.748 -24.423 -13.706  0.00  0.00    -0.152 NA
ATOM     22  N   UNL     1      32.223 -24.086 -14.952  0.00  0.00    -0.290 N 
ATOM     23  C   UNL     1      33.498 -24.618 -12.917  0.00  0.00    +0.117 C 
ATOM     24  C   UNL     1      34.566 -23.369 -14.743  0.00  0.00    +0.117 C 
ATOM     25  C   UNL     1      32.370 -25.047 -13.851  0.00  0.00    +0.111 C 
ATOM     26  C   UNL     1      33.449 -23.778 -15.699  0.00  0.00    +0.111 C 
ATOM     27  N   UNL     1      30.195 -25.137 -15.679  0.00  0.00    -0.229 NA
ATOM     28  C   UNL     1      30.983 -24.021 -15.600  0.00  0.00    +0.132 C 
ATOM     29  C   UNL     1      30.583 -22.799 -16.155  0.00  0.00    +0.034 C 
ATOM     30  C   UNL     1      29.355 -22.720 -16.802  0.00  0.00    +0.004 C 
ATOM     31  C   UNL     1      29.008 -25.021 -16.314  0.00  0.00    +0.100 C 
ATOM     32  C   UNL     1      28.546 -23.846 -16.887  0.00  0.00    +0.021 C 
ENDBRANCH  18  21
ENDBRANCH   1  18
TORSDOF 3
ENDMDL
MODEL 5
REMARK VINA RESULT:      -9.1      5.615     10.053
REMARK  Name = 12087505
REMARK  3 active torsions:
REMARK  status: ('A' for Active; 'I' for Inactive)
REMARK    1  A    between atoms: C_1  and  S_18
REMARK    2  A    between atoms: C_4  and  N_9
REMARK    3  A    between atoms: S_18  and  N_21
REMARK                            x       y       z     vdW  Elec       q    Type
REMARK                         _______ _______ _______ _____ _____    ______ ____
ROOT
ATOM      1  C   UNL     1      33.073 -10.423 -22.954  0.00  0.00    +0.123 C 
ATOM      2  C   UNL     1      33.119 -11.775 -23.248  0.00  0.00    +0.035 C 
ATOM      3  C   UNL     1      33.897  -9.516 -23.598  0.00  0.00    +0.020 C 
ATOM      4  C   UNL     1      34.016 -12.233 -24.214  0.00  0.00    +0.053 C 
ATOM      5  C   UNL     1      34.794  -9.973 -24.564  0.00  0.00    +0.003 C 
ATOM      6  C   UNL     1      34.852 -11.332 -24.872  0.00  0.00    +0.015 C 
ENDROOT
BRANCH   4   9
ATOM      7  S   UNL     1      34.568 -18.401 -25.102  0.00  0.00    -0.051 S 
ATOM      8  O   UNL     1      35.240 -14.498 -22.706  0.00  0.00    -0.252 OA
ATOM      9  N   UNL     1      34.074 -13.593 -24.522  0.00  0.00    -0.268 N 
ATOM     10  N   UNL     1      34.494 -15.861 -24.461  0.00  0.00    -0.248 N 
ATOM     11  N   UNL     1      35.592 -17.388 -22.956  0.00  0.00    -0.222 NA
ATOM     12  C   UNL     1      34.666 -14.645 -23.781  0.00  0.00    +0.310 C 
ATOM     13  C   UNL     1      34.940 -17.117 -24.045  0.00  0.00    +0.167 C 
ATOM     14  C   UNL     1      35.356 -19.464 -24.011  0.00  0.00    +0.059 C 
ATOM     15  C   UNL     1      35.835 -18.747 -22.933  0.00  0.00    +0.108 C 
ATOM     16  H   UNL     1      33.648 -13.856 -25.371  0.00  0.00    +0.156 HD
ATOM     17  H   UNL     1      34.011 -15.824 -25.318  0.00  0.00    +0.158 HD
ENDBRANCH   4   9
BRANCH   1  18
ATOM     18  S   UNL     1      31.940  -9.843 -21.730  0.00  0.00    +0.063 S 
ATOM     19  O   UNL     1      30.732 -10.634 -21.833  0.00  0.00    -0.153 OA
ATOM     20  O   UNL     1      32.656  -9.732 -20.477  0.00  0.00    -0.153 OA
BRANCH  18  21
ATOM     21  N   UNL     1      31.630  -8.270 -22.334  0.00  0.00    -0.152 NA
ATOM     22  N   UNL     1      31.721  -5.653 -23.424  0.00  0.00    -0.290 N 
ATOM     23  C   UNL     1      32.212  -7.153 -21.538  0.00  0.00    +0.117 C 
ATOM     24  C   UNL     1      31.887  -8.080 -23.789  0.00  0.00    +0.117 C 
ATOM     25  C   UNL     1      31.581  -5.834 -21.973  0.00  0.00    +0.111 C 
ATOM     26  C   UNL     1      31.256  -6.771 -24.255  0.00  0.00    +0.111 C 
ATOM     27  N   UNL     1      30.921  -3.399 -23.281  0.00  0.00    -0.229 NA
ATOM     28  C   UNL     1      31.666  -4.348 -23.927  0.00  0.00    +0.132 C 
ATOM     29  C   UNL     1      32.385  -4.051 -25.092  0.00  0.00    +0.034 C 
ATOM     30  C   UNL     1      32.339  -2.758 -25.603  0.00  0.00    +0.004 C 
ATOM     31  C   UNL     1      30.903  -2.154 -23.808  0.00  0.00    +0.100 C 
ATOM     32  C   UNL     1      31.588  -1.786 -24.955  0.00  0.00    +0.021 C 
ENDBRANCH  18  21
ENDBRANCH   1  18
TORSDOF 3
ENDMDL
MODEL 6
REMARK VINA RESULT:      -8.9      5.435      9.558
REMARK  Name = 12087505
REMARK  3 active torsions:
REMARK  status: ('A' for Active; 'I' for Inactive)
REMARK    1  A    between atoms: C_1  and  S_18
REMARK    2  A    between atoms: C_4  and  N_9
REMARK    3  A    between atoms: S_18  and  N_21
REMARK                            x       y       z     vdW  Elec       q    Type
REMARK                         _______ _______ _______ _____ _____    ______ ____
ROOT
ATOM      1  C   UNL     1      33.071 -10.952 -23.147  0.00  0.00    +0.123 C 
ATOM      2  C   UNL     1      33.257 -12.324 -23.166  0.00  0.00    +0.035 C 
ATOM      3  C   UNL     1      33.725 -10.123 -24.044  0.00  0.00    +0.020 C 
ATOM      4  C   UNL     1      34.120 -12.884 -24.109  0.00  0.00    +0.053 C 
ATOM      5  C   UNL     1      34.588 -10.682 -24.987  0.00  0.00    +0.003 C 
ATOM      6  C   UNL     1      34.784 -12.063 -25.019  0.00  0.00    +0.015 C 
ENDROOT
BRANCH   4   9
ATOM      7  S   UNL     1      35.179 -19.036 -23.705  0.00  0.00    -0.051 S 
ATOM      8  O   UNL     1      35.094 -14.740 -21.985  0.00  0.00    -0.252 OA
ATOM      9  N   UNL     1      34.317 -14.265 -24.141  0.00  0.00    -0.268 N 
ATOM     10  N   UNL     1      34.831 -16.442 -23.575  0.00  0.00    -0.248 N 
ATOM     11  N   UNL     1      35.643 -17.585 -21.616  0.00  0.00    -0.222 NA
ATOM     12  C   UNL     1      34.783 -15.118 -23.110  0.00  0.00    +0.310 C 
ATOM     13  C   UNL     1      35.237 -17.563 -22.849  0.00  0.00    +0.167 C 
ATOM     14  C   UNL     1      35.758 -19.822 -22.295  0.00  0.00    +0.059 C 
ATOM     15  C   UNL     1      35.946 -18.893 -21.292  0.00  0.00    +0.108 C 
ATOM     16  H   UNL     1      34.105 -14.705 -24.996  0.00  0.00    +0.156 HD
ATOM     17  H   UNL     1      34.549 -16.594 -24.506  0.00  0.00    +0.158 HD
ENDBRANCH   4   9
BRANCH   1  18
ATOM     18  S   UNL     1      31.981 -10.243 -21.953  0.00  0.00    +0.063 S 
ATOM     19  O   UNL     1      30.654 -10.765 -22.199  0.00  0.00    -0.153 OA
ATOM     20  O   UNL     1      32.603 -10.368 -20.652  0.00  0.00    -0.153 OA
BRANCH  18  21
ATOM     21  N   UNL     1      32.034  -8.602 -22.439  0.00  0.00    -0.152 NA
ATOM     22  N   UNL     1      31.551  -5.870 -23.028  0.00  0.00    -0.290 N 
ATOM     23  C   UNL     1      31.107  -8.233 -23.546  0.00  0.00    +0.117 C 
ATOM     24  C   UNL     1      31.971  -7.604 -21.335  0.00  0.00    +0.117 C 
ATOM     25  C   UNL     1      31.499  -6.868 -24.105  0.00  0.00    +0.111 C 
ATOM     26  C   UNL     1      32.370  -6.229 -21.864  0.00  0.00    +0.111 C 
ATOM     27  N   UNL     1      31.812  -4.089 -24.610  0.00  0.00    -0.229 NA
ATOM     28  C   UNL     1      31.400  -4.523 -23.380  0.00  0.00    +0.132 C 
ATOM     29  C   UNL     1      30.825  -3.650 -22.447  0.00  0.00    +0.034 C 
ATOM     30  C   UNL     1      30.669  -2.310 -22.782  0.00  0.00    +0.004 C 
ATOM     31  C   UNL     1      31.643  -2.779 -24.900  0.00  0.00    +0.100 C 
ATOM     32  C   UNL     1      31.082  -1.858 -24.030  0.00  0.00    +0.021 C 
ENDBRANCH  18  21
ENDBRANCH   1  18
TORSDOF 3
ENDMDL
MODEL 7
REMARK VINA RESULT:      -8.9      2.200      2.819
REMARK  Name = 12087505
REMARK  3 active torsions:
REMARK  status: ('A' for Active; 'I' for Inactive)
REMARK    1  A    between atoms: C_1  and  S_18
REMARK    2  A    between atoms: C_4  and  N_9
REMARK    3  A    between atoms: S_18  and  N_21
REMARK                            x       y       z     vdW  Elec       q    Type
REMARK                         _______ _______ _______ _____ _____    ______ ____
ROOT
ATOM      1  C   UNL     1      35.317 -18.430 -23.728  0.00  0.00    +0.123 C 
ATOM      2  C   UNL     1      34.573 -19.184 -22.834  0.00  0.00    +0.035 C 
ATOM      3  C   UNL     1      36.641 -18.113 -23.476  0.00  0.00    +0.020 C 
ATOM      4  C   UNL     1      35.171 -19.633 -21.657  0.00  0.00    +0.053 C 
ATOM      5  C   UNL     1      37.241 -18.563 -22.299  0.00  0.00    +0.003 C 
ATOM      6  C   UNL     1      36.505 -19.324 -21.390  0.00  0.00    +0.015 C 
ENDROOT
BRANCH   4   9
ATOM      7  S   UNL     1      32.380 -23.213 -17.352  0.00  0.00    -0.051 S 
ATOM      8  O   UNL     1      36.094 -21.395 -19.433  0.00  0.00    -0.252 OA
ATOM      9  N   UNL     1      34.436 -20.394 -20.748  0.00  0.00    -0.268 N 
ATOM     10  N   UNL     1      33.822 -21.806 -19.028  0.00  0.00    -0.248 N 
ATOM     11  N   UNL     1      34.964 -23.113 -17.358  0.00  0.00    -0.222 NA
ATOM     12  C   UNL     1      34.909 -21.223 -19.700  0.00  0.00    +0.310 C 
ATOM     13  C   UNL     1      33.888 -22.681 -17.942  0.00  0.00    +0.167 C 
ATOM     14  C   UNL     1      33.221 -24.133 -16.174  0.00  0.00    +0.059 C 
ATOM     15  C   UNL     1      34.581 -23.955 -16.332  0.00  0.00    +0.108 C 
ATOM     16  H   UNL     1      33.457 -20.351 -20.849  0.00  0.00    +0.156 HD
ATOM     17  H   UNL     1      32.924 -21.574 -19.357  0.00  0.00    +0.158 HD
ENDBRANCH   4   9
BRANCH   1  18
ATOM     18  S   UNL     1      34.559 -17.858 -25.217  0.00  0.00    +0.063 S 
ATOM     19  O   UNL     1      35.599 -17.696 -26.209  0.00  0.00    -0.153 OA
ATOM     20  O   UNL     1      33.403 -18.689 -25.475  0.00  0.00    -0.153 OA
BRANCH  18  21
ATOM     21  N   UNL     1      34.030 -16.311 -24.705  0.00  0.00    -0.152 NA
ATOM     22  N   UNL     1      33.725 -13.583 -23.995  0.00  0.00    -0.290 N 
ATOM     23  C   UNL     1      34.686 -15.786 -23.474  0.00  0.00    +0.117 C 
ATOM     24  C   UNL     1      33.975 -15.269 -25.768  0.00  0.00    +0.117 C 
ATOM     25  C   UNL     1      33.893 -14.595 -22.944  0.00  0.00    +0.111 C 
ATOM     26  C   UNL     1      33.177 -14.068 -25.268  0.00  0.00    +0.111 C 
ATOM     27  N   UNL     1      32.824 -12.014 -22.424  0.00  0.00    -0.229 NA
ATOM     28  C   UNL     1      33.483 -12.263 -23.597  0.00  0.00    +0.132 C 
ATOM     29  C   UNL     1      33.931 -11.223 -24.422  0.00  0.00    +0.034 C 
ATOM     30  C   UNL     1      33.697  -9.907 -24.040  0.00  0.00    +0.004 C 
ATOM     31  C   UNL     1      32.617 -10.722 -22.085  0.00  0.00    +0.100 C 
ATOM     32  C   UNL     1      33.030  -9.642 -22.850  0.00  0.00    +0.021 C 
ENDBRANCH  18  21
ENDBRANCH   1  18
TORSDOF 3
ENDMDL
MODEL 8
REMARK VINA RESULT:      -8.8      4.420     10.136
REMARK  Name = 12087505
REMARK  3 active torsions:
REMARK  status: ('A' for Active; 'I' for Inactive)
REMARK    1  A    between atoms: C_1  and  S_18
REMARK    2  A    between atoms: C_4  and  N_9
REMARK    3  A    between atoms: S_18  and  N_21
REMARK                            x       y       z     vdW  Elec       q    Type
REMARK                         _______ _______ _______ _____ _____    ______ ____
ROOT
ATOM      1  C   UNL     1      35.468 -23.689 -15.348  0.00  0.00    +0.123 C 
ATOM      2  C   UNL     1      35.090 -23.148 -16.566  0.00  0.00    +0.035 C 
ATOM      3  C   UNL     1      36.769 -23.584 -14.884  0.00  0.00    +0.020 C 
ATOM      4  C   UNL     1      36.040 -22.482 -17.341  0.00  0.00    +0.053 C 
ATOM      5  C   UNL     1      37.719 -22.918 -15.659  0.00  0.00    +0.003 C 
ATOM      6  C   UNL     1      37.354 -22.367 -16.888  0.00  0.00    +0.015 C 
ENDROOT
BRANCH   4   9
ATOM      7  S   UNL     1      34.860 -19.657 -22.796  0.00  0.00    -0.051 S 
ATOM      8  O   UNL     1      37.310 -20.293 -18.921  0.00  0.00    -0.252 OA
ATOM      9  N   UNL     1      35.675 -21.931 -18.570  0.00  0.00    -0.268 N 
ATOM     10  N   UNL     1      35.602 -20.647 -20.486  0.00  0.00    -0.248 N 
ATOM     11  N   UNL     1      36.912 -18.864 -21.438  0.00  0.00    -0.222 NA
ATOM     12  C   UNL     1      36.304 -20.888 -19.295  0.00  0.00    +0.310 C 
ATOM     13  C   UNL     1      35.916 -19.696 -21.459  0.00  0.00    +0.167 C 
ATOM     14  C   UNL     1      35.813 -18.389 -23.449  0.00  0.00    +0.059 C 
ATOM     15  C   UNL     1      36.855 -18.104 -22.590  0.00  0.00    +0.108 C 
ATOM     16  H   UNL     1      34.872 -22.318 -18.989  0.00  0.00    +0.156 HD
ATOM     17  H   UNL     1      34.808 -21.206 -20.652  0.00  0.00    +0.158 HD
ENDBRANCH   4   9
BRANCH   1  18
ATOM     18  S   UNL     1      34.267 -24.533 -14.367  0.00  0.00    +0.063 S 
ATOM     19  O   UNL     1      34.343 -25.942 -14.690  0.00  0.00    -0.153 OA
ATOM     20  O   UNL     1      34.401 -24.071 -13.003  0.00  0.00    -0.153 OA
BRANCH  18  21
ATOM     21  N   UNL     1      32.829 -23.885 -15.036  0.00  0.00    -0.152 NA
ATOM     22  N   UNL     1      30.174 -23.194 -15.755  0.00  0.00    -0.290 N 
ATOM     23  C   UNL     1      31.997 -24.844 -15.815  0.00  0.00    +0.117 C 
ATOM     24  C   UNL     1      31.989 -23.088 -14.098  0.00  0.00    +0.117 C 
ATOM     25  C   UNL     1      30.960 -24.075 -16.629  0.00  0.00    +0.111 C 
ATOM     26  C   UNL     1      30.949 -22.298 -14.887  0.00  0.00    +0.111 C 
ATOM     27  N   UNL     1      28.652 -22.686 -17.534  0.00  0.00    -0.229 NA
ATOM     28  C   UNL     1      28.904 -22.804 -16.195  0.00  0.00    +0.132 C 
ATOM     29  C   UNL     1      27.916 -22.542 -15.236  0.00  0.00    +0.034 C 
ATOM     30  C   UNL     1      26.650 -22.152 -15.659  0.00  0.00    +0.004 C 
ATOM     31  C   UNL     1      27.409 -22.306 -17.907  0.00  0.00    +0.100 C 
ATOM     32  C   UNL     1      26.383 -22.031 -17.017  0.00  0.00    +0.021 C 
ENDBRANCH  18  21
ENDBRANCH   1  18
TORSDOF 3
ENDMDL
MODEL 9
REMARK VINA RESULT:      -8.5      4.216     11.481
REMARK  Name = 12087505
REMARK  3 active torsions:
REMARK  status: ('A' for Active; 'I' for Inactive)
REMARK    1  A    between atoms: C_1  and  S_18
REMARK    2  A    between atoms: C_4  and  N_9
REMARK    3  A    between atoms: S_18  and  N_21
REMARK                            x       y       z     vdW  Elec       q    Type
REMARK                         _______ _______ _______ _____ _____    ______ ____
ROOT
ATOM      1  C   UNL     1      34.135 -14.600 -24.019  0.00  0.00    +0.123 C 
ATOM      2  C   UNL     1      34.031 -13.278 -24.417  0.00  0.00    +0.035 C 
ATOM      3  C   UNL     1      33.826 -14.991 -22.727  0.00  0.00    +0.020 C 
ATOM      4  C   UNL     1      33.606 -12.319 -23.496  0.00  0.00    +0.053 C 
ATOM      5  C   UNL     1      33.400 -14.033 -21.806  0.00  0.00    +0.003 C 
ATOM      6  C   UNL     1      33.290 -12.697 -22.192  0.00  0.00    +0.015 C 
ENDROOT
BRANCH   4   9
ATOM      7  S   UNL     1      32.766  -6.251 -24.766  0.00  0.00    -0.051 S 
ATOM      8  O   UNL     1      32.090 -10.075 -22.246  0.00  0.00    -0.252 OA
ATOM      9  N   UNL     1      33.496 -10.983 -23.882  0.00  0.00    -0.268 N 
ATOM     10  N   UNL     1      32.931  -8.748 -23.985  0.00  0.00    -0.248 N 
ATOM     11  N   UNL     1      31.586  -7.231 -22.684  0.00  0.00    -0.222 NA
ATOM     12  C   UNL     1      32.764  -9.939 -23.262  0.00  0.00    +0.310 C 
ATOM     13  C   UNL     1      32.366  -7.507 -23.685  0.00  0.00    +0.167 C 
ATOM     14  C   UNL     1      31.802  -5.195 -23.819  0.00  0.00    +0.059 C 
ATOM     15  C   UNL     1      31.257  -5.891 -22.759  0.00  0.00    +0.108 C 
ATOM     16  H   UNL     1      33.992 -10.731 -24.695  0.00  0.00    +0.156 HD
ATOM     17  H   UNL     1      33.503  -8.792 -24.785  0.00  0.00    +0.158 HD
ENDBRANCH   4   9
BRANCH   1  18
ATOM     18  S   UNL     1      34.676 -15.813 -25.183  0.00  0.00    +0.063 S 
ATOM     19  O   UNL     1      33.525 -16.229 -25.956  0.00  0.00    -0.153 OA
ATOM     20  O   UNL     1      35.868 -15.310 -25.830  0.00  0.00    -0.153 OA
BRANCH  18  21
ATOM     21  N   UNL     1      35.115 -17.077 -24.112  0.00  0.00    -0.152 NA
ATOM     22  N   UNL     1      35.313 -19.031 -22.067  0.00  0.00    -0.290 N 
ATOM     23  C   UNL     1      35.391 -16.658 -22.709  0.00  0.00    +0.117 C 
ATOM     24  C   UNL     1      34.238 -18.280 -24.148  0.00  0.00    +0.117 C 
ATOM     25  C   UNL     1      36.095 -17.792 -21.969  0.00  0.00    +0.111 C 
ATOM     26  C   UNL     1      34.924 -19.436 -23.424  0.00  0.00    +0.111 C 
ATOM     27  N   UNL     1      36.733 -20.125 -20.477  0.00  0.00    -0.229 NA
ATOM     28  C   UNL     1      35.513 -20.008 -21.084  0.00  0.00    +0.132 C 
ATOM     29  C   UNL     1      34.442 -20.847 -20.749  0.00  0.00    +0.034 C 
ATOM     30  C   UNL     1      34.626 -21.822 -19.775  0.00  0.00    +0.004 C 
ATOM     31  C   UNL     1      36.874 -21.084 -19.534  0.00  0.00    +0.100 C 
ATOM     32  C   UNL     1      35.861 -21.949 -19.151  0.00  0.00    +0.021 C 
ENDBRANCH  18  21
ENDBRANCH   1  18
TORSDOF 3
ENDMDL
