MODEL 1
REMARK VINA RESULT:     -11.3      0.000      0.000
REMARK  Name = 24778473
REMARK  2 active torsions:
REMARK  status: ('A' for Active; 'I' for Inactive)
REMARK    1  A    between atoms: C_11  and  C_22
REMARK    2  A    between atoms: C_17  and  N_29
REMARK                            x       y       z     vdW  Elec       q    Type
REMARK                         _______ _______ _______ _____ _____    ______ ____
ROOT
ATOM      1  O   UNL     1      33.192 -22.471 -18.218  0.00  0.00    -0.270 OA
ATOM      2  O   UNL     1      37.275 -23.020 -16.171  0.00  0.00    -0.270 OA
ATOM      3  N   UNL     1      31.551 -24.844 -13.809  0.00  0.00    -0.353 N 
ATOM      4  N   UNL     1      35.403 -22.581 -17.490  0.00  0.00    -0.248 N 
ATOM      5  C   UNL     1      32.636 -23.878 -15.509  0.00  0.00    +0.022 A 
ATOM      6  C   UNL     1      33.815 -23.439 -16.124  0.00  0.00    +0.060 C 
ATOM      7  C   UNL     1      32.800 -24.482 -14.252  0.00  0.00    +0.057 A 
ATOM      8  C   UNL     1      31.232 -23.894 -15.806  0.00  0.00    +0.018 A 
ATOM      9  C   UNL     1      35.055 -23.601 -15.508  0.00  0.00    +0.058 C 
ATOM     10  C   UNL     1      30.588 -24.502 -14.725  0.00  0.00    +0.057 A 
ATOM     11  C   UNL     1      35.204 -24.195 -14.276  0.00  0.00    +0.007 C 
ATOM     12  C   UNL     1      34.055 -24.649 -13.624  0.00  0.00    +0.017 C 
ATOM     13  C   UNL     1      34.044 -22.777 -17.408  0.00  0.00    +0.252 C 
ATOM     14  C   UNL     1      36.079 -23.048 -16.391  0.00  0.00    +0.252 C 
ATOM     15  C   UNL     1      30.432 -23.455 -16.883  0.00  0.00    +0.016 C 
ATOM     16  C   UNL     1      29.201 -24.691 -14.669  0.00  0.00    +0.018 C 
ATOM     17  C   UNL     1      29.044 -23.636 -16.842  0.00  0.00    +0.051 C 
ATOM     18  C   UNL     1      28.438 -24.245 -15.749  0.00  0.00    +0.016 C 
ATOM     19  H   UNL     1      31.372 -25.289 -12.950  0.00  0.00    +0.166 HD
ATOM     20  H   UNL     1      35.844 -22.151 -18.257  0.00  0.00    +0.158 HD
ENDROOT
BRANCH  11  22
ATOM     21 CL   UNL     1      36.883 -26.651 -15.085  0.00  0.00    -0.082 Cl
ATOM     22  C   UNL     1      36.493 -24.361 -13.638  0.00  0.00    +0.011 C 
ATOM     23  C   UNL     1      37.328 -25.438 -13.936  0.00  0.00    +0.058 C 
ATOM     24  C   UNL     1      36.893 -23.405 -12.704  0.00  0.00    +0.001 C 
ATOM     25  C   UNL     1      38.563 -25.560 -13.299  0.00  0.00    +0.011 C 
ATOM     26  C   UNL     1      38.127 -23.528 -12.067  0.00  0.00    +0.000 C 
ATOM     27  C   UNL     1      38.962 -24.605 -12.365  0.00  0.00    +0.001 C 
ENDBRANCH  11  22
BRANCH  17  29
ATOM     28  O   UNL     1      26.591 -21.851 -16.910  0.00  0.00    -0.265 OA
ATOM     29  N   UNL     1      28.260 -23.199 -17.911  0.00  0.00    -0.277 N 
ATOM     30  C   UNL     1      27.140 -22.375 -17.869  0.00  0.00    +0.303 C 
ATOM     31  H   UNL     1      28.533 -23.512 -18.803  0.00  0.00    +0.155 HD
ENDBRANCH  17  29
TORSDOF 2
ENDMDL
MODEL 2
REMARK VINA RESULT:     -10.6      2.337      7.557
REMARK  Name = 24778473
REMARK  2 active torsions:
REMARK  status: ('A' for Active; 'I' for Inactive)
REMARK    1  A    between atoms: C_11  and  C_22
REMARK    2  A    between atoms: C_17  and  N_29
REMARK                            x       y       z     vdW  Elec       q    Type
REMARK                         _______ _______ _______ _____ _____    ______ ____
ROOT
ATOM      1  O   UNL     1      36.320 -23.172 -17.235  0.00  0.00    -0.270 OA
ATOM      2  O   UNL     1      31.828 -22.564 -18.019  0.00  0.00    -0.270 OA
ATOM      3  N   UNL     1      34.469 -24.943 -12.631  0.00  0.00    -0.353 N 
ATOM      4  N   UNL     1      34.154 -22.731 -17.970  0.00  0.00    -0.248 N 
ATOM      5  C   UNL     1      34.844 -24.126 -14.678  0.00  0.00    +0.022 A 
ATOM      6  C   UNL     1      34.390 -23.599 -15.894  0.00  0.00    +0.060 C 
ATOM      7  C   UNL     1      33.842 -24.446 -13.747  0.00  0.00    +0.057 A 
ATOM      8  C   UNL     1      36.104 -24.452 -14.072  0.00  0.00    +0.018 A 
ATOM      9  C   UNL     1      33.030 -23.413 -16.137  0.00  0.00    +0.058 C 
ATOM     10  C   UNL     1      35.831 -24.959 -12.799  0.00  0.00    +0.057 A 
ATOM     11  C   UNL     1      32.057 -23.729 -15.217  0.00  0.00    +0.007 C 
ATOM     12  C   UNL     1      32.463 -24.259 -13.990  0.00  0.00    +0.017 C 
ATOM     13  C   UNL     1      35.116 -23.156 -17.083  0.00  0.00    +0.252 C 
ATOM     14  C   UNL     1      32.879 -22.852 -17.478  0.00  0.00    +0.252 C 
ATOM     15  C   UNL     1      37.456 -24.372 -14.471  0.00  0.00    +0.016 C 
ATOM     16  C   UNL     1      36.832 -25.383 -11.915  0.00  0.00    +0.018 C 
ATOM     17  C   UNL     1      38.468 -24.792 -13.599  0.00  0.00    +0.051 C 
ATOM     18  C   UNL     1      38.158 -25.291 -12.338  0.00  0.00    +0.016 C 
ATOM     19  H   UNL     1      34.003 -25.248 -11.819  0.00  0.00    +0.166 HD
ATOM     20  H   UNL     1      34.359 -22.376 -18.865  0.00  0.00    +0.158 HD
ENDROOT
BRANCH  11  22
ATOM     21 CL   UNL     1      30.455 -26.158 -16.239  0.00  0.00    -0.082 Cl
ATOM     22  C   UNL     1      30.645 -23.537 -15.473  0.00  0.00    +0.011 C 
ATOM     23  C   UNL     1      29.834 -24.573 -15.936  0.00  0.00    +0.058 C 
ATOM     24  C   UNL     1      30.101 -22.274 -15.242  0.00  0.00    +0.001 C 
ATOM     25  C   UNL     1      28.477 -24.345 -16.169  0.00  0.00    +0.011 C 
ATOM     26  C   UNL     1      28.744 -22.046 -15.476  0.00  0.00    +0.000 C 
ATOM     27  C   UNL     1      27.933 -23.082 -15.938  0.00  0.00    +0.001 C 
ENDBRANCH  11  22
BRANCH  17  29
ATOM     28  O   UNL     1      40.282 -26.842 -14.906  0.00  0.00    -0.265 OA
ATOM     29  N   UNL     1      39.802 -24.709 -14.000  0.00  0.00    -0.277 N 
ATOM     30  C   UNL     1      40.578 -25.696 -14.598  0.00  0.00    +0.303 C 
ATOM     31  H   UNL     1      40.248 -23.846 -13.840  0.00  0.00    +0.155 HD
ENDBRANCH  17  29
TORSDOF 2
ENDMDL
MODEL 3
REMARK VINA RESULT:     -10.5      3.204      5.736
REMARK  Name = 24778473
REMARK  2 active torsions:
REMARK  status: ('A' for Active; 'I' for Inactive)
REMARK    1  A    between atoms: C_11  and  C_22
REMARK    2  A    between atoms: C_17  and  N_29
REMARK                            x       y       z     vdW  Elec       q    Type
REMARK                         _______ _______ _______ _____ _____    ______ ____
ROOT
ATOM      1  O   UNL     1      32.483 -22.713 -18.381  0.00  0.00    -0.270 OA
ATOM      2  O   UNL     1      33.542 -24.864 -14.455  0.00  0.00    -0.270 OA
ATOM      3  N   UNL     1      37.601 -21.481 -18.163  0.00  0.00    -0.353 N 
ATOM      4  N   UNL     1      32.653 -23.903 -16.386  0.00  0.00    -0.248 N 
ATOM      5  C   UNL     1      35.505 -22.209 -17.890  0.00  0.00    +0.022 A 
ATOM      6  C   UNL     1      34.532 -22.915 -17.171  0.00  0.00    +0.060 C 
ATOM      7  C   UNL     1      36.792 -22.215 -17.330  0.00  0.00    +0.057 A 
ATOM      8  C   UNL     1      35.573 -21.438 -19.099  0.00  0.00    +0.018 A 
ATOM      9  C   UNL     1      34.848 -23.571 -15.981  0.00  0.00    +0.058 C 
ATOM     10  C   UNL     1      36.893 -21.002 -19.237  0.00  0.00    +0.057 A 
ATOM     11  C   UNL     1      36.113 -23.568 -15.441  0.00  0.00    +0.007 C 
ATOM     12  C   UNL     1      37.116 -22.877 -16.125  0.00  0.00    +0.017 C 
ATOM     13  C   UNL     1      33.110 -23.133 -17.430  0.00  0.00    +0.252 C 
ATOM     14  C   UNL     1      33.634 -24.207 -15.475  0.00  0.00    +0.252 C 
ATOM     15  C   UNL     1      34.649 -21.061 -20.098  0.00  0.00    +0.016 C 
ATOM     16  C   UNL     1      37.330 -20.216 -20.311  0.00  0.00    +0.018 C 
ATOM     17  C   UNL     1      35.071 -20.276 -21.179  0.00  0.00    +0.051 C 
ATOM     18  C   UNL     1      36.394 -19.860 -21.282  0.00  0.00    +0.016 C 
ATOM     19  H   UNL     1      38.560 -21.321 -18.011  0.00  0.00    +0.166 HD
ATOM     20  H   UNL     1      31.721 -24.205 -16.300  0.00  0.00    +0.158 HD
ENDROOT
BRANCH  11  22
ATOM     21 CL   UNL     1      36.944 -26.531 -15.632  0.00  0.00    -0.082 Cl
ATOM     22  C   UNL     1      36.438 -24.250 -14.206  0.00  0.00    +0.011 C 
ATOM     23  C   UNL     1      36.826 -25.590 -14.186  0.00  0.00    +0.058 C 
ATOM     24  C   UNL     1      36.357 -23.529 -13.015  0.00  0.00    +0.001 C 
ATOM     25  C   UNL     1      37.132 -26.209 -12.974  0.00  0.00    +0.011 C 
ATOM     26  C   UNL     1      36.663 -24.149 -11.803  0.00  0.00    +0.000 C 
ATOM     27  C   UNL     1      37.051 -25.488 -11.783  0.00  0.00    +0.001 C 
ENDBRANCH  11  22
BRANCH  17  29
ATOM     28  O   UNL     1      35.482 -19.380 -24.048  0.00  0.00    -0.265 OA
ATOM     29  N   UNL     1      34.152 -19.907 -22.163  0.00  0.00    -0.277 N 
ATOM     30  C   UNL     1      34.413 -19.504 -23.468  0.00  0.00    +0.303 C 
ATOM     31  H   UNL     1      33.204 -19.937 -21.901  0.00  0.00    +0.155 HD
ENDBRANCH  17  29
TORSDOF 2
ENDMDL
MODEL 4
REMARK VINA RESULT:     -10.0     14.149     16.324
REMARK  Name = 24778473
REMARK  2 active torsions:
REMARK  status: ('A' for Active; 'I' for Inactive)
REMARK    1  A    between atoms: C_11  and  C_22
REMARK    2  A    between atoms: C_17  and  N_29
REMARK                            x       y       z     vdW  Elec       q    Type
REMARK                         _______ _______ _______ _____ _____    ______ ____
ROOT
ATOM      1  O   UNL     1      31.202 -10.109 -20.825  0.00  0.00    -0.270 OA
ATOM      2  O   UNL     1      32.340 -14.438 -21.889  0.00  0.00    -0.270 OA
ATOM      3  N   UNL     1      34.673  -9.093 -24.657  0.00  0.00    -0.353 N 
ATOM      4  N   UNL     1      31.534 -12.399 -21.091  0.00  0.00    -0.248 N 
ATOM      5  C   UNL     1      33.291  -9.932 -23.112  0.00  0.00    +0.022 A 
ATOM      6  C   UNL     1      32.714 -11.015 -22.438  0.00  0.00    +0.060 C 
ATOM      7  C   UNL     1      34.218 -10.269 -24.112  0.00  0.00    +0.057 A 
ATOM      8  C   UNL     1      33.209  -8.500 -23.077  0.00  0.00    +0.018 A 
ATOM      9  C   UNL     1      33.054 -12.330 -22.757  0.00  0.00    +0.058 C 
ATOM     10  C   UNL     1      34.082  -8.012 -24.053  0.00  0.00    +0.057 A 
ATOM     11  C   UNL     1      33.964 -12.648 -23.738  0.00  0.00    +0.007 C 
ATOM     12  C   UNL     1      34.566 -11.599 -24.438  0.00  0.00    +0.017 C 
ATOM     13  C   UNL     1      31.729 -11.064 -21.359  0.00  0.00    +0.252 C 
ATOM     14  C   UNL     1      32.291 -13.222 -21.886  0.00  0.00    +0.252 C 
ATOM     15  C   UNL     1      32.481  -7.558 -22.318  0.00  0.00    +0.016 C 
ATOM     16  C   UNL     1      34.262  -6.645 -24.302  0.00  0.00    +0.018 C 
ATOM     17  C   UNL     1      32.650  -6.188 -22.555  0.00  0.00    +0.051 C 
ATOM     18  C   UNL     1      33.529  -5.739 -23.535  0.00  0.00    +0.016 C 
ATOM     19  H   UNL     1      35.334  -9.034 -25.383  0.00  0.00    +0.166 HD
ATOM     20  H   UNL     1      30.915 -12.731 -20.401  0.00  0.00    +0.158 HD
ENDROOT
BRANCH  11  22
ATOM     21 CL   UNL     1      33.103 -13.706 -26.503  0.00  0.00    -0.082 Cl
ATOM     22  C   UNL     1      34.314 -14.013 -24.068  0.00  0.00    +0.011 C 
ATOM     23  C   UNL     1      33.972 -14.585 -25.293  0.00  0.00    +0.058 C 
ATOM     24  C   UNL     1      35.016 -14.759 -23.121  0.00  0.00    +0.001 C 
ATOM     25  C   UNL     1      34.330 -15.904 -25.572  0.00  0.00    +0.011 C 
ATOM     26  C   UNL     1      35.373 -16.078 -23.400  0.00  0.00    +0.000 C 
ATOM     27  C   UNL     1      35.031 -16.650 -24.625  0.00  0.00    +0.001 C 
ENDBRANCH  11  22
BRANCH  17  29
ATOM     28  O   UNL     1      30.581  -4.129 -23.382  0.00  0.00    -0.265 OA
ATOM     29  N   UNL     1      31.927  -5.263 -21.800  0.00  0.00    -0.277 N 
ATOM     30  C   UNL     1      30.987  -4.342 -22.248  0.00  0.00    +0.303 C 
ATOM     31  H   UNL     1      32.105  -5.264 -20.832  0.00  0.00    +0.155 HD
ENDBRANCH  17  29
TORSDOF 2
ENDMDL
MODEL 5
REMARK VINA RESULT:      -9.5      9.209     11.482
REMARK  Name = 24778473
REMARK  2 active torsions:
REMARK  status: ('A' for Active; 'I' for Inactive)
REMARK    1  A    between atoms: C_11  and  C_22
REMARK    2  A    between atoms: C_17  and  N_29
REMARK                            x       y       z     vdW  Elec       q    Type
REMARK                         _______ _______ _______ _____ _____    ______ ____
ROOT
ATOM      1  O   UNL     1      34.563 -16.975 -26.312  0.00  0.00    -0.270 OA
ATOM      2  O   UNL     1      35.451 -20.716 -23.785  0.00  0.00    -0.270 OA
ATOM      3  N   UNL     1      34.799 -14.688 -21.571  0.00  0.00    -0.353 N 
ATOM      4  N   UNL     1      34.999 -19.057 -25.362  0.00  0.00    -0.248 N 
ATOM      5  C   UNL     1      34.780 -16.018 -23.368  0.00  0.00    +0.022 A 
ATOM      6  C   UNL     1      34.900 -17.279 -23.966  0.00  0.00    +0.060 C 
ATOM      7  C   UNL     1      34.950 -15.992 -21.974  0.00  0.00    +0.057 A 
ATOM      8  C   UNL     1      34.518 -14.670 -23.787  0.00  0.00    +0.018 A 
ATOM      9  C   UNL     1      35.170 -18.416 -23.206  0.00  0.00    +0.058 C 
ATOM     10  C   UNL     1      34.538 -13.870 -22.642  0.00  0.00    +0.057 A 
ATOM     11  C   UNL     1      35.333 -18.379 -21.840  0.00  0.00    +0.007 C 
ATOM     12  C   UNL     1      35.223 -17.142 -21.200  0.00  0.00    +0.017 C 
ATOM     13  C   UNL     1      34.790 -17.698 -25.362  0.00  0.00    +0.252 C 
ATOM     14  C   UNL     1      35.233 -19.563 -24.108  0.00  0.00    +0.252 C 
ATOM     15  C   UNL     1      34.265 -14.039 -25.024  0.00  0.00    +0.016 C 
ATOM     16  C   UNL     1      34.320 -12.486 -22.672  0.00  0.00    +0.018 C 
ATOM     17  C   UNL     1      34.045 -12.656 -25.071  0.00  0.00    +0.051 C 
ATOM     18  C   UNL     1      34.073 -11.892 -23.909  0.00  0.00    +0.016 C 
ATOM     19  H   UNL     1      34.869 -14.382 -20.638  0.00  0.00    +0.166 HD
ATOM     20  H   UNL     1      34.983 -19.610 -26.176  0.00  0.00    +0.158 HD
ENDROOT
BRANCH  11  22
ATOM     21 CL   UNL     1      32.945 -20.161 -21.049  0.00  0.00    -0.082 Cl
ATOM     22  C   UNL     1      35.615 -19.561 -21.053  0.00  0.00    +0.011 C 
ATOM     23  C   UNL     1      34.605 -20.432 -20.646  0.00  0.00    +0.058 C 
ATOM     24  C   UNL     1      36.941 -19.819 -20.706  0.00  0.00    +0.001 C 
ATOM     25  C   UNL     1      34.919 -21.561 -19.890  0.00  0.00    +0.011 C 
ATOM     26  C   UNL     1      37.256 -20.948 -19.949  0.00  0.00    +0.000 C 
ATOM     27  C   UNL     1      36.245 -21.819 -19.542  0.00  0.00    +0.001 C 
ENDBRANCH  11  22
BRANCH  17  29
ATOM     28  O   UNL     1      34.030 -13.773 -27.891  0.00  0.00    -0.265 OA
ATOM     29  N   UNL     1      33.795 -12.039 -26.298  0.00  0.00    -0.277 N 
ATOM     30  C   UNL     1      33.805 -12.617 -27.563  0.00  0.00    +0.303 C 
ATOM     31  H   UNL     1      33.585 -11.078 -26.263  0.00  0.00    +0.155 HD
ENDBRANCH  17  29
TORSDOF 2
ENDMDL
MODEL 6
REMARK VINA RESULT:      -9.4      5.296      8.466
REMARK  Name = 24778473
REMARK  2 active torsions:
REMARK  status: ('A' for Active; 'I' for Inactive)
REMARK    1  A    between atoms: C_11  and  C_22
REMARK    2  A    between atoms: C_17  and  N_29
REMARK                            x       y       z     vdW  Elec       q    Type
REMARK                         _______ _______ _______ _____ _____    ______ ____
ROOT
ATOM      1  O   UNL     1      37.602 -21.559 -18.121  0.00  0.00    -0.270 OA
ATOM      2  O   UNL     1      37.702 -18.935 -21.899  0.00  0.00    -0.270 OA
ATOM      3  N   UNL     1      32.503 -21.848 -19.418  0.00  0.00    -0.353 N 
ATOM      4  N   UNL     1      38.023 -20.193 -19.961  0.00  0.00    -0.248 N 
ATOM      5  C   UNL     1      34.699 -21.479 -19.214  0.00  0.00    +0.022 A 
ATOM      6  C   UNL     1      35.894 -20.898 -19.656  0.00  0.00    +0.060 C 
ATOM      7  C   UNL     1      33.567 -21.203 -19.999  0.00  0.00    +0.057 A 
ATOM      8  C   UNL     1      34.269 -22.320 -18.133  0.00  0.00    +0.018 A 
ATOM      9  C   UNL     1      35.931 -20.103 -20.801  0.00  0.00    +0.058 C 
ATOM     10  C   UNL     1      32.896 -22.529 -18.293  0.00  0.00    +0.057 A 
ATOM     11  C   UNL     1      34.816 -19.838 -21.562  0.00  0.00    +0.007 C 
ATOM     12  C   UNL     1      33.600 -20.397 -21.159  0.00  0.00    +0.017 C 
ATOM     13  C   UNL     1      37.251 -20.955 -19.114  0.00  0.00    +0.252 C 
ATOM     14  C   UNL     1      37.306 -19.648 -20.996  0.00  0.00    +0.252 C 
ATOM     15  C   UNL     1      34.901 -22.930 -17.028  0.00  0.00    +0.016 C 
ATOM     16  C   UNL     1      32.134 -23.309 -17.413  0.00  0.00    +0.018 C 
ATOM     17  C   UNL     1      34.153 -23.713 -16.140  0.00  0.00    +0.051 C 
ATOM     18  C   UNL     1      32.788 -23.899 -16.331  0.00  0.00    +0.016 C 
ATOM     19  H   UNL     1      31.582 -21.826 -19.764  0.00  0.00    +0.166 HD
ATOM     20  H   UNL     1      38.989 -20.054 -19.838  0.00  0.00    +0.158 HD
ENDROOT
BRANCH  11  22
ATOM     21 CL   UNL     1      35.256 -16.811 -21.175  0.00  0.00    -0.082 Cl
ATOM     22  C   UNL     1      34.857 -19.013 -22.750  0.00  0.00    +0.011 C 
ATOM     23  C   UNL     1      35.052 -17.634 -22.682  0.00  0.00    +0.058 C 
ATOM     24  C   UNL     1      34.698 -19.636 -23.988  0.00  0.00    +0.001 C 
ATOM     25  C   UNL     1      35.087 -16.876 -23.853  0.00  0.00    +0.011 C 
ATOM     26  C   UNL     1      34.732 -18.877 -25.159  0.00  0.00    +0.000 C 
ATOM     27  C   UNL     1      34.927 -17.498 -25.091  0.00  0.00    +0.001 C 
ENDBRANCH  11  22
BRANCH  17  29
ATOM     28  O   UNL     1      36.131 -26.009 -16.005  0.00  0.00    -0.265 OA
ATOM     29  N   UNL     1      34.785 -24.313 -15.049  0.00  0.00    -0.277 N 
ATOM     30  C   UNL     1      35.689 -25.370 -15.061  0.00  0.00    +0.303 C 
ATOM     31  H   UNL     1      34.565 -23.942 -14.165  0.00  0.00    +0.155 HD
ENDBRANCH  17  29
TORSDOF 2
ENDMDL
MODEL 7
REMARK VINA RESULT:      -9.0      5.127      8.993
REMARK  Name = 24778473
REMARK  2 active torsions:
REMARK  status: ('A' for Active; 'I' for Inactive)
REMARK    1  A    between atoms: C_11  and  C_22
REMARK    2  A    between atoms: C_17  and  N_29
REMARK                            x       y       z     vdW  Elec       q    Type
REMARK                         _______ _______ _______ _____ _____    ______ ____
ROOT
ATOM      1  O   UNL     1      32.871 -22.668 -18.516  0.00  0.00    -0.270 OA
ATOM      2  O   UNL     1      32.556 -20.050 -22.285  0.00  0.00    -0.270 OA
ATOM      3  N   UNL     1      37.853 -20.965 -18.712  0.00  0.00    -0.353 N 
ATOM      4  N   UNL     1      32.348 -21.452 -20.433  0.00  0.00    -0.248 N 
ATOM      5  C   UNL     1      35.687 -21.452 -18.980  0.00  0.00    +0.022 A 
ATOM      6  C   UNL     1      34.476 -21.331 -19.673  0.00  0.00    +0.060 C 
ATOM      7  C   UNL     1      36.764 -20.727 -19.515  0.00  0.00    +0.057 A 
ATOM      8  C   UNL     1      36.175 -22.139 -17.818  0.00  0.00    +0.018 A 
ATOM      9  C   UNL     1      34.374 -20.538 -20.816  0.00  0.00    +0.058 C 
ATOM     10  C   UNL     1      37.527 -21.812 -17.682  0.00  0.00    +0.057 A 
ATOM     11  C   UNL     1      35.437 -19.832 -21.332  0.00  0.00    +0.007 C 
ATOM     12  C   UNL     1      36.665 -19.923 -20.672  0.00  0.00    +0.017 C 
ATOM     13  C   UNL     1      33.162 -21.921 -19.428  0.00  0.00    +0.252 C 
ATOM     14  C   UNL     1      33.000 -20.617 -21.305  0.00  0.00    +0.252 C 
ATOM     15  C   UNL     1      35.611 -23.010 -16.860  0.00  0.00    +0.016 C 
ATOM     16  C   UNL     1      38.333 -22.307 -16.648  0.00  0.00    +0.018 C 
ATOM     17  C   UNL     1      36.404 -23.513 -15.821  0.00  0.00    +0.051 C 
ATOM     18  C   UNL     1      37.746 -23.165 -15.718  0.00  0.00    +0.016 C 
ATOM     19  H   UNL     1      38.747 -20.579 -18.855  0.00  0.00    +0.166 HD
ATOM     20  H   UNL     1      31.397 -21.689 -20.517  0.00  0.00    +0.158 HD
ENDROOT
BRANCH  11  22
ATOM     21 CL   UNL     1      35.371 -16.776 -20.935  0.00  0.00    -0.082 Cl
ATOM     22  C   UNL     1      35.329 -19.009 -22.517  0.00  0.00    +0.011 C 
ATOM     23  C   UNL     1      35.292 -17.616 -22.444  0.00  0.00    +0.058 C 
ATOM     24  C   UNL     1      35.263 -19.645 -23.756  0.00  0.00    +0.001 C 
ATOM     25  C   UNL     1      35.188 -16.859 -23.611  0.00  0.00    +0.011 C 
ATOM     26  C   UNL     1      35.158 -18.888 -24.923  0.00  0.00    +0.000 C 
ATOM     27  C   UNL     1      35.121 -17.496 -24.851  0.00  0.00    +0.001 C 
ENDBRANCH  11  22
BRANCH  17  29
ATOM     28  O   UNL     1      36.119 -26.533 -15.806  0.00  0.00    -0.265 OA
ATOM     29  N   UNL     1      35.839 -24.374 -14.878  0.00  0.00    -0.277 N 
ATOM     30  C   UNL     1      35.742 -25.760 -14.937  0.00  0.00    +0.303 C 
ATOM     31  H   UNL     1      35.464 -23.948 -14.074  0.00  0.00    +0.155 HD
ENDBRANCH  17  29
TORSDOF 2
ENDMDL
MODEL 8
REMARK VINA RESULT:      -8.9      4.079      7.965
REMARK  Name = 24778473
REMARK  2 active torsions:
REMARK  status: ('A' for Active; 'I' for Inactive)
REMARK    1  A    between atoms: C_11  and  C_22
REMARK    2  A    between atoms: C_17  and  N_29
REMARK                            x       y       z     vdW  Elec       q    Type
REMARK                         _______ _______ _______ _____ _____    ______ ____
ROOT
ATOM      1  O   UNL     1      32.902 -23.392 -17.037  0.00  0.00    -0.270 OA
ATOM      2  O   UNL     1      32.911 -20.855 -20.875  0.00  0.00    -0.270 OA
ATOM      3  N   UNL     1      38.051 -22.293 -17.244  0.00  0.00    -0.353 N 
ATOM      4  N   UNL     1      32.533 -22.174 -18.988  0.00  0.00    -0.248 N 
ATOM      5  C   UNL     1      35.844 -22.528 -17.514  0.00  0.00    +0.022 A 
ATOM      6  C   UNL     1      34.658 -22.284 -18.218  0.00  0.00    +0.060 C 
ATOM      7  C   UNL     1      37.001 -21.949 -18.060  0.00  0.00    +0.057 A 
ATOM      8  C   UNL     1      36.244 -23.237 -16.332  0.00  0.00    +0.018 A 
ATOM      9  C   UNL     1      34.654 -21.515 -19.381  0.00  0.00    +0.058 C 
ATOM     10  C   UNL     1      37.624 -23.068 -16.195  0.00  0.00    +0.057 A 
ATOM     11  C   UNL     1      35.795 -20.953 -19.908  0.00  0.00    +0.007 C 
ATOM     12  C   UNL     1      37.001 -21.170 -19.238  0.00  0.00    +0.017 C 
ATOM     13  C   UNL     1      33.282 -22.709 -17.966  0.00  0.00    +0.252 C 
ATOM     14  C   UNL     1      33.282 -21.445 -19.878  0.00  0.00    +0.252 C 
ATOM     15  C   UNL     1      35.578 -24.010 -15.356  0.00  0.00    +0.016 C 
ATOM     16  C   UNL     1      38.362 -23.627 -15.144  0.00  0.00    +0.018 C 
ATOM     17  C   UNL     1      36.302 -24.576 -14.299  0.00  0.00    +0.051 C 
ATOM     18  C   UNL     1      37.675 -24.386 -14.196  0.00  0.00    +0.016 C 
ATOM     19  H   UNL     1      38.984 -22.019 -17.392  0.00  0.00    +0.166 HD
ATOM     20  H   UNL     1      31.561 -22.300 -19.073  0.00  0.00    +0.158 HD
ENDROOT
BRANCH  11  22
ATOM     21 CL   UNL     1      37.878 -18.691 -20.125  0.00  0.00    -0.082 Cl
ATOM     22  C   UNL     1      35.788 -20.154 -21.115  0.00  0.00    +0.011 C 
ATOM     23  C   UNL     1      36.690 -19.108 -21.310  0.00  0.00    +0.058 C 
ATOM     24  C   UNL     1      34.846 -20.456 -22.098  0.00  0.00    +0.001 C 
ATOM     25  C   UNL     1      36.651 -18.363 -22.489  0.00  0.00    +0.011 C 
ATOM     26  C   UNL     1      34.806 -19.710 -23.277  0.00  0.00    +0.000 C 
ATOM     27  C   UNL     1      35.708 -18.665 -23.472  0.00  0.00    +0.001 C 
ENDBRANCH  11  22
BRANCH  17  29
ATOM     28  O   UNL     1      35.363 -23.872 -11.501  0.00  0.00    -0.265 OA
ATOM     29  N   UNL     1      35.636 -25.339 -13.338  0.00  0.00    -0.277 N 
ATOM     30  C   UNL     1      35.233 -24.949 -12.065  0.00  0.00    +0.303 C 
ATOM     31  H   UNL     1      35.427 -26.266 -13.592  0.00  0.00    +0.155 HD
ENDBRANCH  17  29
TORSDOF 2
ENDMDL
MODEL 9
REMARK VINA RESULT:      -8.5     12.818     15.644
REMARK  Name = 24778473
REMARK  2 active torsions:
REMARK  status: ('A' for Active; 'I' for Inactive)
REMARK    1  A    between atoms: C_11  and  C_22
REMARK    2  A    between atoms: C_17  and  N_29
REMARK                            x       y       z     vdW  Elec       q    Type
REMARK                         _______ _______ _______ _____ _____    ______ ____
ROOT
ATOM      1  O   UNL     1      32.712 -13.306 -19.713  0.00  0.00    -0.270 OA
ATOM      2  O   UNL     1      31.403  -8.996 -20.649  0.00  0.00    -0.270 OA
ATOM      3  N   UNL     1      34.581 -12.964 -24.627  0.00  0.00    -0.353 N 
ATOM      4  N   UNL     1      31.904 -11.124 -19.836  0.00  0.00    -0.248 N 
ATOM      5  C   UNL     1      33.657 -12.709 -22.607  0.00  0.00    +0.022 A 
ATOM      6  C   UNL     1      32.969 -11.942 -21.657  0.00  0.00    +0.060 C 
ATOM      7  C   UNL     1      33.907 -12.069 -23.832  0.00  0.00    +0.057 A 
ATOM      8  C   UNL     1      34.210 -14.030 -22.699  0.00  0.00    +0.018 A 
ATOM      9  C   UNL     1      32.571 -10.635 -21.935  0.00  0.00    +0.058 C 
ATOM     10  C   UNL     1      34.777 -14.153 -23.970  0.00  0.00    +0.057 A 
ATOM     11  C   UNL     1      32.821 -10.019 -23.140  0.00  0.00    +0.007 C 
ATOM     12  C   UNL     1      33.505 -10.745 -24.118  0.00  0.00    +0.017 C 
ATOM     13  C   UNL     1      32.536 -12.256 -20.297  0.00  0.00    +0.252 C 
ATOM     14  C   UNL     1      31.883 -10.108 -20.758  0.00  0.00    +0.252 C 
ATOM     15  C   UNL     1      34.290 -15.143 -21.835  0.00  0.00    +0.016 C 
ATOM     16  C   UNL     1      35.413 -15.320 -24.414  0.00  0.00    +0.018 C 
ATOM     17  C   UNL     1      34.923 -16.317 -22.263  0.00  0.00    +0.051 C 
ATOM     18  C   UNL     1      35.477 -16.402 -23.536  0.00  0.00    +0.016 C 
ATOM     19  H   UNL     1      34.883 -12.776 -25.545  0.00  0.00    +0.166 HD
ATOM     20  H   UNL     1      31.509 -11.050 -18.938  0.00  0.00    +0.158 HD
ENDROOT
BRANCH  11  22
ATOM     21 CL   UNL     1      34.951  -7.804 -22.890  0.00  0.00    -0.082 Cl
ATOM     22  C   UNL     1      32.408  -8.661 -23.425  0.00  0.00    +0.011 C 
ATOM     23  C   UNL     1      33.296  -7.589 -23.341  0.00  0.00    +0.058 C 
ATOM     24  C   UNL     1      31.081  -8.442 -23.794  0.00  0.00    +0.001 C 
ATOM     25  C   UNL     1      32.857  -6.296 -23.626  0.00  0.00    +0.011 C 
ATOM     26  C   UNL     1      30.642  -7.148 -24.078  0.00  0.00    +0.000 C 
ATOM     27  C   UNL     1      31.530  -6.076 -23.994  0.00  0.00    +0.001 C 
ENDBRANCH  11  22
BRANCH  17  29
ATOM     28  O   UNL     1      35.369 -19.263 -22.832  0.00  0.00    -0.265 OA
ATOM     29  N   UNL     1      34.999 -17.413 -21.402  0.00  0.00    -0.277 N 
ATOM     30  C   UNL     1      35.207 -18.748 -21.735  0.00  0.00    +0.303 C 
ATOM     31  H   UNL     1      34.892 -17.218 -20.444  0.00  0.00    +0.155 HD
ENDBRANCH  17  29
TORSDOF 2
ENDMDL
