MODEL 1
REMARK VINA RESULT:     -12.3      0.000      0.000
REMARK  Name = 90311989
REMARK  4 active torsions:
REMARK  status: ('A' for Active; 'I' for Inactive)
REMARK    1  A    between atoms: C_16  and  O_33
REMARK    2  A    between atoms: C_17  and  C_21
REMARK    3  A    between atoms: N_20  and  C_23
REMARK    4  A    between atoms: C_23  and  C_27
REMARK                            x       y       z     vdW  Elec       q    Type
REMARK                         _______ _______ _______ _____ _____    ______ ____
ROOT
ATOM      1  O   UNL     1      38.690 -24.172 -14.329  0.00  0.00    -0.339 OA
ATOM      2  O   UNL     1      34.151 -23.988 -12.995  0.00  0.00    -0.268 OA
ATOM      3  O   UNL     1      31.819 -23.410 -17.485  0.00  0.00    -0.283 OA
ATOM      4  N   UNL     1      36.360 -24.201 -13.645  0.00  0.00    -0.253 N 
ATOM      5  N   UNL     1      35.663 -23.281 -16.204  0.00  0.00    -0.275 N 
ATOM      6  C   UNL     1      36.813 -24.646 -12.318  0.00  0.00    +0.080 C 
ATOM      7  C   UNL     1      39.007 -24.709 -13.041  0.00  0.00    +0.119 C 
ATOM      8  C   UNL     1      38.151 -23.991 -12.012  0.00  0.00    +0.049 C 
ATOM      9  C   UNL     1      37.166 -26.139 -12.360  0.00  0.00    +0.022 C 
ATOM     10  C   UNL     1      38.599 -26.182 -12.912  0.00  0.00    +0.031 C 
ATOM     11  C   UNL     1      37.321 -24.296 -14.748  0.00  0.00    +0.215 C 
ATOM     12  C   UNL     1      37.050 -23.195 -15.758  0.00  0.00    +0.147 C 
ATOM     13  C   UNL     1      35.006 -23.957 -13.880  0.00  0.00    +0.267 C 
ATOM     14  C   UNL     1      34.640 -23.632 -15.312  0.00  0.00    +0.143 C 
ATOM     15  C   UNL     1      35.328 -22.946 -17.508  0.00  0.00    +0.074 C 
ATOM     16  C   UNL     1      33.342 -23.691 -15.682  0.00  0.00    +0.191 C 
ATOM     17  C   UNL     1      34.087 -22.959 -18.008  0.00  0.00    +0.110 C 
ATOM     18  C   UNL     1      32.981 -23.358 -17.098  0.00  0.00    +0.236 C 
ENDROOT
BRANCH  17  21
ATOM     19  O   UNL     1      33.770 -23.439 -20.285  0.00  0.00    -0.270 OA
ATOM     20  N   UNL     1      33.858 -21.211 -19.602  0.00  0.00    -0.297 N 
ATOM     21  C   UNL     1      33.890 -22.582 -19.408  0.00  0.00    +0.251 C 
ATOM     22  H   UNL     1      33.966 -20.627 -18.817  0.00  0.00    +0.150 HD
BRANCH  20  23
ATOM     23  C   UNL     1      33.676 -20.593 -20.896  0.00  0.00    +0.121 C 
BRANCH  23  27
ATOM     24  F   UNL     1      36.108 -20.653 -19.452  0.00  0.00    -0.204 F 
ATOM     25  F   UNL     1      33.860 -19.329 -23.418  0.00  0.00    -0.204 F 
ATOM     26  F   UNL     1      38.462 -18.383 -22.870  0.00  0.00    -0.204 F 
ATOM     27  C   UNL     1      34.952 -20.005 -21.422  0.00  0.00    +0.053 C 
ATOM     28  C   UNL     1      36.117 -20.068 -20.658  0.00  0.00    +0.142 C 
ATOM     29  C   UNL     1      34.974 -19.395 -22.676  0.00  0.00    +0.142 C 
ATOM     30  C   UNL     1      37.303 -19.520 -21.147  0.00  0.00    +0.059 C 
ATOM     31  C   UNL     1      36.159 -18.847 -23.166  0.00  0.00    +0.059 C 
ATOM     32  C   UNL     1      37.323 -18.909 -22.401  0.00  0.00    +0.145 C 
ENDBRANCH  23  27
ENDBRANCH  20  23
ENDBRANCH  17  21
BRANCH  16  33
ATOM     33  O   UNL     1      32.313 -24.053 -14.840  0.00  0.00    -0.502 OA
ATOM     34  H   UNL     1      32.273 -24.925 -14.499  0.00  0.00    +0.292 HD
ENDBRANCH  16  33
TORSDOF 4
ENDMDL
MODEL 2
REMARK VINA RESULT:     -12.1      2.753      3.940
REMARK  Name = 90311989
REMARK  4 active torsions:
REMARK  status: ('A' for Active; 'I' for Inactive)
REMARK    1  A    between atoms: C_16  and  O_33
REMARK    2  A    between atoms: C_17  and  C_21
REMARK    3  A    between atoms: N_20  and  C_23
REMARK    4  A    between atoms: C_23  and  C_27
REMARK                            x       y       z     vdW  Elec       q    Type
REMARK                         _______ _______ _______ _____ _____    ______ ____
ROOT
ATOM      1  O   UNL     1      38.141 -23.301 -15.371  0.00  0.00    -0.339 OA
ATOM      2  O   UNL     1      33.640 -23.186 -16.833  0.00  0.00    -0.268 OA
ATOM      3  O   UNL     1      34.118 -20.861 -21.338  0.00  0.00    -0.283 OA
ATOM      4  N   UNL     1      35.846 -23.357 -16.163  0.00  0.00    -0.253 N 
ATOM      5  N   UNL     1      36.565 -21.539 -18.178  0.00  0.00    -0.275 N 
ATOM      6  C   UNL     1      35.545 -24.278 -15.057  0.00  0.00    +0.080 C 
ATOM      7  C   UNL     1      37.761 -24.282 -14.401  0.00  0.00    +0.119 C 
ATOM      8  C   UNL     1      36.397 -23.897 -13.856  0.00  0.00    +0.049 C 
ATOM      9  C   UNL     1      36.050 -25.687 -15.399  0.00  0.00    +0.022 C 
ATOM     10  C   UNL     1      37.541 -25.663 -15.030  0.00  0.00    +0.031 C 
ATOM     11  C   UNL     1      37.259 -23.145 -16.495  0.00  0.00    +0.215 C 
ATOM     12  C   UNL     1      37.452 -21.741 -17.036  0.00  0.00    +0.147 C 
ATOM     13  C   UNL     1      34.828 -22.924 -17.015  0.00  0.00    +0.267 C 
ATOM     14  C   UNL     1      35.275 -22.086 -18.193  0.00  0.00    +0.143 C 
ATOM     15  C   UNL     1      36.965 -20.739 -19.238  0.00  0.00    +0.074 C 
ATOM     16  C   UNL     1      34.416 -21.894 -19.218  0.00  0.00    +0.191 C 
ATOM     17  C   UNL     1      36.219 -20.463 -20.315  0.00  0.00    +0.110 C 
ATOM     18  C   UNL     1      34.857 -21.054 -20.378  0.00  0.00    +0.236 C 
ENDROOT
BRANCH  17  21
ATOM     19  O   UNL     1      37.985 -19.344 -21.387  0.00  0.00    -0.270 OA
ATOM     20  N   UNL     1      35.829 -19.144 -22.253  0.00  0.00    -0.297 N 
ATOM     21  C   UNL     1      36.780 -19.602 -21.356  0.00  0.00    +0.251 C 
ATOM     22  H   UNL     1      34.893 -19.422 -22.122  0.00  0.00    +0.150 HD
BRANCH  20  23
ATOM     23  C   UNL     1      36.137 -18.279 -23.369  0.00  0.00    +0.121 C 
BRANCH  23  27
ATOM     24  F   UNL     1      35.688 -17.006 -20.883  0.00  0.00    -0.204 F 
ATOM     25  F   UNL     1      35.212 -16.813 -25.602  0.00  0.00    -0.204 F 
ATOM     26  F   UNL     1      33.614 -13.267 -22.908  0.00  0.00    -0.204 F 
ATOM     27  C   UNL     1      35.466 -16.943 -23.246  0.00  0.00    +0.053 C 
ATOM     28  C   UNL     1      35.274 -16.371 -21.988  0.00  0.00    +0.142 C 
ATOM     29  C   UNL     1      35.032 -16.271 -24.390  0.00  0.00    +0.142 C 
ATOM     30  C   UNL     1      34.648 -15.129 -21.874  0.00  0.00    +0.059 C 
ATOM     31  C   UNL     1      34.407 -15.030 -24.276  0.00  0.00    +0.059 C 
ATOM     32  C   UNL     1      34.215 -14.459 -23.018  0.00  0.00    +0.145 C 
ENDBRANCH  23  27
ENDBRANCH  20  23
ENDBRANCH  17  21
BRANCH  16  33
ATOM     33  O   UNL     1      33.150 -22.433 -19.278  0.00  0.00    -0.502 OA
ATOM     34  H   UNL     1      33.037 -23.341 -19.482  0.00  0.00    +0.292 HD
ENDBRANCH  16  33
TORSDOF 4
ENDMDL
MODEL 3
REMARK VINA RESULT:     -12.0      7.952     12.664
REMARK  Name = 90311989
REMARK  4 active torsions:
REMARK  status: ('A' for Active; 'I' for Inactive)
REMARK    1  A    between atoms: C_16  and  O_33
REMARK    2  A    between atoms: C_17  and  C_21
REMARK    3  A    between atoms: N_20  and  C_23
REMARK    4  A    between atoms: C_23  and  C_27
REMARK                            x       y       z     vdW  Elec       q    Type
REMARK                         _______ _______ _______ _____ _____    ______ ____
ROOT
ATOM      1  O   UNL     1      33.425  -8.729 -24.248  0.00  0.00    -0.339 OA
ATOM      2  O   UNL     1      31.356 -11.151 -20.746  0.00  0.00    -0.268 OA
ATOM      3  O   UNL     1      33.814 -15.602 -21.031  0.00  0.00    -0.283 OA
ATOM      4  N   UNL     1      32.442  -9.918 -22.373  0.00  0.00    -0.253 N 
ATOM      5  N   UNL     1      33.601 -12.282 -23.347  0.00  0.00    -0.275 N 
ATOM      6  C   UNL     1      31.841  -8.643 -21.952  0.00  0.00    +0.080 C 
ATOM      7  C   UNL     1      32.882  -7.529 -23.688  0.00  0.00    +0.119 C 
ATOM      8  C   UNL     1      31.481  -7.838 -23.191  0.00  0.00    +0.049 C 
ATOM      9  C   UNL     1      32.900  -7.766 -21.271  0.00  0.00    +0.022 C 
ATOM     10  C   UNL     1      33.640  -7.082 -22.431  0.00  0.00    +0.031 C 
ATOM     11  C   UNL     1      33.524  -9.855 -23.361  0.00  0.00    +0.215 C 
ATOM     12  C   UNL     1      33.511 -11.111 -24.214  0.00  0.00    +0.147 C 
ATOM     13  C   UNL     1      32.173 -11.090 -21.665  0.00  0.00    +0.267 C 
ATOM     14  C   UNL     1      32.948 -12.312 -22.107  0.00  0.00    +0.143 C 
ATOM     15  C   UNL     1      34.281 -13.414 -23.773  0.00  0.00    +0.074 C 
ATOM     16  C   UNL     1      32.983 -13.391 -21.294  0.00  0.00    +0.191 C 
ATOM     17  C   UNL     1      34.396 -14.548 -23.073  0.00  0.00    +0.110 C 
ATOM     18  C   UNL     1      33.742 -14.604 -21.739  0.00  0.00    +0.236 C 
ENDROOT
BRANCH  17  21
ATOM     19  O   UNL     1      35.404 -15.692 -24.860  0.00  0.00    -0.270 OA
ATOM     20  N   UNL     1      35.516 -16.615 -22.721  0.00  0.00    -0.297 N 
ATOM     21  C   UNL     1      35.149 -15.659 -23.655  0.00  0.00    +0.251 C 
ATOM     22  H   UNL     1      35.251 -16.475 -21.783  0.00  0.00    +0.150 HD
BRANCH  20  23
ATOM     23  C   UNL     1      36.265 -17.806 -23.052  0.00  0.00    +0.121 C 
BRANCH  23  27
ATOM     24  F   UNL     1      38.085 -18.555 -21.020  0.00  0.00    -0.204 F 
ATOM     25  F   UNL     1      33.895 -19.347 -23.106  0.00  0.00    -0.204 F 
ATOM     26  F   UNL     1      35.260 -22.004 -19.438  0.00  0.00    -0.204 F 
ATOM     27  C   UNL     1      35.997 -18.924 -22.087  0.00  0.00    +0.053 C 
ATOM     28  C   UNL     1      36.938 -19.243 -21.109  0.00  0.00    +0.142 C 
ATOM     29  C   UNL     1      34.806 -19.646 -22.170  0.00  0.00    +0.142 C 
ATOM     30  C   UNL     1      36.689 -20.284 -20.214  0.00  0.00    +0.059 C 
ATOM     31  C   UNL     1      34.556 -20.685 -21.274  0.00  0.00    +0.059 C 
ATOM     32  C   UNL     1      35.498 -21.005 -20.297  0.00  0.00    +0.145 C 
ENDBRANCH  23  27
ENDBRANCH  20  23
ENDBRANCH  17  21
BRANCH  16  33
ATOM     33  O   UNL     1      32.373 -13.449 -20.060  0.00  0.00    -0.502 OA
ATOM     34  H   UNL     1      32.211 -12.661 -19.580  0.00  0.00    +0.292 HD
ENDBRANCH  16  33
TORSDOF 4
ENDMDL
MODEL 4
REMARK VINA RESULT:     -11.8      6.419     11.435
REMARK  Name = 90311989
REMARK  4 active torsions:
REMARK  status: ('A' for Active; 'I' for Inactive)
REMARK    1  A    between atoms: C_16  and  O_33
REMARK    2  A    between atoms: C_17  and  C_21
REMARK    3  A    between atoms: N_20  and  C_23
REMARK    4  A    between atoms: C_23  and  C_27
REMARK                            x       y       z     vdW  Elec       q    Type
REMARK                         _______ _______ _______ _____ _____    ______ ____
ROOT
ATOM      1  O   UNL     1      32.672 -12.517 -19.907  0.00  0.00    -0.339 OA
ATOM      2  O   UNL     1      33.561 -11.962 -24.524  0.00  0.00    -0.268 OA
ATOM      3  O   UNL     1      35.146 -16.632 -25.798  0.00  0.00    -0.283 OA
ATOM      4  N   UNL     1      33.009 -12.253 -22.298  0.00  0.00    -0.253 N 
ATOM      5  N   UNL     1      34.364 -14.711 -22.314  0.00  0.00    -0.275 N 
ATOM      6  C   UNL     1      32.319 -10.958 -22.195  0.00  0.00    +0.080 C 
ATOM      7  C   UNL     1      31.925 -11.297 -19.944  0.00  0.00    +0.119 C 
ATOM      8  C   UNL     1      32.657 -10.326 -20.853  0.00  0.00    +0.049 C 
ATOM      9  C   UNL     1      30.804 -11.179 -22.095  0.00  0.00    +0.022 C 
ATOM     10  C   UNL     1      30.554 -11.478 -20.608  0.00  0.00    +0.031 C 
ATOM     11  C   UNL     1      32.870 -13.177 -21.168  0.00  0.00    +0.215 C 
ATOM     12  C   UNL     1      34.122 -14.027 -21.048  0.00  0.00    +0.147 C 
ATOM     13  C   UNL     1      33.538 -12.673 -23.519  0.00  0.00    +0.267 C 
ATOM     14  C   UNL     1      34.107 -14.075 -23.536  0.00  0.00    +0.143 C 
ATOM     15  C   UNL     1      34.921 -15.982 -22.326  0.00  0.00    +0.074 C 
ATOM     16  C   UNL     1      34.348 -14.664 -24.728  0.00  0.00    +0.191 C 
ATOM     17  C   UNL     1      35.212 -16.681 -23.428  0.00  0.00    +0.110 C 
ATOM     18  C   UNL     1      34.922 -16.049 -24.742  0.00  0.00    +0.236 C 
ENDROOT
BRANCH  17  21
ATOM     19  O   UNL     1      36.078 -18.697 -24.267  0.00  0.00    -0.270 OA
ATOM     20  N   UNL     1      35.976 -18.385 -21.958  0.00  0.00    -0.297 N 
ATOM     21  C   UNL     1      35.795 -18.015 -23.280  0.00  0.00    +0.251 C 
ATOM     22  H   UNL     1      35.709 -17.749 -21.255  0.00  0.00    +0.150 HD
BRANCH  20  23
ATOM     23  C   UNL     1      36.534 -19.656 -21.555  0.00  0.00    +0.121 C 
BRANCH  23  27
ATOM     24  F   UNL     1      33.753 -19.678 -22.070  0.00  0.00    -0.204 F 
ATOM     25  F   UNL     1      37.322 -21.298 -19.392  0.00  0.00    -0.204 F 
ATOM     26  F   UNL     1      32.885 -22.697 -18.533  0.00  0.00    -0.204 F 
ATOM     27  C   UNL     1      35.562 -20.468 -20.751  0.00  0.00    +0.053 C 
ATOM     28  C   UNL     1      34.201 -20.432 -21.057  0.00  0.00    +0.142 C 
ATOM     29  C   UNL     1      36.017 -21.257 -19.695  0.00  0.00    +0.142 C 
ATOM     30  C   UNL     1      33.297 -21.186 -20.308  0.00  0.00    +0.059 C 
ATOM     31  C   UNL     1      35.114 -22.011 -18.947  0.00  0.00    +0.059 C 
ATOM     32  C   UNL     1      33.754 -21.974 -19.253  0.00  0.00    +0.145 C 
ENDBRANCH  23  27
ENDBRANCH  20  23
ENDBRANCH  17  21
BRANCH  16  33
ATOM     33  O   UNL     1      34.089 -14.080 -25.948  0.00  0.00    -0.502 OA
ATOM     34  H   UNL     1      34.502 -13.270 -26.176  0.00  0.00    +0.292 HD
ENDBRANCH  16  33
TORSDOF 4
ENDMDL
MODEL 5
REMARK VINA RESULT:     -11.3      8.459     12.332
REMARK  Name = 90311989
REMARK  4 active torsions:
REMARK  status: ('A' for Active; 'I' for Inactive)
REMARK    1  A    between atoms: C_16  and  O_33
REMARK    2  A    between atoms: C_17  and  C_21
REMARK    3  A    between atoms: N_20  and  C_23
REMARK    4  A    between atoms: C_23  and  C_27
REMARK                            x       y       z     vdW  Elec       q    Type
REMARK                         _______ _______ _______ _____ _____    ______ ____
ROOT
ATOM      1  O   UNL     1      35.799 -17.399 -21.497  0.00  0.00    -0.339 OA
ATOM      2  O   UNL     1      33.851 -17.618 -25.806  0.00  0.00    -0.268 OA
ATOM      3  O   UNL     1      33.841 -12.703 -27.141  0.00  0.00    -0.283 OA
ATOM      4  N   UNL     1      34.911 -17.537 -23.753  0.00  0.00    -0.253 N 
ATOM      5  N   UNL     1      34.566 -14.752 -23.718  0.00  0.00    -0.275 N 
ATOM      6  C   UNL     1      35.091 -18.995 -23.674  0.00  0.00    +0.080 C 
ATOM      7  C   UNL     1      36.030 -18.809 -21.572  0.00  0.00    +0.119 C 
ATOM      8  C   UNL     1      34.827 -19.445 -22.246  0.00  0.00    +0.049 C 
ATOM      9  C   UNL     1      36.569 -19.351 -23.877  0.00  0.00    +0.022 C 
ATOM     10  C   UNL     1      37.207 -19.155 -22.492  0.00  0.00    +0.031 C 
ATOM     11  C   UNL     1      35.602 -16.722 -22.748  0.00  0.00    +0.215 C 
ATOM     12  C   UNL     1      34.796 -15.467 -22.467  0.00  0.00    +0.147 C 
ATOM     13  C   UNL     1      34.333 -16.959 -24.884  0.00  0.00    +0.267 C 
ATOM     14  C   UNL     1      34.320 -15.446 -24.910  0.00  0.00    +0.143 C 
ATOM     15  C   UNL     1      34.517 -13.365 -23.730  0.00  0.00    +0.074 C 
ATOM     16  C   UNL     1      34.072 -14.818 -26.081  0.00  0.00    +0.191 C 
ATOM     17  C   UNL     1      34.281 -12.615 -24.813  0.00  0.00    +0.110 C 
ATOM     18  C   UNL     1      34.048 -13.320 -26.101  0.00  0.00    +0.236 C 
ENDROOT
BRANCH  17  21
ATOM     19  O   UNL     1      35.243 -10.479 -24.981  0.00  0.00    -0.270 OA
ATOM     20  N   UNL     1      33.067 -10.678 -24.165  0.00  0.00    -0.297 N 
ATOM     21  C   UNL     1      34.264 -11.159 -24.669  0.00  0.00    +0.251 C 
ATOM     22  H   UNL     1      32.356 -11.325 -23.954  0.00  0.00    +0.150 HD
BRANCH  20  23
ATOM     23  C   UNL     1      32.808  -9.274 -23.933  0.00  0.00    +0.121 C 
BRANCH  23  27
ATOM     24  F   UNL     1      31.347 -11.013 -22.246  0.00  0.00    -0.204 F 
ATOM     25  F   UNL     1      33.750  -6.939 -22.648  0.00  0.00    -0.204 F 
ATOM     26  F   UNL     1      31.855  -8.177 -18.494  0.00  0.00    -0.204 F 
ATOM     27  C   UNL     1      32.555  -8.983 -22.483  0.00  0.00    +0.053 C 
ATOM     28  C   UNL     1      31.825  -9.883 -21.706  0.00  0.00    +0.142 C 
ATOM     29  C   UNL     1      33.048  -7.810 -21.910  0.00  0.00    +0.142 C 
ATOM     30  C   UNL     1      31.589  -9.611 -20.359  0.00  0.00    +0.059 C 
ATOM     31  C   UNL     1      32.813  -7.538 -20.563  0.00  0.00    +0.059 C 
ATOM     32  C   UNL     1      32.083  -8.438 -19.788  0.00  0.00    +0.145 C 
ENDBRANCH  23  27
ENDBRANCH  20  23
ENDBRANCH  17  21
BRANCH  16  33
ATOM     33  O   UNL     1      33.848 -15.466 -27.275  0.00  0.00    -0.502 OA
ATOM     34  H   UNL     1      34.050 -15.039 -28.084  0.00  0.00    +0.292 HD
ENDBRANCH  16  33
TORSDOF 4
ENDMDL
MODEL 6
REMARK VINA RESULT:     -11.0      2.338      3.786
REMARK  Name = 90311989
REMARK  4 active torsions:
REMARK  status: ('A' for Active; 'I' for Inactive)
REMARK    1  A    between atoms: C_16  and  O_33
REMARK    2  A    between atoms: C_17  and  C_21
REMARK    3  A    between atoms: N_20  and  C_23
REMARK    4  A    between atoms: C_23  and  C_27
REMARK                            x       y       z     vdW  Elec       q    Type
REMARK                         _______ _______ _______ _____ _____    ______ ____
ROOT
ATOM      1  O   UNL     1      38.233 -23.718 -14.869  0.00  0.00    -0.339 OA
ATOM      2  O   UNL     1      33.891 -23.812 -16.753  0.00  0.00    -0.268 OA
ATOM      3  O   UNL     1      34.564 -20.990 -20.939  0.00  0.00    -0.283 OA
ATOM      4  N   UNL     1      36.034 -23.874 -15.887  0.00  0.00    -0.253 N 
ATOM      5  N   UNL     1      36.765 -21.800 -17.632  0.00  0.00    -0.275 N 
ATOM      6  C   UNL     1      35.718 -24.929 -14.912  0.00  0.00    +0.080 C 
ATOM      7  C   UNL     1      37.857 -24.824 -14.042  0.00  0.00    +0.119 C 
ATOM      8  C   UNL     1      36.419 -24.610 -13.600  0.00  0.00    +0.049 C 
ATOM      9  C   UNL     1      36.377 -26.248 -15.338  0.00  0.00    +0.022 C 
ATOM     10  C   UNL     1      37.821 -26.144 -14.823  0.00  0.00    +0.031 C 
ATOM     11  C   UNL     1      37.446 -23.515 -16.054  0.00  0.00    +0.215 C 
ATOM     12  C   UNL     1      37.560 -22.050 -16.434  0.00  0.00    +0.147 C 
ATOM     13  C   UNL     1      35.062 -23.437 -16.789  0.00  0.00    +0.267 C 
ATOM     14  C   UNL     1      35.537 -22.445 -17.829  0.00  0.00    +0.143 C 
ATOM     15  C   UNL     1      37.186 -20.862 -18.565  0.00  0.00    +0.074 C 
ATOM     16  C   UNL     1      34.760 -22.215 -18.911  0.00  0.00    +0.191 C 
ATOM     17  C   UNL     1      36.519 -20.535 -19.677  0.00  0.00    +0.110 C 
ATOM     18  C   UNL     1      35.226 -21.224 -19.934  0.00  0.00    +0.236 C 
ENDROOT
BRANCH  17  21
ATOM     19  O   UNL     1      37.947 -18.736 -20.167  0.00  0.00    -0.270 OA
ATOM     20  N   UNL     1      36.572 -19.578 -21.852  0.00  0.00    -0.297 N 
ATOM     21  C   UNL     1      37.092 -19.526 -20.569  0.00  0.00    +0.251 C 
ATOM     22  H   UNL     1      35.889 -20.259 -22.051  0.00  0.00    +0.150 HD
BRANCH  20  23
ATOM     23  C   UNL     1      36.979 -18.684 -22.913  0.00  0.00    +0.121 C 
BRANCH  23  27
ATOM     24  F   UNL     1      36.092 -16.025 -23.294  0.00  0.00    -0.204 F 
ATOM     25  F   UNL     1      35.523 -20.610 -24.383  0.00  0.00    -0.204 F 
ATOM     26  F   UNL     1      32.685 -17.346 -26.299  0.00  0.00    -0.204 F 
ATOM     27  C   UNL     1      35.836 -18.327 -23.816  0.00  0.00    +0.053 C 
ATOM     28  C   UNL     1      35.448 -16.994 -23.959  0.00  0.00    +0.142 C 
ATOM     29  C   UNL     1      35.158 -19.327 -24.514  0.00  0.00    +0.142 C 
ATOM     30  C   UNL     1      34.384 -16.663 -24.797  0.00  0.00    +0.059 C 
ATOM     31  C   UNL     1      34.095 -18.996 -25.353  0.00  0.00    +0.059 C 
ATOM     32  C   UNL     1      33.707 -17.665 -25.494  0.00  0.00    +0.145 C 
ENDBRANCH  23  27
ENDBRANCH  20  23
ENDBRANCH  17  21
BRANCH  16  33
ATOM     33  O   UNL     1      33.558 -22.845 -19.149  0.00  0.00    -0.502 OA
ATOM     34  H   UNL     1      32.753 -22.389 -18.998  0.00  0.00    +0.292 HD
ENDBRANCH  16  33
TORSDOF 4
ENDMDL
MODEL 7
REMARK VINA RESULT:     -10.9      9.099     13.554
REMARK  Name = 90311989
REMARK  4 active torsions:
REMARK  status: ('A' for Active; 'I' for Inactive)
REMARK    1  A    between atoms: C_16  and  O_33
REMARK    2  A    between atoms: C_17  and  C_21
REMARK    3  A    between atoms: N_20  and  C_23
REMARK    4  A    between atoms: C_23  and  C_27
REMARK                            x       y       z     vdW  Elec       q    Type
REMARK                         _______ _______ _______ _____ _____    ______ ____
ROOT
ATOM      1  O   UNL     1      32.693  -7.258 -23.713  0.00  0.00    -0.339 OA
ATOM      2  O   UNL     1      31.255  -9.902 -20.058  0.00  0.00    -0.268 OA
ATOM      3  O   UNL     1      33.138 -14.461 -21.329  0.00  0.00    -0.283 OA
ATOM      4  N   UNL     1      32.054  -8.576 -21.775  0.00  0.00    -0.253 N 
ATOM      5  N   UNL     1      32.723 -10.894 -23.211  0.00  0.00    -0.275 N 
ATOM      6  C   UNL     1      31.693  -7.317 -21.107  0.00  0.00    +0.080 C 
ATOM      7  C   UNL     1      32.412  -6.093 -22.931  0.00  0.00    +0.119 C 
ATOM      8  C   UNL     1      31.138  -6.353 -22.145  0.00  0.00    +0.049 C 
ATOM      9  C   UNL     1      32.960  -6.601 -20.620  0.00  0.00    +0.022 C 
ATOM     10  C   UNL     1      33.477  -5.847 -21.855  0.00  0.00    +0.031 C 
ATOM     11  C   UNL     1      32.882  -8.482 -22.982  0.00  0.00    +0.215 C 
ATOM     12  C   UNL     1      32.551  -9.629 -23.919  0.00  0.00    +0.147 C 
ATOM     13  C   UNL     1      31.842  -9.798 -21.135  0.00  0.00    +0.267 C 
ATOM     14  C   UNL     1      32.372 -11.016 -21.860  0.00  0.00    +0.143 C 
ATOM     15  C   UNL     1      33.174 -12.017 -23.890  0.00  0.00    +0.074 C 
ATOM     16  C   UNL     1      32.488 -12.179 -21.181  0.00  0.00    +0.191 C 
ATOM     17  C   UNL     1      33.336 -13.228 -23.345  0.00  0.00    +0.110 C 
ATOM     18  C   UNL     1      33.002 -13.386 -21.905  0.00  0.00    +0.236 C 
ENDROOT
BRANCH  17  21
ATOM     19  O   UNL     1      33.318 -14.546 -25.289  0.00  0.00    -0.270 OA
ATOM     20  N   UNL     1      34.872 -15.021 -23.617  0.00  0.00    -0.297 N 
ATOM     21  C   UNL     1      33.824 -14.319 -24.189  0.00  0.00    +0.251 C 
ATOM     22  H   UNL     1      35.190 -14.742 -22.728  0.00  0.00    +0.150 HD
BRANCH  20  23
ATOM     23  C   UNL     1      35.523 -16.142 -24.257  0.00  0.00    +0.121 C 
BRANCH  23  27
ATOM     24  F   UNL     1      34.920 -18.628 -25.465  0.00  0.00    -0.204 F 
ATOM     25  F   UNL     1      35.783 -16.257 -21.444  0.00  0.00    -0.204 F 
ATOM     26  F   UNL     1      34.887 -20.901 -21.316  0.00  0.00    -0.204 F 
ATOM     27  C   UNL     1      35.355 -17.411 -23.473  0.00  0.00    +0.053 C 
ATOM     28  C   UNL     1      35.056 -18.604 -24.132  0.00  0.00    +0.142 C 
ATOM     29  C   UNL     1      35.496 -17.398 -22.085  0.00  0.00    +0.142 C 
ATOM     30  C   UNL     1      34.899 -19.783 -23.403  0.00  0.00    +0.059 C 
ATOM     31  C   UNL     1      35.339 -18.577 -21.357  0.00  0.00    +0.059 C 
ATOM     32  C   UNL     1      35.040 -19.769 -22.016  0.00  0.00    +0.145 C 
ENDBRANCH  23  27
ENDBRANCH  20  23
ENDBRANCH  17  21
BRANCH  16  33
ATOM     33  O   UNL     1      32.174 -12.332 -19.849  0.00  0.00    -0.502 OA
ATOM     34  H   UNL     1      32.840 -12.237 -19.197  0.00  0.00    +0.292 HD
ENDBRANCH  16  33
TORSDOF 4
ENDMDL
MODEL 8
REMARK VINA RESULT:     -10.8      7.232     11.913
REMARK  Name = 90311989
REMARK  4 active torsions:
REMARK  status: ('A' for Active; 'I' for Inactive)
REMARK    1  A    between atoms: C_16  and  O_33
REMARK    2  A    between atoms: C_17  and  C_21
REMARK    3  A    between atoms: N_20  and  C_23
REMARK    4  A    between atoms: C_23  and  C_27
REMARK                            x       y       z     vdW  Elec       q    Type
REMARK                         _______ _______ _______ _____ _____    ______ ____
ROOT
ATOM      1  O   UNL     1      32.429 -12.427 -19.760  0.00  0.00    -0.339 OA
ATOM      2  O   UNL     1      33.275 -10.458 -23.981  0.00  0.00    -0.268 OA
ATOM      3  O   UNL     1      34.312 -14.568 -26.804  0.00  0.00    -0.283 OA
ATOM      4  N   UNL     1      32.742 -11.417 -21.946  0.00  0.00    -0.253 N 
ATOM      5  N   UNL     1      33.818 -13.849 -22.845  0.00  0.00    -0.275 N 
ATOM      6  C   UNL     1      32.200 -10.170 -21.386  0.00  0.00    +0.080 C 
ATOM      7  C   UNL     1      31.819 -11.199 -19.352  0.00  0.00    +0.119 C 
ATOM      8  C   UNL     1      32.634 -10.056 -19.932  0.00  0.00    +0.049 C 
ATOM      9  C   UNL     1      30.672 -10.265 -21.279  0.00  0.00    +0.022 C 
ATOM     10  C   UNL     1      30.423 -11.015 -19.961  0.00  0.00    +0.031 C 
ATOM     11  C   UNL     1      32.526 -12.647 -21.177  0.00  0.00    +0.215 C 
ATOM     12  C   UNL     1      33.680 -13.605 -21.413  0.00  0.00    +0.147 C 
ATOM     13  C   UNL     1      33.196 -11.456 -23.266  0.00  0.00    +0.267 C 
ATOM     14  C   UNL     1      33.607 -12.821 -23.774  0.00  0.00    +0.143 C 
ATOM     15  C   UNL     1      34.232 -15.091 -23.304  0.00  0.00    +0.074 C 
ATOM     16  C   UNL     1      33.757 -13.001 -25.105  0.00  0.00    +0.191 C 
ATOM     17  C   UNL     1      34.422 -15.409 -24.590  0.00  0.00    +0.110 C 
ATOM     18  C   UNL     1      34.176 -14.350 -25.605  0.00  0.00    +0.236 C 
ENDROOT
BRANCH  17  21
ATOM     19  O   UNL     1      34.989 -17.122 -26.094  0.00  0.00    -0.270 OA
ATOM     20  N   UNL     1      35.091 -17.549 -23.804  0.00  0.00    -0.297 N 
ATOM     21  C   UNL     1      34.858 -16.765 -24.922  0.00  0.00    +0.251 C 
ATOM     22  H   UNL     1      34.950 -17.148 -22.916  0.00  0.00    +0.150 HD
BRANCH  20  23
ATOM     23  C   UNL     1      35.529 -18.925 -23.872  0.00  0.00    +0.121 C 
BRANCH  23  27
ATOM     24  F   UNL     1      33.598 -20.255 -22.289  0.00  0.00    -0.204 F 
ATOM     25  F   UNL     1      38.082 -18.746 -22.673  0.00  0.00    -0.204 F 
ATOM     26  F   UNL     1      36.670 -21.026 -18.775  0.00  0.00    -0.204 F 
ATOM     27  C   UNL     1      35.833 -19.486 -22.514  0.00  0.00    +0.053 C 
ATOM     28  C   UNL     1      34.833 -20.130 -21.785  0.00  0.00    +0.142 C 
ATOM     29  C   UNL     1      37.115 -19.363 -21.980  0.00  0.00    +0.142 C 
ATOM     30  C   UNL     1      35.116 -20.650 -20.522  0.00  0.00    +0.059 C 
ATOM     31  C   UNL     1      37.398 -19.884 -20.717  0.00  0.00    +0.059 C 
ATOM     32  C   UNL     1      36.399 -20.526 -19.988  0.00  0.00    +0.145 C 
ENDBRANCH  23  27
ENDBRANCH  20  23
ENDBRANCH  17  21
BRANCH  16  33
ATOM     33  O   UNL     1      33.538 -12.022 -26.048  0.00  0.00    -0.502 OA
ATOM     34  H   UNL     1      33.700 -11.124 -25.836  0.00  0.00    +0.292 HD
ENDBRANCH  16  33
TORSDOF 4
ENDMDL
MODEL 9
REMARK VINA RESULT:     -10.7      3.307      5.595
REMARK  Name = 90311989
REMARK  4 active torsions:
REMARK  status: ('A' for Active; 'I' for Inactive)
REMARK    1  A    between atoms: C_16  and  O_33
REMARK    2  A    between atoms: C_17  and  C_21
REMARK    3  A    between atoms: N_20  and  C_23
REMARK    4  A    between atoms: C_23  and  C_27
REMARK                            x       y       z     vdW  Elec       q    Type
REMARK                         _______ _______ _______ _____ _____    ______ ____
ROOT
ATOM      1  O   UNL     1      31.378 -23.011 -17.406  0.00  0.00    -0.339 OA
ATOM      2  O   UNL     1      36.091 -23.227 -17.011  0.00  0.00    -0.268 OA
ATOM      3  O   UNL     1      37.539 -19.861 -20.547  0.00  0.00    -0.283 OA
ATOM      4  N   UNL     1      33.788 -23.041 -17.111  0.00  0.00    -0.253 N 
ATOM      5  N   UNL     1      34.038 -21.631 -19.524  0.00  0.00    -0.275 N 
ATOM      6  C   UNL     1      33.571 -23.811 -15.876  0.00  0.00    +0.080 C 
ATOM      7  C   UNL     1      31.280 -23.666 -16.138  0.00  0.00    +0.119 C 
ATOM      8  C   UNL     1      32.369 -24.723 -16.071  0.00  0.00    +0.049 C 
ATOM      9  C   UNL     1      33.110 -22.875 -14.751  0.00  0.00    +0.022 C 
ATOM     10  C   UNL     1      31.597 -22.721 -14.972  0.00  0.00    +0.031 C 
ATOM     11  C   UNL     1      32.626 -22.357 -17.687  0.00  0.00    +0.215 C 
ATOM     12  C   UNL     1      32.774 -22.283 -19.196  0.00  0.00    +0.147 C 
ATOM     13  C   UNL     1      35.085 -22.765 -17.548  0.00  0.00    +0.267 C 
ATOM     14  C   UNL     1      35.187 -21.856 -18.754  0.00  0.00    +0.143 C 
ATOM     15  C   UNL     1      34.136 -20.828 -20.652  0.00  0.00    +0.074 C 
ATOM     16  C   UNL     1      36.380 -21.295 -19.046  0.00  0.00    +0.191 C 
ATOM     17  C   UNL     1      35.251 -20.212 -21.060  0.00  0.00    +0.110 C 
ATOM     18  C   UNL     1      36.481 -20.404 -20.248  0.00  0.00    +0.236 C 
ENDROOT
BRANCH  17  21
ATOM     19  O   UNL     1      34.575 -19.770 -23.266  0.00  0.00    -0.270 OA
ATOM     20  N   UNL     1      35.904 -18.207 -22.157  0.00  0.00    -0.297 N 
ATOM     21  C   UNL     1      35.199 -19.394 -22.272  0.00  0.00    +0.251 C 
ATOM     22  H   UNL     1      36.364 -18.019 -21.307  0.00  0.00    +0.150 HD
BRANCH  20  23
ATOM     23  C   UNL     1      36.002 -17.232 -23.220  0.00  0.00    +0.121 C 
BRANCH  23  27
ATOM     24  F   UNL     1      35.384 -16.321 -20.614  0.00  0.00    -0.204 F 
ATOM     25  F   UNL     1      34.865 -15.675 -25.288  0.00  0.00    -0.204 F 
ATOM     26  F   UNL     1      32.784 -12.718 -22.238  0.00  0.00    -0.204 F 
ATOM     27  C   UNL     1      35.145 -16.028 -22.958  0.00  0.00    +0.053 C 
ATOM     28  C   UNL     1      34.878 -15.633 -21.647  0.00  0.00    +0.142 C 
ATOM     29  C   UNL     1      34.614 -15.304 -24.025  0.00  0.00    +0.142 C 
ATOM     30  C   UNL     1      34.081 -14.515 -21.404  0.00  0.00    +0.059 C 
ATOM     31  C   UNL     1      33.818 -14.185 -23.782  0.00  0.00    +0.059 C 
ATOM     32  C   UNL     1      33.550 -13.792 -22.472  0.00  0.00    +0.145 C 
ENDBRANCH  23  27
ENDBRANCH  20  23
ENDBRANCH  17  21
BRANCH  16  33
ATOM     33  O   UNL     1      37.524 -21.476 -18.301  0.00  0.00    -0.502 OA
ATOM     34  H   UNL     1      38.359 -21.511 -18.726  0.00  0.00    +0.292 HD
ENDBRANCH  16  33
TORSDOF 4
ENDMDL
