MODEL 1
REMARK VINA RESULT:     -11.7      0.000      0.000
REMARK  Name = 16040289
REMARK  6 active torsions:
REMARK  status: ('A' for Active; 'I' for Inactive)
REMARK    1  A    between atoms: N_2  and  C_20
REMARK    2  A    between atoms: C_3  and  C_6
REMARK    3  A    between atoms: N_11  and  C_13
REMARK    4  A    between atoms: C_13  and  C_15
REMARK    5  A    between atoms: C_23  and  O_26
REMARK    6  A    between atoms: O_26  and  C_27
REMARK                            x       y       z     vdW  Elec       q    Type
REMARK                         _______ _______ _______ _____ _____    ______ ____
ROOT
ATOM      1  O   UNL     1      34.395 -23.850 -17.745  0.00  0.00    -0.270 OA
ATOM      2  N   UNL     1      33.000 -22.066 -18.375  0.00  0.00    -0.280 N 
ATOM      3  C   UNL     1      33.374 -23.183 -17.617  0.00  0.00    +0.252 C 
ATOM      4  H   UNL     1      32.140 -21.650 -18.134  0.00  0.00    +0.155 HD
ENDROOT
BRANCH   3   6
ATOM      5  N   UNL     1      31.946 -24.340 -14.345  0.00  0.00    -0.229 NA
ATOM      6  C   UNL     1      32.402 -23.599 -16.572  0.00  0.00    +0.085 C 
ATOM      7  C   UNL     1      32.807 -23.956 -15.313  0.00  0.00    +0.133 C 
ATOM      8  C   UNL     1      31.065 -23.621 -16.898  0.00  0.00    +0.009 C 
ATOM      9  C   UNL     1      30.148 -24.009 -15.928  0.00  0.00    +0.021 C 
ATOM     10  C   UNL     1      30.635 -24.357 -14.677  0.00  0.00    +0.100 C 
ATOM     11  N   UNL     1      34.188 -23.927 -14.995  0.00  0.00    -0.314 N 
ATOM     12  H   UNL     1      34.827 -23.649 -15.690  0.00  0.00    +0.149 HD
BRANCH  11  13
ATOM     13  C   UNL     1      34.689 -24.284 -13.708  0.00  0.00    +0.115 C 
BRANCH  13  15
ATOM     14  N   UNL     1      38.215 -26.691 -14.087  0.00  0.00    -0.242 NA
ATOM     15  C   UNL     1      35.927 -25.129 -13.840  0.00  0.00    +0.000 C 
ATOM     16  C   UNL     1      36.689 -25.409 -12.720  0.00  0.00    +0.018 C 
ATOM     17  C   UNL     1      36.291 -25.618 -15.083  0.00  0.00    +0.018 C 
ATOM     18  C   UNL     1      37.818 -26.191 -12.895  0.00  0.00    +0.099 C 
ATOM     19  C   UNL     1      37.439 -26.392 -15.152  0.00  0.00    +0.099 C 
ENDBRANCH  13  15
ENDBRANCH  11  13
ENDBRANCH   3   6
BRANCH   2  20
ATOM     20  C   UNL     1      33.694 -21.470 -19.428  0.00  0.00    +0.051 C 
ATOM     21  C   UNL     1      33.006 -20.717 -20.380  0.00  0.00    +0.018 C 
ATOM     22  C   UNL     1      35.076 -21.629 -19.530  0.00  0.00    +0.018 C 
ATOM     23  C   UNL     1      35.082 -20.280 -21.535  0.00  0.00    +0.145 C 
ATOM     24  C   UNL     1      33.701 -20.122 -21.433  0.00  0.00    +0.039 C 
ATOM     25  C   UNL     1      35.770 -21.033 -20.584  0.00  0.00    +0.039 C 
BRANCH  23  26
ATOM     26  O   UNL     1      35.760 -19.701 -22.564  0.00  0.00    -0.453 OA
BRANCH  26  27
ATOM     27  C   UNL     1      35.516 -18.364 -22.824  0.00  0.00    +0.145 C 
ATOM     28  C   UNL     1      35.231 -17.970 -24.120  0.00  0.00    +0.037 C 
ATOM     29  C   UNL     1      35.563 -17.454 -21.782  0.00  0.00    +0.037 C 
ATOM     30  C   UNL     1      34.986 -16.622 -24.382  0.00  0.00    +0.003 C 
ATOM     31  C   UNL     1      35.318 -16.106 -22.044  0.00  0.00    +0.003 C 
ATOM     32  C   UNL     1      35.029 -15.691 -23.344  0.00  0.00    +0.000 C 
ENDBRANCH  26  27
ENDBRANCH  23  26
ENDBRANCH   2  20
TORSDOF 6
ENDMDL
MODEL 2
REMARK VINA RESULT:     -11.7      0.073      1.516
REMARK  Name = 16040289
REMARK  6 active torsions:
REMARK  status: ('A' for Active; 'I' for Inactive)
REMARK    1  A    between atoms: N_2  and  C_20
REMARK    2  A    between atoms: C_3  and  C_6
REMARK    3  A    between atoms: N_11  and  C_13
REMARK    4  A    between atoms: C_13  and  C_15
REMARK    5  A    between atoms: C_23  and  O_26
REMARK    6  A    between atoms: O_26  and  C_27
REMARK                            x       y       z     vdW  Elec       q    Type
REMARK                         _______ _______ _______ _____ _____    ______ ____
ROOT
ATOM      1  O   UNL     1      34.491 -23.745 -17.685  0.00  0.00    -0.270 OA
ATOM      2  N   UNL     1      33.014 -22.062 -18.402  0.00  0.00    -0.280 N 
ATOM      3  C   UNL     1      33.430 -23.135 -17.603  0.00  0.00    +0.252 C 
ATOM      4  H   UNL     1      32.125 -21.690 -18.195  0.00  0.00    +0.155 HD
ENDROOT
BRANCH   3   6
ATOM      5  N   UNL     1      31.989 -24.372 -14.366  0.00  0.00    -0.229 NA
ATOM      6  C   UNL     1      32.454 -23.580 -16.574  0.00  0.00    +0.085 C 
ATOM      7  C   UNL     1      32.854 -23.962 -15.321  0.00  0.00    +0.133 C 
ATOM      8  C   UNL     1      31.120 -23.601 -16.907  0.00  0.00    +0.009 C 
ATOM      9  C   UNL     1      30.199 -24.016 -15.952  0.00  0.00    +0.021 C 
ATOM     10  C   UNL     1      30.681 -24.389 -14.707  0.00  0.00    +0.100 C 
ATOM     11  N   UNL     1      34.233 -23.933 -14.994  0.00  0.00    -0.314 N 
ATOM     12  H   UNL     1      34.875 -23.635 -15.679  0.00  0.00    +0.149 HD
BRANCH  11  13
ATOM     13  C   UNL     1      34.728 -24.316 -13.712  0.00  0.00    +0.115 C 
BRANCH  13  15
ATOM     14  N   UNL     1      38.270 -26.694 -14.119  0.00  0.00    -0.242 NA
ATOM     15  C   UNL     1      35.971 -25.151 -13.855  0.00  0.00    +0.000 C 
ATOM     16  C   UNL     1      36.326 -25.643 -15.099  0.00  0.00    +0.018 C 
ATOM     17  C   UNL     1      36.748 -25.418 -12.741  0.00  0.00    +0.018 C 
ATOM     18  C   UNL     1      37.480 -26.406 -15.177  0.00  0.00    +0.099 C 
ATOM     19  C   UNL     1      37.883 -26.191 -12.925  0.00  0.00    +0.099 C 
ENDBRANCH  13  15
ENDBRANCH  11  13
ENDBRANCH   3   6
BRANCH   2  20
ATOM     20  C   UNL     1      33.702 -21.455 -19.452  0.00  0.00    +0.051 C 
ATOM     21  C   UNL     1      35.083 -21.610 -19.563  0.00  0.00    +0.018 C 
ATOM     22  C   UNL     1      33.007 -20.691 -20.391  0.00  0.00    +0.018 C 
ATOM     23  C   UNL     1      35.077 -20.239 -21.553  0.00  0.00    +0.145 C 
ATOM     24  C   UNL     1      35.771 -21.002 -20.615  0.00  0.00    +0.039 C 
ATOM     25  C   UNL     1      33.695 -20.084 -21.442  0.00  0.00    +0.039 C 
BRANCH  23  26
ATOM     26  O   UNL     1      35.748 -19.645 -22.577  0.00  0.00    -0.453 OA
BRANCH  26  27
ATOM     27  C   UNL     1      35.514 -18.299 -22.805  0.00  0.00    +0.145 C 
ATOM     28  C   UNL     1      35.504 -17.426 -21.732  0.00  0.00    +0.037 C 
ATOM     29  C   UNL     1      35.296 -17.862 -24.099  0.00  0.00    +0.037 C 
ATOM     30  C   UNL     1      35.267 -16.070 -21.961  0.00  0.00    +0.003 C 
ATOM     31  C   UNL     1      35.059 -16.507 -24.329  0.00  0.00    +0.003 C 
ATOM     32  C   UNL     1      35.045 -15.611 -23.260  0.00  0.00    +0.000 C 
ENDBRANCH  26  27
ENDBRANCH  23  26
ENDBRANCH   2  20
TORSDOF 6
ENDMDL
MODEL 3
REMARK VINA RESULT:     -10.8      1.536      4.571
REMARK  Name = 16040289
REMARK  6 active torsions:
REMARK  status: ('A' for Active; 'I' for Inactive)
REMARK    1  A    between atoms: N_2  and  C_20
REMARK    2  A    between atoms: C_3  and  C_6
REMARK    3  A    between atoms: N_11  and  C_13
REMARK    4  A    between atoms: C_13  and  C_15
REMARK    5  A    between atoms: C_23  and  O_26
REMARK    6  A    between atoms: O_26  and  C_27
REMARK                            x       y       z     vdW  Elec       q    Type
REMARK                         _______ _______ _______ _____ _____    ______ ____
ROOT
ATOM      1  O   UNL     1      33.817 -24.021 -18.045  0.00  0.00    -0.270 OA
ATOM      2  N   UNL     1      35.329 -22.243 -17.764  0.00  0.00    -0.280 N 
ATOM      3  C   UNL     1      34.603 -23.372 -17.363  0.00  0.00    +0.252 C 
ATOM      4  H   UNL     1      35.918 -21.845 -17.082  0.00  0.00    +0.155 HD
ENDROOT
BRANCH   3   6
ATOM      5  N   UNL     1      33.917 -24.219 -13.772  0.00  0.00    -0.229 NA
ATOM      6  C   UNL     1      34.803 -23.791 -15.951  0.00  0.00    +0.085 C 
ATOM      7  C   UNL     1      33.763 -23.843 -15.061  0.00  0.00    +0.133 C 
ATOM      8  C   UNL     1      36.074 -24.131 -15.547  0.00  0.00    +0.009 C 
ATOM      9  C   UNL     1      36.272 -24.524 -14.228  0.00  0.00    +0.021 C 
ATOM     10  C   UNL     1      35.170 -24.551 -13.387  0.00  0.00    +0.100 C 
ATOM     11  N   UNL     1      32.461 -23.489 -15.495  0.00  0.00    -0.314 N 
ATOM     12  H   UNL     1      32.334 -23.214 -16.431  0.00  0.00    +0.149 HD
BRANCH  11  13
ATOM     13  C   UNL     1      31.328 -23.518 -14.629  0.00  0.00    +0.115 C 
BRANCH  13  15
ATOM     14  N   UNL     1      27.699 -23.510 -16.910  0.00  0.00    -0.242 NA
ATOM     15  C   UNL     1      30.054 -23.514 -15.429  0.00  0.00    +0.000 C 
ATOM     16  C   UNL     1      29.224 -22.408 -15.392  0.00  0.00    +0.018 C 
ATOM     17  C   UNL     1      29.725 -24.619 -16.195  0.00  0.00    +0.018 C 
ATOM     18  C   UNL     1      28.064 -22.455 -16.146  0.00  0.00    +0.099 C 
ATOM     19  C   UNL     1      28.541 -24.567 -16.915  0.00  0.00    +0.099 C 
ENDBRANCH  13  15
ENDBRANCH  11  13
ENDBRANCH   3   6
BRANCH   2  20
ATOM     20  C   UNL     1      35.322 -21.614 -19.009  0.00  0.00    +0.051 C 
ATOM     21  C   UNL     1      34.116 -21.399 -19.675  0.00  0.00    +0.018 C 
ATOM     22  C   UNL     1      36.523 -21.201 -19.587  0.00  0.00    +0.018 C 
ATOM     23  C   UNL     1      35.310 -20.356 -21.499  0.00  0.00    +0.145 C 
ATOM     24  C   UNL     1      34.110 -20.769 -20.921  0.00  0.00    +0.039 C 
ATOM     25  C   UNL     1      36.516 -20.571 -20.833  0.00  0.00    +0.039 C 
BRANCH  23  26
ATOM     26  O   UNL     1      35.304 -19.744 -22.715  0.00  0.00    -0.453 OA
BRANCH  26  27
ATOM     27  C   UNL     1      35.261 -18.361 -22.739  0.00  0.00    +0.145 C 
ATOM     28  C   UNL     1      35.259 -17.708 -23.959  0.00  0.00    +0.037 C 
ATOM     29  C   UNL     1      35.222 -17.666 -21.543  0.00  0.00    +0.037 C 
ATOM     30  C   UNL     1      35.217 -16.314 -23.984  0.00  0.00    +0.003 C 
ATOM     31  C   UNL     1      35.180 -16.272 -21.568  0.00  0.00    +0.003 C 
ATOM     32  C   UNL     1      35.177 -15.596 -22.788  0.00  0.00    +0.000 C 
ENDBRANCH  26  27
ENDBRANCH  23  26
ENDBRANCH   2  20
TORSDOF 6
ENDMDL
MODEL 4
REMARK VINA RESULT:     -10.7      3.747     10.569
REMARK  Name = 16040289
REMARK  6 active torsions:
REMARK  status: ('A' for Active; 'I' for Inactive)
REMARK    1  A    between atoms: N_2  and  C_20
REMARK    2  A    between atoms: C_3  and  C_6
REMARK    3  A    between atoms: N_11  and  C_13
REMARK    4  A    between atoms: C_13  and  C_15
REMARK    5  A    between atoms: C_23  and  O_26
REMARK    6  A    between atoms: O_26  and  C_27
REMARK                            x       y       z     vdW  Elec       q    Type
REMARK                         _______ _______ _______ _____ _____    ______ ____
ROOT
ATOM      1  O   UNL     1      36.102 -17.956 -21.279  0.00  0.00    -0.270 OA
ATOM      2  N   UNL     1      34.675 -19.690 -21.973  0.00  0.00    -0.280 N 
ATOM      3  C   UNL     1      35.354 -18.472 -22.102  0.00  0.00    +0.252 C 
ATOM      4  H   UNL     1      34.113 -19.954 -22.737  0.00  0.00    +0.155 HD
ENDROOT
BRANCH   3   6
ATOM      5  N   UNL     1      34.830 -15.671 -24.545  0.00  0.00    -0.229 NA
ATOM      6  C   UNL     1      35.106 -17.735 -23.369  0.00  0.00    +0.085 C 
ATOM      7  C   UNL     1      35.056 -16.367 -23.407  0.00  0.00    +0.133 C 
ATOM      8  C   UNL     1      34.925 -18.464 -24.522  0.00  0.00    +0.009 C 
ATOM      9  C   UNL     1      34.691 -17.784 -25.712  0.00  0.00    +0.021 C 
ATOM     10  C   UNL     1      34.654 -16.399 -25.670  0.00  0.00    +0.100 C 
ATOM     11  N   UNL     1      35.246 -15.632 -22.210  0.00  0.00    -0.314 N 
ATOM     12  H   UNL     1      35.412 -16.125 -21.375  0.00  0.00    +0.149 HD
BRANCH  11  13
ATOM     13  C   UNL     1      35.207 -14.207 -22.169  0.00  0.00    +0.115 C 
BRANCH  13  15
ATOM     14  N   UNL     1      31.428 -12.849 -20.669  0.00  0.00    -0.242 NA
ATOM     15  C   UNL     1      33.881 -13.731 -21.642  0.00  0.00    +0.000 C 
ATOM     16  C   UNL     1      33.393 -14.241 -20.451  0.00  0.00    +0.018 C 
ATOM     17  C   UNL     1      33.161 -12.787 -22.354  0.00  0.00    +0.018 C 
ATOM     18  C   UNL     1      32.168 -13.770 -20.010  0.00  0.00    +0.099 C 
ATOM     19  C   UNL     1      31.945 -12.380 -21.826  0.00  0.00    +0.099 C 
ENDBRANCH  13  15
ENDBRANCH  11  13
ENDBRANCH   3   6
BRANCH   2  20
ATOM     20  C   UNL     1      34.696 -20.576 -20.895  0.00  0.00    +0.051 C 
ATOM     21  C   UNL     1      33.499 -21.012 -20.327  0.00  0.00    +0.018 C 
ATOM     22  C   UNL     1      35.915 -21.024 -20.385  0.00  0.00    +0.018 C 
ATOM     23  C   UNL     1      34.739 -22.347 -18.739  0.00  0.00    +0.145 C 
ATOM     24  C   UNL     1      33.521 -21.898 -19.249  0.00  0.00    +0.039 C 
ATOM     25  C   UNL     1      35.936 -21.910 -19.307  0.00  0.00    +0.039 C 
BRANCH  23  26
ATOM     26  O   UNL     1      34.760 -23.209 -17.687  0.00  0.00    -0.453 OA
BRANCH  26  27
ATOM     27  C   UNL     1      33.673 -23.206 -16.830  0.00  0.00    +0.145 C 
ATOM     28  C   UNL     1      33.891 -23.257 -15.465  0.00  0.00    +0.037 C 
ATOM     29  C   UNL     1      32.396 -23.154 -17.361  0.00  0.00    +0.037 C 
ATOM     30  C   UNL     1      32.795 -23.256 -14.601  0.00  0.00    +0.003 C 
ATOM     31  C   UNL     1      31.300 -23.153 -16.498  0.00  0.00    +0.003 C 
ATOM     32  C   UNL     1      31.500 -23.204 -15.118  0.00  0.00    +0.000 C 
ENDBRANCH  26  27
ENDBRANCH  23  26
ENDBRANCH   2  20
TORSDOF 6
ENDMDL
MODEL 5
REMARK VINA RESULT:     -10.6      1.746      4.587
REMARK  Name = 16040289
REMARK  6 active torsions:
REMARK  status: ('A' for Active; 'I' for Inactive)
REMARK    1  A    between atoms: N_2  and  C_20
REMARK    2  A    between atoms: C_3  and  C_6
REMARK    3  A    between atoms: N_11  and  C_13
REMARK    4  A    between atoms: C_13  and  C_15
REMARK    5  A    between atoms: C_23  and  O_26
REMARK    6  A    between atoms: O_26  and  C_27
REMARK                            x       y       z     vdW  Elec       q    Type
REMARK                         _______ _______ _______ _____ _____    ______ ____
ROOT
ATOM      1  O   UNL     1      34.409 -22.587 -18.028  0.00  0.00    -0.270 OA
ATOM      2  N   UNL     1      36.513 -21.630 -18.458  0.00  0.00    -0.280 N 
ATOM      3  C   UNL     1      35.591 -22.413 -17.752  0.00  0.00    +0.252 C 
ATOM      4  H   UNL     1      37.426 -21.603 -18.091  0.00  0.00    +0.155 HD
ENDROOT
BRANCH   3   6
ATOM      5  N   UNL     1      35.740 -24.258 -14.487  0.00  0.00    -0.229 NA
ATOM      6  C   UNL     1      36.118 -23.069 -16.527  0.00  0.00    +0.085 C 
ATOM      7  C   UNL     1      35.287 -23.655 -15.609  0.00  0.00    +0.133 C 
ATOM      8  C   UNL     1      37.480 -23.079 -16.328  0.00  0.00    +0.009 C 
ATOM      9  C   UNL     1      37.984 -23.690 -15.185  0.00  0.00    +0.021 C 
ATOM     10  C   UNL     1      37.079 -24.260 -14.303  0.00  0.00    +0.100 C 
ATOM     11  N   UNL     1      33.887 -23.637 -15.831  0.00  0.00    -0.314 N 
ATOM     12  H   UNL     1      33.544 -23.203 -16.644  0.00  0.00    +0.149 HD
BRANCH  11  13
ATOM     13  C   UNL     1      32.957 -24.225 -14.922  0.00  0.00    +0.115 C 
BRANCH  13  15
ATOM     14  N   UNL     1      28.959 -23.845 -16.418  0.00  0.00    -0.242 NA
ATOM     15  C   UNL     1      31.554 -24.092 -15.447  0.00  0.00    +0.000 C 
ATOM     16  C   UNL     1      30.597 -25.025 -15.089  0.00  0.00    +0.018 C 
ATOM     17  C   UNL     1      31.234 -23.037 -16.285  0.00  0.00    +0.018 C 
ATOM     18  C   UNL     1      29.320 -24.858 -15.598  0.00  0.00    +0.099 C 
ATOM     19  C   UNL     1      29.927 -22.959 -16.740  0.00  0.00    +0.099 C 
ENDBRANCH  13  15
ENDBRANCH  11  13
ENDBRANCH   3   6
BRANCH   2  20
ATOM     20  C   UNL     1      36.297 -20.885 -19.618  0.00  0.00    +0.051 C 
ATOM     21  C   UNL     1      37.324 -20.102 -20.145  0.00  0.00    +0.018 C 
ATOM     22  C   UNL     1      35.054 -20.923 -20.249  0.00  0.00    +0.018 C 
ATOM     23  C   UNL     1      35.865 -19.395 -21.937  0.00  0.00    +0.145 C 
ATOM     24  C   UNL     1      37.108 -19.357 -21.305  0.00  0.00    +0.039 C 
ATOM     25  C   UNL     1      34.838 -20.178 -21.409  0.00  0.00    +0.039 C 
BRANCH  23  26
ATOM     26  O   UNL     1      35.653 -18.667 -23.066  0.00  0.00    -0.453 OA
BRANCH  26  27
ATOM     27  C   UNL     1      35.358 -17.322 -22.920  0.00  0.00    +0.145 C 
ATOM     28  C   UNL     1      35.187 -16.804 -21.648  0.00  0.00    +0.037 C 
ATOM     29  C   UNL     1      35.240 -16.531 -24.049  0.00  0.00    +0.037 C 
ATOM     30  C   UNL     1      34.888 -15.449 -21.501  0.00  0.00    +0.003 C 
ATOM     31  C   UNL     1      34.942 -15.176 -23.902  0.00  0.00    +0.003 C 
ATOM     32  C   UNL     1      34.766 -14.636 -22.628  0.00  0.00    +0.000 C 
ENDBRANCH  26  27
ENDBRANCH  23  26
ENDBRANCH   2  20
TORSDOF 6
ENDMDL
MODEL 6
REMARK VINA RESULT:     -10.5      2.237      4.811
REMARK  Name = 16040289
REMARK  6 active torsions:
REMARK  status: ('A' for Active; 'I' for Inactive)
REMARK    1  A    between atoms: N_2  and  C_20
REMARK    2  A    between atoms: C_3  and  C_6
REMARK    3  A    between atoms: N_11  and  C_13
REMARK    4  A    between atoms: C_13  and  C_15
REMARK    5  A    between atoms: C_23  and  O_26
REMARK    6  A    between atoms: O_26  and  C_27
REMARK                            x       y       z     vdW  Elec       q    Type
REMARK                         _______ _______ _______ _____ _____    ______ ____
ROOT
ATOM      1  O   UNL     1      34.730 -22.147 -19.605  0.00  0.00    -0.270 OA
ATOM      2  N   UNL     1      36.458 -20.563 -19.775  0.00  0.00    -0.280 N 
ATOM      3  C   UNL     1      35.740 -21.603 -19.172  0.00  0.00    +0.252 C 
ATOM      4  H   UNL     1      37.251 -20.245 -19.285  0.00  0.00    +0.155 HD
ENDROOT
BRANCH   3   6
ATOM      5  N   UNL     1      36.022 -23.380 -15.878  0.00  0.00    -0.229 NA
ATOM      6  C   UNL     1      36.263 -22.060 -17.858  0.00  0.00    +0.085 C 
ATOM      7  C   UNL     1      35.571 -22.949 -17.078  0.00  0.00    +0.133 C 
ATOM      8  C   UNL     1      37.474 -21.567 -17.431  0.00  0.00    +0.009 C 
ATOM      9  C   UNL     1      37.972 -21.987 -16.203  0.00  0.00    +0.021 C 
ATOM     10  C   UNL     1      37.213 -22.887 -15.471  0.00  0.00    +0.100 C 
ATOM     11  N   UNL     1      34.325 -23.448 -17.533  0.00  0.00    -0.314 N 
ATOM     12  H   UNL     1      33.985 -23.143 -18.405  0.00  0.00    +0.149 HD
BRANCH  11  13
ATOM     13  C   UNL     1      33.546 -24.374 -16.779  0.00  0.00    +0.115 C 
BRANCH  13  15
ATOM     14  N   UNL     1      29.987 -22.495 -15.306  0.00  0.00    -0.242 NA
ATOM     15  C   UNL     1      32.297 -23.714 -16.263  0.00  0.00    +0.000 C 
ATOM     16  C   UNL     1      31.461 -23.046 -17.141  0.00  0.00    +0.018 C 
ATOM     17  C   UNL     1      31.995 -23.782 -14.913  0.00  0.00    +0.018 C 
ATOM     18  C   UNL     1      30.324 -22.455 -16.615  0.00  0.00    +0.099 C 
ATOM     19  C   UNL     1      30.832 -23.159 -14.488  0.00  0.00    +0.099 C 
ENDBRANCH  13  15
ENDBRANCH  11  13
ENDBRANCH   3   6
BRANCH   2  20
ATOM     20  C   UNL     1      36.190 -19.922 -20.985  0.00  0.00    +0.051 C 
ATOM     21  C   UNL     1      34.924 -20.021 -21.562  0.00  0.00    +0.018 C 
ATOM     22  C   UNL     1      37.189 -19.182 -21.618  0.00  0.00    +0.018 C 
ATOM     23  C   UNL     1      35.655 -18.640 -23.405  0.00  0.00    +0.145 C 
ATOM     24  C   UNL     1      34.657 -19.380 -22.772  0.00  0.00    +0.039 C 
ATOM     25  C   UNL     1      36.921 -18.541 -22.828  0.00  0.00    +0.039 C 
BRANCH  23  26
ATOM     26  O   UNL     1      35.395 -18.016 -24.586  0.00  0.00    -0.453 OA
BRANCH  26  27
ATOM     27  C   UNL     1      34.916 -16.719 -24.537  0.00  0.00    +0.145 C 
ATOM     28  C   UNL     1      35.183 -15.943 -23.422  0.00  0.00    +0.037 C 
ATOM     29  C   UNL     1      34.182 -16.230 -25.602  0.00  0.00    +0.037 C 
ATOM     30  C   UNL     1      34.699 -14.636 -23.372  0.00  0.00    +0.003 C 
ATOM     31  C   UNL     1      33.698 -14.922 -25.552  0.00  0.00    +0.003 C 
ATOM     32  C   UNL     1      33.957 -14.126 -24.437  0.00  0.00    +0.000 C 
ENDBRANCH  26  27
ENDBRANCH  23  26
ENDBRANCH   2  20
TORSDOF 6
ENDMDL
MODEL 7
REMARK VINA RESULT:     -10.5      2.031      4.752
REMARK  Name = 16040289
REMARK  6 active torsions:
REMARK  status: ('A' for Active; 'I' for Inactive)
REMARK    1  A    between atoms: N_2  and  C_20
REMARK    2  A    between atoms: C_3  and  C_6
REMARK    3  A    between atoms: N_11  and  C_13
REMARK    4  A    between atoms: C_13  and  C_15
REMARK    5  A    between atoms: C_23  and  O_26
REMARK    6  A    between atoms: O_26  and  C_27
REMARK                            x       y       z     vdW  Elec       q    Type
REMARK                         _______ _______ _______ _____ _____    ______ ____
ROOT
ATOM      1  O   UNL     1      37.333 -24.673 -15.695  0.00  0.00    -0.270 OA
ATOM      2  N   UNL     1      35.744 -22.941 -15.732  0.00  0.00    -0.280 N 
ATOM      3  C   UNL     1      36.530 -23.934 -15.135  0.00  0.00    +0.252 C 
ATOM      4  H   UNL     1      35.150 -22.439 -15.127  0.00  0.00    +0.155 HD
ENDROOT
BRANCH   3   6
ATOM      5  N   UNL     1      34.910 -24.632 -11.822  0.00  0.00    -0.229 NA
ATOM      6  C   UNL     1      36.332 -24.111 -13.672  0.00  0.00    +0.085 C 
ATOM      7  C   UNL     1      35.118 -24.466 -13.147  0.00  0.00    +0.133 C 
ATOM      8  C   UNL     1      37.409 -23.907 -12.840  0.00  0.00    +0.009 C 
ATOM      9  C   UNL     1      37.235 -24.068 -11.470  0.00  0.00    +0.021 C 
ATOM     10  C   UNL     1      35.976 -24.428 -11.015  0.00  0.00    +0.100 C 
ATOM     11  N   UNL     1      34.019 -24.673 -14.019  0.00  0.00    -0.314 N 
ATOM     12  H   UNL     1      34.156 -24.557 -14.987  0.00  0.00    +0.149 HD
BRANCH  11  13
ATOM     13  C   UNL     1      32.724 -25.044 -13.550  0.00  0.00    +0.115 C 
BRANCH  13  15
ATOM     14  N   UNL     1      29.710 -23.821 -16.340  0.00  0.00    -0.242 NA
ATOM     15  C   UNL     1      31.666 -24.613 -14.529  0.00  0.00    +0.000 C 
ATOM     16  C   UNL     1      31.867 -23.484 -15.303  0.00  0.00    +0.018 C 
ATOM     17  C   UNL     1      30.502 -25.353 -14.646  0.00  0.00    +0.018 C 
ATOM     18  C   UNL     1      30.863 -23.131 -16.189  0.00  0.00    +0.099 C 
ATOM     19  C   UNL     1      29.559 -24.916 -15.563  0.00  0.00    +0.099 C 
ENDBRANCH  13  15
ENDBRANCH  11  13
ENDBRANCH   3   6
BRANCH   2  20
ATOM     20  C   UNL     1      35.699 -22.573 -17.077  0.00  0.00    +0.051 C 
ATOM     21  C   UNL     1      34.551 -22.818 -17.829  0.00  0.00    +0.018 C 
ATOM     22  C   UNL     1      36.804 -21.960 -17.669  0.00  0.00    +0.018 C 
ATOM     23  C   UNL     1      35.611 -21.838 -19.767  0.00  0.00    +0.145 C 
ATOM     24  C   UNL     1      34.507 -22.450 -19.175  0.00  0.00    +0.039 C 
ATOM     25  C   UNL     1      36.759 -21.592 -19.014  0.00  0.00    +0.039 C 
BRANCH  23  26
ATOM     26  O   UNL     1      35.569 -21.480 -21.079  0.00  0.00    -0.453 OA
BRANCH  26  27
ATOM     27  C   UNL     1      35.770 -20.147 -21.390  0.00  0.00    +0.145 C 
ATOM     28  C   UNL     1      34.683 -19.290 -21.419  0.00  0.00    +0.037 C 
ATOM     29  C   UNL     1      37.051 -19.704 -21.665  0.00  0.00    +0.037 C 
ATOM     30  C   UNL     1      34.885 -17.946 -21.734  0.00  0.00    +0.003 C 
ATOM     31  C   UNL     1      37.253 -18.360 -21.980  0.00  0.00    +0.003 C 
ATOM     32  C   UNL     1      36.170 -17.482 -22.014  0.00  0.00    +0.000 C 
ENDBRANCH  26  27
ENDBRANCH  23  26
ENDBRANCH   2  20
TORSDOF 6
ENDMDL
MODEL 8
REMARK VINA RESULT:     -10.5      2.114      5.369
REMARK  Name = 16040289
REMARK  6 active torsions:
REMARK  status: ('A' for Active; 'I' for Inactive)
REMARK    1  A    between atoms: N_2  and  C_20
REMARK    2  A    between atoms: C_3  and  C_6
REMARK    3  A    between atoms: N_11  and  C_13
REMARK    4  A    between atoms: C_13  and  C_15
REMARK    5  A    between atoms: C_23  and  O_26
REMARK    6  A    between atoms: O_26  and  C_27
REMARK                            x       y       z     vdW  Elec       q    Type
REMARK                         _______ _______ _______ _____ _____    ______ ____
ROOT
ATOM      1  O   UNL     1      31.976 -22.302 -17.981  0.00  0.00    -0.270 OA
ATOM      2  N   UNL     1      34.315 -22.434 -18.181  0.00  0.00    -0.280 N 
ATOM      3  C   UNL     1      33.072 -22.688 -17.587  0.00  0.00    +0.252 C 
ATOM      4  H   UNL     1      35.097 -22.823 -17.728  0.00  0.00    +0.155 HD
ENDROOT
BRANCH   3   6
ATOM      5  N   UNL     1      31.987 -24.526 -14.500  0.00  0.00    -0.229 NA
ATOM      6  C   UNL     1      33.115 -23.488 -16.336  0.00  0.00    +0.085 C 
ATOM      7  C   UNL     1      31.977 -23.801 -15.641  0.00  0.00    +0.133 C 
ATOM      8  C   UNL     1      34.340 -23.916 -15.879  0.00  0.00    +0.009 C 
ATOM      9  C   UNL     1      34.392 -24.665 -14.708  0.00  0.00    +0.021 C 
ATOM     10  C   UNL     1      33.197 -24.940 -14.062  0.00  0.00    +0.100 C 
ATOM     11  N   UNL     1      30.723 -23.352 -16.127  0.00  0.00    -0.314 N 
ATOM     12  H   UNL     1      30.700 -22.824 -16.958  0.00  0.00    +0.149 HD
BRANCH  11  13
ATOM     13  C   UNL     1      29.494 -23.636 -15.462  0.00  0.00    +0.115 C 
BRANCH  13  15
ATOM     14  N   UNL     1      26.196 -21.973 -17.636  0.00  0.00    -0.242 NA
ATOM     15  C   UNL     1      28.336 -23.052 -16.224  0.00  0.00    +0.000 C 
ATOM     16  C   UNL     1      27.337 -22.379 -15.544  0.00  0.00    +0.018 C 
ATOM     17  C   UNL     1      28.281 -23.195 -17.600  0.00  0.00    +0.018 C 
ATOM     18  C   UNL     1      26.293 -21.860 -16.292  0.00  0.00    +0.099 C 
ATOM     19  C   UNL     1      27.195 -22.638 -18.257  0.00  0.00    +0.099 C 
ENDBRANCH  13  15
ENDBRANCH  11  13
ENDBRANCH   3   6
BRANCH   2  20
ATOM     20  C   UNL     1      34.582 -21.698 -19.336  0.00  0.00    +0.051 C 
ATOM     21  C   UNL     1      35.900 -21.469 -19.729  0.00  0.00    +0.018 C 
ATOM     22  C   UNL     1      33.528 -21.190 -20.097  0.00  0.00    +0.018 C 
ATOM     23  C   UNL     1      35.113 -20.224 -21.645  0.00  0.00    +0.145 C 
ATOM     24  C   UNL     1      36.166 -20.733 -20.884  0.00  0.00    +0.039 C 
ATOM     25  C   UNL     1      33.795 -20.453 -21.252  0.00  0.00    +0.039 C 
BRANCH  23  26
ATOM     26  O   UNL     1      35.372 -19.505 -22.770  0.00  0.00    -0.453 OA
BRANCH  26  27
ATOM     27  C   UNL     1      35.251 -18.128 -22.696  0.00  0.00    +0.145 C 
ATOM     28  C   UNL     1      35.191 -17.523 -21.453  0.00  0.00    +0.037 C 
ATOM     29  C   UNL     1      35.193 -17.392 -23.866  0.00  0.00    +0.037 C 
ATOM     30  C   UNL     1      35.067 -16.135 -21.378  0.00  0.00    +0.003 C 
ATOM     31  C   UNL     1      35.069 -16.004 -23.791  0.00  0.00    +0.003 C 
ATOM     32  C   UNL     1      35.007 -15.377 -22.547  0.00  0.00    +0.000 C 
ENDBRANCH  26  27
ENDBRANCH  23  26
ENDBRANCH   2  20
TORSDOF 6
ENDMDL
MODEL 9
REMARK VINA RESULT:     -10.3      6.278     12.196
REMARK  Name = 16040289
REMARK  6 active torsions:
REMARK  status: ('A' for Active; 'I' for Inactive)
REMARK    1  A    between atoms: N_2  and  C_20
REMARK    2  A    between atoms: C_3  and  C_6
REMARK    3  A    between atoms: N_11  and  C_13
REMARK    4  A    between atoms: C_13  and  C_15
REMARK    5  A    between atoms: C_23  and  O_26
REMARK    6  A    between atoms: O_26  and  C_27
REMARK                            x       y       z     vdW  Elec       q    Type
REMARK                         _______ _______ _______ _____ _____    ______ ____
ROOT
ATOM      1  O   UNL     1      33.134 -14.134 -24.807  0.00  0.00    -0.270 OA
ATOM      2  N   UNL     1      34.820 -14.138 -23.168  0.00  0.00    -0.280 N 
ATOM      3  C   UNL     1      33.891 -13.552 -24.037  0.00  0.00    +0.252 C 
ATOM      4  H   UNL     1      35.349 -13.515 -22.619  0.00  0.00    +0.155 HD
ENDROOT
BRANCH   3   6
ATOM      5  N   UNL     1      32.830 -10.022 -23.327  0.00  0.00    -0.229 NA
ATOM      6  C   UNL     1      33.856 -12.066 -24.026  0.00  0.00    +0.085 C 
ATOM      7  C   UNL     1      32.886 -11.373 -23.352  0.00  0.00    +0.133 C 
ATOM      8  C   UNL     1      34.833 -11.387 -24.718  0.00  0.00    +0.009 C 
ATOM      9  C   UNL     1      34.810  -9.997 -24.716  0.00  0.00    +0.021 C 
ATOM     10  C   UNL     1      33.796  -9.367 -24.010  0.00  0.00    +0.100 C 
ATOM     11  N   UNL     1      31.889 -12.088 -22.644  0.00  0.00    -0.314 N 
ATOM     12  H   UNL     1      31.917 -13.073 -22.652  0.00  0.00    +0.149 HD
BRANCH  11  13
ATOM     13  C   UNL     1      30.846 -11.440 -21.918  0.00  0.00    +0.115 C 
BRANCH  13  15
ATOM     14  N   UNL     1      32.265 -10.144 -18.087  0.00  0.00    -0.242 NA
ATOM     15  C   UNL     1      31.345 -10.984 -20.574  0.00  0.00    +0.000 C 
ATOM     16  C   UNL     1      31.709  -9.662 -20.389  0.00  0.00    +0.018 C 
ATOM     17  C   UNL     1      31.434 -11.894 -19.534  0.00  0.00    +0.018 C 
ATOM     18  C   UNL     1      32.161  -9.294 -19.133  0.00  0.00    +0.099 C 
ATOM     19  C   UNL     1      31.898 -11.425 -18.315  0.00  0.00    +0.099 C 
ENDBRANCH  13  15
ENDBRANCH  11  13
ENDBRANCH   3   6
BRANCH   2  20
ATOM     20  C   UNL     1      35.088 -15.494 -22.985  0.00  0.00    +0.051 C 
ATOM     21  C   UNL     1      35.219 -16.012 -21.696  0.00  0.00    +0.018 C 
ATOM     22  C   UNL     1      35.227 -16.333 -24.091  0.00  0.00    +0.018 C 
ATOM     23  C   UNL     1      35.626 -18.208 -22.619  0.00  0.00    +0.145 C 
ATOM     24  C   UNL     1      35.487 -17.369 -21.514  0.00  0.00    +0.039 C 
ATOM     25  C   UNL     1      35.496 -17.690 -23.908  0.00  0.00    +0.039 C 
BRANCH  23  26
ATOM     26  O   UNL     1      35.890 -19.530 -22.441  0.00  0.00    -0.453 OA
BRANCH  26  27
ATOM     27  C   UNL     1      35.164 -20.208 -21.477  0.00  0.00    +0.145 C 
ATOM     28  C   UNL     1      33.783 -20.111 -21.482  0.00  0.00    +0.037 C 
ATOM     29  C   UNL     1      35.836 -20.964 -20.534  0.00  0.00    +0.037 C 
ATOM     30  C   UNL     1      33.051 -20.793 -20.510  0.00  0.00    +0.003 C 
ATOM     31  C   UNL     1      35.104 -21.646 -19.562  0.00  0.00    +0.003 C 
ATOM     32  C   UNL     1      33.712 -21.560 -19.550  0.00  0.00    +0.000 C 
ENDBRANCH  26  27
ENDBRANCH  23  26
ENDBRANCH   2  20
TORSDOF 6
ENDMDL
