MODEL 1
REMARK VINA RESULT:     -11.4      0.000      0.000
REMARK  Name = 5288712
REMARK  5 active torsions:
REMARK  status: ('A' for Active; 'I' for Inactive)
REMARK    1  A    between atoms: C_1  and  N_18
REMARK    2  A    between atoms: C_2  and  S_7
REMARK    3  A    between atoms: S_7  and  N_10
REMARK    4  A    between atoms: N_10  and  C_13
REMARK    5  A    between atoms: N_18  and  C_26
REMARK                            x       y       z     vdW  Elec       q    Type
REMARK                         _______ _______ _______ _____ _____    ______ ____
ROOT
ATOM      1  C   UNL     1      35.737 -19.997 -21.121  0.00  0.00    +0.048 C 
ATOM      2  C   UNL     1      34.448 -21.836 -19.456  0.00  0.00    +0.129 C 
ATOM      3  C   UNL     1      34.343 -20.082 -21.115  0.00  0.00    +0.016 C 
ATOM      4  C   UNL     1      36.484 -20.836 -20.289  0.00  0.00    +0.016 C 
ATOM      5  C   UNL     1      33.699 -21.000 -20.284  0.00  0.00    +0.022 C 
ATOM      6  C   UNL     1      35.841 -21.754 -19.458  0.00  0.00    +0.022 C 
ENDROOT
BRANCH   2   7
ATOM      7  S   UNL     1      33.644 -22.985 -18.416  0.00  0.00    +0.103 S 
ATOM      8  O   UNL     1      33.827 -24.312 -18.993  0.00  0.00    -0.146 OA
ATOM      9  O   UNL     1      32.293 -22.473 -18.214  0.00  0.00    -0.146 OA
BRANCH   7  10
ATOM     10  N   UNL     1      34.486 -22.907 -17.015  0.00  0.00    -0.093 NA
BRANCH  10  13
ATOM     11  N   UNL     1      34.568 -23.241 -14.636  0.00  0.00    -0.369 N 
ATOM     12  N   UNL     1      32.760 -23.940 -15.840  0.00  0.00    -0.369 N 
ATOM     13  C   UNL     1      33.990 -23.329 -15.882  0.00  0.00    +0.212 C 
ATOM     14  H   UNL     1      35.453 -22.823 -14.532  0.00  0.00    +0.159 HD
ATOM     15  H   UNL     1      34.096 -23.597 -13.849  0.00  0.00    +0.159 HD
ATOM     16  H   UNL     1      32.242 -24.063 -16.669  0.00  0.00    +0.159 HD
ATOM     17  H   UNL     1      32.395 -24.254 -14.982  0.00  0.00    +0.159 HD
ENDBRANCH  10  13
ENDBRANCH   7  10
ENDBRANCH   2   7
BRANCH   1  18
ATOM     18  N   UNL     1      36.385 -19.073 -21.957  0.00  0.00    -0.311 N 
ATOM     19  H   UNL     1      37.262 -19.355 -22.305  0.00  0.00    +0.152 HD
BRANCH  18  26
ATOM     20  O   UNL     1      35.217 -19.704 -24.534  0.00  0.00    -0.270 OA
ATOM     21  N   UNL     1      34.357 -17.744 -25.534  0.00  0.00    -0.280 N 
ATOM     22  C   UNL     1      34.881 -16.198 -23.914  0.00  0.00    +0.019 C 
ATOM     23  C   UNL     1      35.339 -17.513 -23.480  0.00  0.00    +0.069 C 
ATOM     24  C   UNL     1      34.292 -16.395 -25.167  0.00  0.00    +0.051 C 
ATOM     25  C   UNL     1      34.989 -18.508 -24.548  0.00  0.00    +0.251 C 
ATOM     26  C   UNL     1      35.964 -17.844 -22.349  0.00  0.00    +0.066 C 
ATOM     27  C   UNL     1      34.932 -14.938 -23.349  0.00  0.00    +0.001 C 
ATOM     28  C   UNL     1      33.739 -15.360 -25.895  0.00  0.00    +0.015 C 
ATOM     29  C   UNL     1      34.378 -13.874 -24.070  0.00  0.00    +0.000 C 
ATOM     30  C   UNL     1      33.787 -14.083 -25.330  0.00  0.00    +0.001 C 
ATOM     31  H   UNL     1      34.003 -18.108 -26.378  0.00  0.00    +0.155 HD
ENDBRANCH  18  26
ENDBRANCH   1  18
TORSDOF 5
ENDMDL
MODEL 2
REMARK VINA RESULT:     -11.3      1.526      2.001
REMARK  Name = 5288712
REMARK  5 active torsions:
REMARK  status: ('A' for Active; 'I' for Inactive)
REMARK    1  A    between atoms: C_1  and  N_18
REMARK    2  A    between atoms: C_2  and  S_7
REMARK    3  A    between atoms: S_7  and  N_10
REMARK    4  A    between atoms: N_10  and  C_13
REMARK    5  A    between atoms: N_18  and  C_26
REMARK                            x       y       z     vdW  Elec       q    Type
REMARK                         _______ _______ _______ _____ _____    ______ ____
ROOT
ATOM      1  C   UNL     1      35.813 -19.582 -21.332  0.00  0.00    +0.048 C 
ATOM      2  C   UNL     1      34.646 -21.636 -19.838  0.00  0.00    +0.129 C 
ATOM      3  C   UNL     1      34.431 -19.781 -21.372  0.00  0.00    +0.016 C 
ATOM      4  C   UNL     1      36.609 -20.415 -20.541  0.00  0.00    +0.016 C 
ATOM      5  C   UNL     1      33.848 -20.806 -20.626  0.00  0.00    +0.022 C 
ATOM      6  C   UNL     1      36.026 -21.441 -19.796  0.00  0.00    +0.022 C 
ENDROOT
BRANCH   2   7
ATOM      7  S   UNL     1      33.917 -22.919 -18.905  0.00  0.00    +0.103 S 
ATOM      8  O   UNL     1      33.994 -24.143 -19.696  0.00  0.00    -0.146 OA
ATOM      9  O   UNL     1      32.614 -22.423 -18.479  0.00  0.00    -0.146 OA
BRANCH   7  10
ATOM     10  N   UNL     1      34.906 -23.077 -17.610  0.00  0.00    -0.093 NA
BRANCH  10  13
ATOM     11  N   UNL     1      33.299 -23.775 -15.965  0.00  0.00    -0.369 N 
ATOM     12  N   UNL     1      35.118 -22.540 -15.353  0.00  0.00    -0.369 N 
ATOM     13  C   UNL     1      34.445 -23.142 -16.389  0.00  0.00    +0.212 C 
ATOM     14  H   UNL     1      32.727 -24.245 -16.613  0.00  0.00    +0.159 HD
ATOM     15  H   UNL     1      33.051 -23.757 -15.012  0.00  0.00    +0.159 HD
ATOM     16  H   UNL     1      35.957 -22.054 -15.527  0.00  0.00    +0.159 HD
ATOM     17  H   UNL     1      34.763 -22.596 -14.437  0.00  0.00    +0.159 HD
ENDBRANCH  10  13
ENDBRANCH   7  10
ENDBRANCH   2   7
BRANCH   1  18
ATOM     18  N   UNL     1      36.400 -18.549 -22.082  0.00  0.00    -0.311 N 
ATOM     19  H   UNL     1      37.303 -18.278 -21.800  0.00  0.00    +0.152 HD
BRANCH  18  26
ATOM     20  O   UNL     1      35.338 -16.195 -20.762  0.00  0.00    -0.270 OA
ATOM     21  N   UNL     1      34.344 -14.757 -22.350  0.00  0.00    -0.280 N 
ATOM     22  C   UNL     1      34.707 -15.963 -24.275  0.00  0.00    +0.019 C 
ATOM     23  C   UNL     1      35.262 -16.697 -23.143  0.00  0.00    +0.069 C 
ATOM     24  C   UNL     1      34.163 -14.792 -23.738  0.00  0.00    +0.051 C 
ATOM     25  C   UNL     1      35.016 -15.896 -21.897  0.00  0.00    +0.251 C 
ATOM     26  C   UNL     1      35.888 -17.875 -23.143  0.00  0.00    +0.066 C 
ATOM     27  C   UNL     1      34.643 -16.213 -25.632  0.00  0.00    +0.001 C 
ATOM     28  C   UNL     1      33.542 -13.839 -24.520  0.00  0.00    +0.015 C 
ATOM     29  C   UNL     1      34.018 -15.259 -26.444  0.00  0.00    +0.000 C 
ATOM     30  C   UNL     1      33.473 -14.085 -25.893  0.00  0.00    +0.001 C 
ATOM     31  H   UNL     1      34.038 -14.023 -21.768  0.00  0.00    +0.155 HD
ENDBRANCH  18  26
ENDBRANCH   1  18
TORSDOF 5
ENDMDL
MODEL 3
REMARK VINA RESULT:     -11.1      2.568      9.581
REMARK  Name = 5288712
REMARK  5 active torsions:
REMARK  status: ('A' for Active; 'I' for Inactive)
REMARK    1  A    between atoms: C_1  and  N_18
REMARK    2  A    between atoms: C_2  and  S_7
REMARK    3  A    between atoms: S_7  and  N_10
REMARK    4  A    between atoms: N_10  and  C_13
REMARK    5  A    between atoms: N_18  and  C_26
REMARK                            x       y       z     vdW  Elec       q    Type
REMARK                         _______ _______ _______ _____ _____    ______ ____
ROOT
ATOM      1  C   UNL     1      34.899 -21.903 -19.570  0.00  0.00    +0.048 C 
ATOM      2  C   UNL     1      35.600 -19.706 -21.148  0.00  0.00    +0.129 C 
ATOM      3  C   UNL     1      33.911 -21.169 -20.230  0.00  0.00    +0.016 C 
ATOM      4  C   UNL     1      36.241 -21.533 -19.703  0.00  0.00    +0.016 C 
ATOM      5  C   UNL     1      34.260 -20.073 -21.018  0.00  0.00    +0.022 C 
ATOM      6  C   UNL     1      36.590 -20.435 -20.491  0.00  0.00    +0.022 C 
ENDROOT
BRANCH   2   7
ATOM      7  S   UNL     1      36.038 -18.332 -22.134  0.00  0.00    +0.103 S 
ATOM      8  O   UNL     1      37.439 -18.482 -22.509  0.00  0.00    -0.146 OA
ATOM      9  O   UNL     1      35.618 -17.149 -21.391  0.00  0.00    -0.146 OA
BRANCH   7  10
ATOM     10  N   UNL     1      35.120 -18.501 -23.478  0.00  0.00    -0.093 NA
BRANCH  10  13
ATOM     11  N   UNL     1      34.362 -17.628 -25.586  0.00  0.00    -0.369 N 
ATOM     12  N   UNL     1      35.797 -16.423 -24.283  0.00  0.00    -0.369 N 
ATOM     13  C   UNL     1      35.078 -17.587 -24.410  0.00  0.00    +0.212 C 
ATOM     14  H   UNL     1      33.805 -18.412 -25.796  0.00  0.00    +0.159 HD
ATOM     15  H   UNL     1      34.410 -16.874 -26.216  0.00  0.00    +0.159 HD
ATOM     16  H   UNL     1      36.352 -16.272 -23.483  0.00  0.00    +0.159 HD
ATOM     17  H   UNL     1      35.758 -15.740 -24.991  0.00  0.00    +0.159 HD
ENDBRANCH  10  13
ENDBRANCH   7  10
ENDBRANCH   2   7
BRANCH   1  18
ATOM     18  N   UNL     1      34.548 -23.009 -18.777  0.00  0.00    -0.311 N 
ATOM     19  H   UNL     1      35.180 -23.763 -18.793  0.00  0.00    +0.152 HD
BRANCH  18  26
ATOM     20  O   UNL     1      35.772 -24.062 -16.368  0.00  0.00    -0.270 OA
ATOM     21  N   UNL     1      34.115 -24.480 -14.736  0.00  0.00    -0.280 N 
ATOM     22  C   UNL     1      32.236 -23.824 -15.888  0.00  0.00    +0.019 C 
ATOM     23  C   UNL     1      33.403 -23.639 -16.742  0.00  0.00    +0.069 C 
ATOM     24  C   UNL     1      32.724 -24.335 -14.681  0.00  0.00    +0.051 C 
ATOM     25  C   UNL     1      34.619 -24.072 -15.976  0.00  0.00    +0.251 C 
ATOM     26  C   UNL     1      33.454 -23.175 -17.992  0.00  0.00    +0.066 C 
ATOM     27  C   UNL     1      30.883 -23.599 -16.062  0.00  0.00    +0.001 C 
ATOM     28  C   UNL     1      31.898 -24.639 -13.618  0.00  0.00    +0.015 C 
ATOM     29  C   UNL     1      30.028 -23.899 -14.996  0.00  0.00    +0.000 C 
ATOM     30  C   UNL     1      30.530 -24.414 -13.787  0.00  0.00    +0.001 C 
ATOM     31  H   UNL     1      34.668 -24.824 -13.997  0.00  0.00    +0.155 HD
ENDBRANCH  18  26
ENDBRANCH   1  18
TORSDOF 5
ENDMDL
MODEL 4
REMARK VINA RESULT:     -10.7      3.769      5.799
REMARK  Name = 5288712
REMARK  5 active torsions:
REMARK  status: ('A' for Active; 'I' for Inactive)
REMARK    1  A    between atoms: C_1  and  N_18
REMARK    2  A    between atoms: C_2  and  S_7
REMARK    3  A    between atoms: S_7  and  N_10
REMARK    4  A    between atoms: N_10  and  C_13
REMARK    5  A    between atoms: N_18  and  C_26
REMARK                            x       y       z     vdW  Elec       q    Type
REMARK                         _______ _______ _______ _____ _____    ______ ____
ROOT
ATOM      1  C   UNL     1      35.925 -22.823 -16.752  0.00  0.00    +0.048 C 
ATOM      2  C   UNL     1      36.866 -23.424 -14.190  0.00  0.00    +0.129 C 
ATOM      3  C   UNL     1      35.058 -23.345 -15.790  0.00  0.00    +0.016 C 
ATOM      4  C   UNL     1      37.267 -22.602 -16.426  0.00  0.00    +0.016 C 
ATOM      5  C   UNL     1      35.527 -23.645 -14.511  0.00  0.00    +0.022 C 
ATOM      6  C   UNL     1      37.737 -22.903 -15.147  0.00  0.00    +0.022 C 
ENDROOT
BRANCH   2   7
ATOM      7  S   UNL     1      37.455 -23.800 -12.589  0.00  0.00    +0.103 S 
ATOM      8  O   UNL     1      36.342 -24.351 -11.823  0.00  0.00    -0.146 OA
ATOM      9  O   UNL     1      38.127 -22.598 -12.111  0.00  0.00    -0.146 OA
BRANCH   7  10
ATOM     10  N   UNL     1      38.551 -24.990 -12.840  0.00  0.00    -0.093 NA
BRANCH  10  13
ATOM     11  N   UNL     1      37.132 -26.869 -13.321  0.00  0.00    -0.369 N 
ATOM     12  N   UNL     1      39.090 -26.579 -14.456  0.00  0.00    -0.369 N 
ATOM     13  C   UNL     1      38.251 -26.085 -13.487  0.00  0.00    +0.212 C 
ATOM     14  H   UNL     1      36.451 -26.622 -12.655  0.00  0.00    +0.159 HD
ATOM     15  H   UNL     1      37.013 -27.678 -13.870  0.00  0.00    +0.159 HD
ATOM     16  H   UNL     1      39.928 -26.106 -14.670  0.00  0.00    +0.159 HD
ATOM     17  H   UNL     1      38.855 -27.404 -14.937  0.00  0.00    +0.159 HD
ENDBRANCH  10  13
ENDBRANCH   7  10
ENDBRANCH   2   7
BRANCH   1  18
ATOM     18  N   UNL     1      35.453 -22.520 -18.040  0.00  0.00    -0.311 N 
ATOM     19  H   UNL     1      34.632 -22.989 -18.314  0.00  0.00    +0.152 HD
BRANCH  18  26
ATOM     20  O   UNL     1      33.098 -21.922 -19.622  0.00  0.00    -0.270 OA
ATOM     21  N   UNL     1      33.651 -20.419 -21.359  0.00  0.00    -0.280 N 
ATOM     22  C   UNL     1      35.896 -20.133 -20.950  0.00  0.00    +0.019 C 
ATOM     23  C   UNL     1      35.347 -21.052 -19.959  0.00  0.00    +0.069 C 
ATOM     24  C   UNL     1      34.824 -19.779 -21.775  0.00  0.00    +0.051 C 
ATOM     25  C   UNL     1      33.882 -21.227 -20.241  0.00  0.00    +0.251 C 
ATOM     26  C   UNL     1      35.976 -21.666 -18.955  0.00  0.00    +0.066 C 
ATOM     27  C   UNL     1      37.159 -19.619 -21.174  0.00  0.00    +0.001 C 
ATOM     28  C   UNL     1      34.966 -18.912 -22.840  0.00  0.00    +0.015 C 
ATOM     29  C   UNL     1      37.325 -18.738 -22.248  0.00  0.00    +0.000 C 
ATOM     30  C   UNL     1      36.240 -18.388 -23.073  0.00  0.00    +0.001 C 
ATOM     31  H   UNL     1      32.775 -20.313 -21.797  0.00  0.00    +0.155 HD
ENDBRANCH  18  26
ENDBRANCH   1  18
TORSDOF 5
ENDMDL
MODEL 5
REMARK VINA RESULT:     -10.4      2.634      9.510
REMARK  Name = 5288712
REMARK  5 active torsions:
REMARK  status: ('A' for Active; 'I' for Inactive)
REMARK    1  A    between atoms: C_1  and  N_18
REMARK    2  A    between atoms: C_2  and  S_7
REMARK    3  A    between atoms: S_7  and  N_10
REMARK    4  A    between atoms: N_10  and  C_13
REMARK    5  A    between atoms: N_18  and  C_26
REMARK                            x       y       z     vdW  Elec       q    Type
REMARK                         _______ _______ _______ _____ _____    ______ ____
ROOT
ATOM      1  C   UNL     1      35.179 -21.733 -19.355  0.00  0.00    +0.048 C 
ATOM      2  C   UNL     1      35.640 -19.849 -21.367  0.00  0.00    +0.129 C 
ATOM      3  C   UNL     1      34.113 -21.238 -20.110  0.00  0.00    +0.016 C 
ATOM      4  C   UNL     1      36.477 -21.282 -19.611  0.00  0.00    +0.016 C 
ATOM      5  C   UNL     1      34.343 -20.298 -21.115  0.00  0.00    +0.022 C 
ATOM      6  C   UNL     1      36.707 -20.341 -20.615  0.00  0.00    +0.022 C 
ENDROOT
BRANCH   2   7
ATOM      7  S   UNL     1      35.928 -18.672 -22.624  0.00  0.00    +0.103 S 
ATOM      8  O   UNL     1      35.089 -19.023 -23.765  0.00  0.00    -0.146 OA
ATOM      9  O   UNL     1      37.375 -18.605 -22.793  0.00  0.00    -0.146 OA
BRANCH   7  10
ATOM     10  N   UNL     1      35.375 -17.269 -21.987  0.00  0.00    -0.093 NA
BRANCH  10  13
ATOM     11  N   UNL     1      35.669 -15.994 -24.003  0.00  0.00    -0.369 N 
ATOM     12  N   UNL     1      34.818 -15.012 -22.127  0.00  0.00    -0.369 N 
ATOM     13  C   UNL     1      35.302 -16.169 -22.687  0.00  0.00    +0.212 C 
ATOM     14  H   UNL     1      36.032 -16.750 -24.518  0.00  0.00    +0.159 HD
ATOM     15  H   UNL     1      35.568 -15.112 -24.428  0.00  0.00    +0.159 HD
ATOM     16  H   UNL     1      34.521 -15.006 -21.187  0.00  0.00    +0.159 HD
ATOM     17  H   UNL     1      34.767 -14.189 -22.663  0.00  0.00    +0.159 HD
ENDBRANCH  10  13
ENDBRANCH   7  10
ENDBRANCH   2   7
BRANCH   1  18
ATOM     18  N   UNL     1      34.948 -22.681 -18.343  0.00  0.00    -0.311 N 
ATOM     19  H   UNL     1      35.746 -23.152 -18.010  0.00  0.00    +0.152 HD
BRANCH  18  26
ATOM     20  O   UNL     1      35.798 -23.066 -15.598  0.00  0.00    -0.270 OA
ATOM     21  N   UNL     1      33.956 -23.702 -14.263  0.00  0.00    -0.280 N 
ATOM     22  C   UNL     1      32.290 -23.715 -15.848  0.00  0.00    +0.019 C 
ATOM     23  C   UNL     1      33.547 -23.335 -16.484  0.00  0.00    +0.069 C 
ATOM     24  C   UNL     1      32.595 -23.926 -14.500  0.00  0.00    +0.051 C 
ATOM     25  C   UNL     1      34.622 -23.332 -15.436  0.00  0.00    +0.251 C 
ATOM     26  C   UNL     1      33.773 -23.033 -17.764  0.00  0.00    +0.066 C 
ATOM     27  C   UNL     1      30.999 -23.880 -16.314  0.00  0.00    +0.001 C 
ATOM     28  C   UNL     1      31.641 -24.303 -13.577  0.00  0.00    +0.015 C 
ATOM     29  C   UNL     1      30.016 -24.262 -15.394  0.00  0.00    +0.000 C 
ATOM     30  C   UNL     1      30.334 -24.472 -14.040  0.00  0.00    +0.001 C 
ATOM     31  H   UNL     1      34.389 -23.793 -13.383  0.00  0.00    +0.155 HD
ENDBRANCH  18  26
ENDBRANCH   1  18
TORSDOF 5
ENDMDL
MODEL 6
REMARK VINA RESULT:     -10.3      6.491     10.305
REMARK  Name = 5288712
REMARK  5 active torsions:
REMARK  status: ('A' for Active; 'I' for Inactive)
REMARK    1  A    between atoms: C_1  and  N_18
REMARK    2  A    between atoms: C_2  and  S_7
REMARK    3  A    between atoms: S_7  and  N_10
REMARK    4  A    between atoms: N_10  and  C_13
REMARK    5  A    between atoms: N_18  and  C_26
REMARK                            x       y       z     vdW  Elec       q    Type
REMARK                         _______ _______ _______ _____ _____    ______ ____
ROOT
ATOM      1  C   UNL     1      34.083 -12.361 -24.266  0.00  0.00    +0.048 C 
ATOM      2  C   UNL     1      33.178  -9.841 -23.465  0.00  0.00    +0.129 C 
ATOM      3  C   UNL     1      33.071 -12.250 -23.311  0.00  0.00    +0.016 C 
ATOM      4  C   UNL     1      34.642 -11.205 -24.820  0.00  0.00    +0.016 C 
ATOM      5  C   UNL     1      32.619 -10.992 -22.911  0.00  0.00    +0.022 C 
ATOM      6  C   UNL     1      34.190  -9.947 -24.420  0.00  0.00    +0.022 C 
ENDROOT
BRANCH   2   7
ATOM      7  S   UNL     1      32.614  -8.266 -22.965  0.00  0.00    +0.103 S 
ATOM      8  O   UNL     1      31.534  -7.873 -23.864  0.00  0.00    -0.146 OA
ATOM      9  O   UNL     1      33.800  -7.424 -22.859  0.00  0.00    -0.146 OA
BRANCH   7  10
ATOM     10  N   UNL     1      31.981  -8.527 -21.478  0.00  0.00    -0.093 NA
BRANCH  10  13
ATOM     11  N   UNL     1      33.510  -7.394 -20.010  0.00  0.00    -0.369 N 
ATOM     12  N   UNL     1      32.711  -9.463 -19.473  0.00  0.00    -0.369 N 
ATOM     13  C   UNL     1      32.701  -8.441 -20.391  0.00  0.00    +0.212 C 
ATOM     14  H   UNL     1      33.590  -6.599 -20.584  0.00  0.00    +0.159 HD
ATOM     15  H   UNL     1      34.010  -7.442 -19.163  0.00  0.00    +0.159 HD
ATOM     16  H   UNL     1      32.169 -10.271 -19.631  0.00  0.00    +0.159 HD
ATOM     17  H   UNL     1      33.256  -9.388 -18.658  0.00  0.00    +0.159 HD
ENDBRANCH  10  13
ENDBRANCH   7  10
ENDBRANCH   2   7
BRANCH   1  18
ATOM     18  N   UNL     1      34.539 -13.628 -24.670  0.00  0.00    -0.311 N 
ATOM     19  H   UNL     1      34.639 -13.755 -25.641  0.00  0.00    +0.152 HD
BRANCH  18  26
ATOM     20  O   UNL     1      34.031 -15.794 -26.529  0.00  0.00    -0.270 OA
ATOM     21  N   UNL     1      34.496 -17.869 -25.499  0.00  0.00    -0.280 N 
ATOM     22  C   UNL     1      35.159 -17.149 -23.417  0.00  0.00    +0.019 C 
ATOM     23  C   UNL     1      34.819 -15.989 -24.234  0.00  0.00    +0.069 C 
ATOM     24  C   UNL     1      34.946 -18.265 -24.234  0.00  0.00    +0.051 C 
ATOM     25  C   UNL     1      34.388 -16.477 -25.587  0.00  0.00    +0.251 C 
ATOM     26  C   UNL     1      34.858 -14.698 -23.901  0.00  0.00    +0.066 C 
ATOM     27  C   UNL     1      35.605 -17.301 -22.118  0.00  0.00    +0.001 C 
ATOM     28  C   UNL     1      35.166 -19.555 -23.795  0.00  0.00    +0.015 C 
ATOM     29  C   UNL     1      35.835 -18.601 -21.653  0.00  0.00    +0.000 C 
ATOM     30  C   UNL     1      35.617 -19.717 -22.483  0.00  0.00    +0.001 C 
ATOM     31  H   UNL     1      34.283 -18.491 -26.232  0.00  0.00    +0.155 HD
ENDBRANCH  18  26
ENDBRANCH   1  18
TORSDOF 5
ENDMDL
MODEL 7
REMARK VINA RESULT:     -10.2      2.331      9.654
REMARK  Name = 5288712
REMARK  5 active torsions:
REMARK  status: ('A' for Active; 'I' for Inactive)
REMARK    1  A    between atoms: C_1  and  N_18
REMARK    2  A    between atoms: C_2  and  S_7
REMARK    3  A    between atoms: S_7  and  N_10
REMARK    4  A    between atoms: N_10  and  C_13
REMARK    5  A    between atoms: N_18  and  C_26
REMARK                            x       y       z     vdW  Elec       q    Type
REMARK                         _______ _______ _______ _____ _____    ______ ____
ROOT
ATOM      1  C   UNL     1      34.419 -21.635 -19.831  0.00  0.00    +0.048 C 
ATOM      2  C   UNL     1      35.323 -19.524 -21.425  0.00  0.00    +0.129 C 
ATOM      3  C   UNL     1      33.506 -20.845 -20.534  0.00  0.00    +0.016 C 
ATOM      4  C   UNL     1      35.787 -21.364 -19.930  0.00  0.00    +0.016 C 
ATOM      5  C   UNL     1      33.957 -19.792 -21.330  0.00  0.00    +0.022 C 
ATOM      6  C   UNL     1      36.238 -20.310 -20.725  0.00  0.00    +0.022 C 
ENDROOT
BRANCH   2   7
ATOM      7  S   UNL     1      35.888 -18.206 -22.421  0.00  0.00    +0.103 S 
ATOM      8  O   UNL     1      37.276 -18.479 -22.777  0.00  0.00    -0.146 OA
ATOM      9  O   UNL     1      35.562 -16.982 -21.697  0.00  0.00    -0.146 OA
BRANCH   7  10
ATOM     10  N   UNL     1      34.975 -18.312 -23.775  0.00  0.00    -0.093 NA
BRANCH  10  13
ATOM     11  N   UNL     1      34.214 -17.336 -25.835  0.00  0.00    -0.369 N 
ATOM     12  N   UNL     1      35.766 -16.263 -24.551  0.00  0.00    -0.369 N 
ATOM     13  C   UNL     1      34.966 -17.373 -24.683  0.00  0.00    +0.212 C 
ATOM     14  H   UNL     1      33.600 -18.075 -26.046  0.00  0.00    +0.159 HD
ATOM     15  H   UNL     1      34.293 -16.570 -26.449  0.00  0.00    +0.159 HD
ATOM     16  H   UNL     1      36.353 -16.170 -23.765  0.00  0.00    +0.159 HD
ATOM     17  H   UNL     1      35.751 -15.561 -25.240  0.00  0.00    +0.159 HD
ENDBRANCH  10  13
ENDBRANCH   7  10
ENDBRANCH   2   7
BRANCH   1  18
ATOM     18  N   UNL     1      33.965 -22.696 -19.030  0.00  0.00    -0.311 N 
ATOM     19  H   UNL     1      33.174 -23.177 -19.367  0.00  0.00    +0.152 HD
BRANCH  18  26
ATOM     20  O   UNL     1      31.574 -22.717 -17.390  0.00  0.00    -0.270 OA
ATOM     21  N   UNL     1      32.094 -23.472 -15.213  0.00  0.00    -0.280 N 
ATOM     22  C   UNL     1      34.351 -23.848 -15.441  0.00  0.00    +0.019 C 
ATOM     23  C   UNL     1      33.821 -23.364 -16.711  0.00  0.00    +0.069 C 
ATOM     24  C   UNL     1      33.261 -23.896 -14.567  0.00  0.00    +0.051 C 
ATOM     25  C   UNL     1      32.348 -23.124 -16.543  0.00  0.00    +0.251 C 
ATOM     26  C   UNL     1      34.471 -23.148 -17.855  0.00  0.00    +0.066 C 
ATOM     27  C   UNL     1      35.613 -24.222 -15.017  0.00  0.00    +0.001 C 
ATOM     28  C   UNL     1      33.383 -24.312 -13.256  0.00  0.00    +0.015 C 
ATOM     29  C   UNL     1      35.758 -24.647 -13.692  0.00  0.00    +0.000 C 
ATOM     30  C   UNL     1      34.654 -24.691 -12.820  0.00  0.00    +0.001 C 
ATOM     31  H   UNL     1      31.208 -23.426 -14.785  0.00  0.00    +0.155 HD
ENDBRANCH  18  26
ENDBRANCH   1  18
TORSDOF 5
ENDMDL
MODEL 8
REMARK VINA RESULT:     -10.1      3.831      6.428
REMARK  Name = 5288712
REMARK  5 active torsions:
REMARK  status: ('A' for Active; 'I' for Inactive)
REMARK    1  A    between atoms: C_1  and  N_18
REMARK    2  A    between atoms: C_2  and  S_7
REMARK    3  A    between atoms: S_7  and  N_10
REMARK    4  A    between atoms: N_10  and  C_13
REMARK    5  A    between atoms: N_18  and  C_26
REMARK                            x       y       z     vdW  Elec       q    Type
REMARK                         _______ _______ _______ _____ _____    ______ ____
ROOT
ATOM      1  C   UNL     1      35.850 -23.617 -16.241  0.00  0.00    +0.048 C 
ATOM      2  C   UNL     1      37.246 -24.940 -14.213  0.00  0.00    +0.129 C 
ATOM      3  C   UNL     1      35.210 -24.587 -15.466  0.00  0.00    +0.016 C 
ATOM      4  C   UNL     1      37.193 -23.311 -15.997  0.00  0.00    +0.016 C 
ATOM      5  C   UNL     1      35.907 -25.247 -14.454  0.00  0.00    +0.022 C 
ATOM      6  C   UNL     1      37.890 -23.973 -14.985  0.00  0.00    +0.022 C 
ENDROOT
BRANCH   2   7
ATOM      7  S   UNL     1      38.118 -25.767 -12.947  0.00  0.00    +0.103 S 
ATOM      8  O   UNL     1      39.347 -26.300 -13.526  0.00  0.00    -0.146 OA
ATOM      9  O   UNL     1      37.165 -26.680 -12.326  0.00  0.00    -0.146 OA
BRANCH   7  10
ATOM     10  N   UNL     1      38.515 -24.576 -11.896  0.00  0.00    -0.093 NA
BRANCH  10  13
ATOM     11  N   UNL     1      36.558 -24.072 -10.595  0.00  0.00    -0.369 N 
ATOM     12  N   UNL     1      37.680 -22.411 -11.686  0.00  0.00    -0.369 N 
ATOM     13  C   UNL     1      37.623 -23.755 -11.408  0.00  0.00    +0.212 C 
ATOM     14  H   UNL     1      36.406 -25.005 -10.322  0.00  0.00    +0.159 HD
ATOM     15  H   UNL     1      35.947 -23.364 -10.287  0.00  0.00    +0.159 HD
ATOM     16  H   UNL     1      38.399 -22.057 -12.259  0.00  0.00    +0.159 HD
ATOM     17  H   UNL     1      37.004 -21.802 -11.313  0.00  0.00    +0.159 HD
ENDBRANCH  10  13
ENDBRANCH   7  10
ENDBRANCH   2   7
BRANCH   1  18
ATOM     18  N   UNL     1      35.149 -22.950 -17.261  0.00  0.00    -0.311 N 
ATOM     19  H   UNL     1      34.175 -23.092 -17.271  0.00  0.00    +0.152 HD
BRANCH  18  26
ATOM     20  O   UNL     1      32.744 -22.464 -18.805  0.00  0.00    -0.270 OA
ATOM     21  N   UNL     1      33.229 -21.043 -20.629  0.00  0.00    -0.280 N 
ATOM     22  C   UNL     1      35.480 -20.708 -20.297  0.00  0.00    +0.019 C 
ATOM     23  C   UNL     1      34.971 -21.583 -19.247  0.00  0.00    +0.069 C 
ATOM     24  C   UNL     1      34.381 -20.409 -21.109  0.00  0.00    +0.051 C 
ATOM     25  C   UNL     1      33.502 -21.791 -19.480  0.00  0.00    +0.251 C 
ATOM     26  C   UNL     1      35.635 -22.137 -18.231  0.00  0.00    +0.066 C 
ATOM     27  C   UNL     1      36.729 -20.190 -20.581  0.00  0.00    +0.001 C 
ATOM     28  C   UNL     1      34.482 -19.595 -22.219  0.00  0.00    +0.015 C 
ATOM     29  C   UNL     1      36.854 -19.361 -21.702  0.00  0.00    +0.000 C 
ATOM     30  C   UNL     1      35.742 -19.067 -22.513  0.00  0.00    +0.001 C 
ATOM     31  H   UNL     1      32.340 -20.971 -21.048  0.00  0.00    +0.155 HD
ENDBRANCH  18  26
ENDBRANCH   1  18
TORSDOF 5
ENDMDL
MODEL 9
REMARK VINA RESULT:     -10.0      3.306      5.096
REMARK  Name = 5288712
REMARK  5 active torsions:
REMARK  status: ('A' for Active; 'I' for Inactive)
REMARK    1  A    between atoms: C_1  and  N_18
REMARK    2  A    between atoms: C_2  and  S_7
REMARK    3  A    between atoms: S_7  and  N_10
REMARK    4  A    between atoms: N_10  and  C_13
REMARK    5  A    between atoms: N_18  and  C_26
REMARK                            x       y       z     vdW  Elec       q    Type
REMARK                         _______ _______ _______ _____ _____    ______ ____
ROOT
ATOM      1  C   UNL     1      34.670 -22.773 -17.627  0.00  0.00    +0.048 C 
ATOM      2  C   UNL     1      32.917 -23.632 -15.627  0.00  0.00    +0.129 C 
ATOM      3  C   UNL     1      35.147 -23.039 -16.342  0.00  0.00    +0.016 C 
ATOM      4  C   UNL     1      33.310 -22.940 -17.908  0.00  0.00    +0.016 C 
ATOM      5  C   UNL     1      34.273 -23.468 -15.343  0.00  0.00    +0.022 C 
ATOM      6  C   UNL     1      32.435 -23.368 -16.909  0.00  0.00    +0.022 C 
ENDROOT
BRANCH   2   7
ATOM      7  S   UNL     1      31.822 -24.169 -14.377  0.00  0.00    +0.103 S 
ATOM      8  O   UNL     1      32.116 -23.406 -13.169  0.00  0.00    -0.146 OA
ATOM      9  O   UNL     1      31.921 -25.623 -14.347  0.00  0.00    -0.146 OA
BRANCH   7  10
ATOM     10  N   UNL     1      30.346 -23.721 -14.926  0.00  0.00    -0.093 NA
BRANCH  10  13
ATOM     11  N   UNL     1      28.822 -24.570 -16.580  0.00  0.00    -0.369 N 
ATOM     12  N   UNL     1      29.119 -25.675 -14.606  0.00  0.00    -0.369 N 
ATOM     13  C   UNL     1      29.476 -24.590 -15.369  0.00  0.00    +0.212 C 
ATOM     14  H   UNL     1      28.991 -23.841 -17.219  0.00  0.00    +0.159 HD
ATOM     15  H   UNL     1      28.183 -25.284 -16.805  0.00  0.00    +0.159 HD
ATOM     16  H   UNL     1      29.521 -25.804 -13.715  0.00  0.00    +0.159 HD
ATOM     17  H   UNL     1      28.464 -26.324 -14.949  0.00  0.00    +0.159 HD
ENDBRANCH  10  13
ENDBRANCH   7  10
ENDBRANCH   2   7
BRANCH   1  18
ATOM     18  N   UNL     1      35.551 -22.342 -18.634  0.00  0.00    -0.311 N 
ATOM     19  H   UNL     1      36.502 -22.547 -18.484  0.00  0.00    +0.152 HD
BRANCH  18  26
ATOM     20  O   UNL     1      37.655 -20.347 -18.643  0.00  0.00    -0.270 OA
ATOM     21  N   UNL     1      37.464 -18.980 -20.561  0.00  0.00    -0.280 N 
ATOM     22  C   UNL     1      35.615 -19.924 -21.551  0.00  0.00    +0.019 C 
ATOM     23  C   UNL     1      35.911 -20.643 -20.316  0.00  0.00    +0.069 C 
ATOM     24  C   UNL     1      36.588 -18.925 -21.651  0.00  0.00    +0.051 C 
ATOM     25  C   UNL     1      37.119 -20.014 -19.684  0.00  0.00    +0.251 C 
ATOM     26  C   UNL     1      35.265 -21.682 -19.784  0.00  0.00    +0.066 C 
ATOM     27  C   UNL     1      34.640 -20.059 -22.520  0.00  0.00    +0.001 C 
ATOM     28  C   UNL     1      36.628 -18.035 -22.706  0.00  0.00    +0.015 C 
ATOM     29  C   UNL     1      34.662 -19.167 -23.598  0.00  0.00    +0.000 C 
ATOM     30  C   UNL     1      35.645 -18.165 -23.690  0.00  0.00    +0.001 C 
ATOM     31  H   UNL     1      38.225 -18.369 -20.428  0.00  0.00    +0.155 HD
ENDBRANCH  18  26
ENDBRANCH   1  18
TORSDOF 5
ENDMDL
