MODEL 1
REMARK VINA RESULT:     -11.1      0.000      0.000
REMARK  Name = 5288708
REMARK  4 active torsions:
REMARK  status: ('A' for Active; 'I' for Inactive)
REMARK    1  A    between atoms: N_1  and  C_9
REMARK    2  A    between atoms: N_1  and  C_16
REMARK    3  A    between atoms: C_15  and  S_21
REMARK    4  A    between atoms: S_21  and  N_24
REMARK                            x       y       z     vdW  Elec       q    Type
REMARK                         _______ _______ _______ _____ _____    ______ ____
ROOT
ATOM      1  N   UNL     1      36.425 -19.064 -21.900  0.00  0.00    -0.311 N 
ATOM      2  H   UNL     1      37.313 -19.324 -22.235  0.00  0.00    +0.152 HD
ENDROOT
BRANCH   1   9
ATOM      3  O   UNL     1      35.296 -19.686 -24.497  0.00  0.00    -0.270 OA
ATOM      4  N   UNL     1      34.412 -17.731 -25.485  0.00  0.00    -0.280 N 
ATOM      5  C   UNL     1      34.892 -16.194 -23.843  0.00  0.00    +0.019 C 
ATOM      6  C   UNL     1      35.368 -17.506 -23.417  0.00  0.00    +0.069 C 
ATOM      7  C   UNL     1      34.320 -16.388 -25.104  0.00  0.00    +0.051 C 
ATOM      8  C   UNL     1      35.048 -18.495 -24.501  0.00  0.00    +0.251 C 
ATOM      9  C   UNL     1      35.988 -17.837 -22.283  0.00  0.00    +0.066 C 
ATOM     10  C   UNL     1      34.915 -14.939 -23.264  0.00  0.00    +0.001 C 
ATOM     11  C   UNL     1      33.757 -15.355 -25.828  0.00  0.00    +0.015 C 
ATOM     12  C   UNL     1      34.349 -13.878 -23.980  0.00  0.00    +0.000 C 
ATOM     13  C   UNL     1      33.777 -14.084 -25.250  0.00  0.00    +0.001 C 
ATOM     14  H   UNL     1      34.074 -18.092 -26.337  0.00  0.00    +0.155 HD
ENDBRANCH   1   9
BRANCH   1  16
ATOM     15  C   UNL     1      34.496 -21.890 -19.465  0.00  0.00    +0.122 C 
ATOM     16  C   UNL     1      35.780 -20.009 -21.085  0.00  0.00    +0.048 C 
ATOM     17  C   UNL     1      35.888 -21.813 -19.475  0.00  0.00    +0.021 C 
ATOM     18  C   UNL     1      33.743 -21.028 -20.263  0.00  0.00    +0.021 C 
ATOM     19  C   UNL     1      36.529 -20.874 -20.283  0.00  0.00    +0.016 C 
ATOM     20  C   UNL     1      34.384 -20.089 -21.072  0.00  0.00    +0.016 C 
BRANCH  15  21
ATOM     21  S   UNL     1      33.693 -23.065 -18.454  0.00  0.00    +0.060 S 
ATOM     22  O   UNL     1      32.362 -22.571 -18.126  0.00  0.00    -0.153 OA
ATOM     23  O   UNL     1      33.834 -24.369 -19.090  0.00  0.00    -0.153 OA
BRANCH  21  24
ATOM     24  N   UNL     1      34.648 -23.045 -17.035  0.00  0.00    -0.178 NA
ATOM     25  C   UNL     1      34.354 -23.981 -15.942  0.00  0.00    +0.110 C 
ATOM     26  H   UNL     1      34.577 -22.105 -16.645  0.00  0.00    +0.149 HD
ENDBRANCH  21  24
ENDBRANCH  15  21
ENDBRANCH   1  16
TORSDOF 4
ENDMDL
MODEL 2
REMARK VINA RESULT:     -11.1      1.554      2.203
REMARK  Name = 5288708
REMARK  4 active torsions:
REMARK  status: ('A' for Active; 'I' for Inactive)
REMARK    1  A    between atoms: N_1  and  C_9
REMARK    2  A    between atoms: N_1  and  C_16
REMARK    3  A    between atoms: C_15  and  S_21
REMARK    4  A    between atoms: S_21  and  N_24
REMARK                            x       y       z     vdW  Elec       q    Type
REMARK                         _______ _______ _______ _____ _____    ______ ____
ROOT
ATOM      1  N   UNL     1      36.380 -18.511 -22.055  0.00  0.00    -0.311 N 
ATOM      2  H   UNL     1      37.274 -18.227 -21.758  0.00  0.00    +0.152 HD
ENDROOT
BRANCH   1   9
ATOM      3  O   UNL     1      35.294 -16.146 -20.776  0.00  0.00    -0.270 OA
ATOM      4  N   UNL     1      34.321 -14.725 -22.394  0.00  0.00    -0.280 N 
ATOM      5  C   UNL     1      34.713 -15.951 -24.299  0.00  0.00    +0.019 C 
ATOM      6  C   UNL     1      35.254 -16.673 -23.152  0.00  0.00    +0.069 C 
ATOM      7  C   UNL     1      34.160 -14.776 -23.782  0.00  0.00    +0.051 C 
ATOM      8  C   UNL     1      34.988 -15.859 -21.919  0.00  0.00    +0.251 C 
ATOM      9  C   UNL     1      35.881 -17.850 -23.132  0.00  0.00    +0.066 C 
ATOM     10  C   UNL     1      34.669 -16.215 -25.655  0.00  0.00    +0.001 C 
ATOM     11  C   UNL     1      33.548 -13.832 -24.584  0.00  0.00    +0.015 C 
ATOM     12  C   UNL     1      34.055 -15.272 -26.486  0.00  0.00    +0.000 C 
ATOM     13  C   UNL     1      33.499 -14.092 -25.955  0.00  0.00    +0.001 C 
ATOM     14  H   UNL     1      34.005 -13.986 -21.824  0.00  0.00    +0.155 HD
ENDBRANCH   1   9
BRANCH   1  16
ATOM     15  C   UNL     1      34.609 -21.598 -19.825  0.00  0.00    +0.122 C 
ATOM     16  C   UNL     1      35.788 -19.543 -21.310  0.00  0.00    +0.048 C 
ATOM     17  C   UNL     1      33.813 -20.744 -20.589  0.00  0.00    +0.021 C 
ATOM     18  C   UNL     1      35.993 -21.426 -19.802  0.00  0.00    +0.021 C 
ATOM     19  C   UNL     1      34.402 -19.719 -21.330  0.00  0.00    +0.016 C 
ATOM     20  C   UNL     1      36.582 -20.401 -20.542  0.00  0.00    +0.016 C 
BRANCH  15  21
ATOM     21  S   UNL     1      33.873 -22.880 -18.897  0.00  0.00    +0.060 S 
ATOM     22  O   UNL     1      32.538 -22.460 -18.492  0.00  0.00    -0.153 OA
ATOM     23  O   UNL     1      34.036 -24.120 -19.646  0.00  0.00    -0.153 OA
BRANCH  21  24
ATOM     24  N   UNL     1      34.869 -22.948 -17.508  0.00  0.00    -0.178 NA
ATOM     25  C   UNL     1      34.303 -23.381 -16.223  0.00  0.00    +0.110 C 
ATOM     26  H   UNL     1      35.240 -22.009 -17.366  0.00  0.00    +0.149 HD
ENDBRANCH  21  24
ENDBRANCH  15  21
ENDBRANCH   1  16
TORSDOF 4
ENDMDL
MODEL 3
REMARK VINA RESULT:     -10.4      2.754      9.325
REMARK  Name = 5288708
REMARK  4 active torsions:
REMARK  status: ('A' for Active; 'I' for Inactive)
REMARK    1  A    between atoms: N_1  and  C_9
REMARK    2  A    between atoms: N_1  and  C_16
REMARK    3  A    between atoms: C_15  and  S_21
REMARK    4  A    between atoms: S_21  and  N_24
REMARK                            x       y       z     vdW  Elec       q    Type
REMARK                         _______ _______ _______ _____ _____    ______ ____
ROOT
ATOM      1  N   UNL     1      34.526 -23.003 -18.813  0.00  0.00    -0.311 N 
ATOM      2  H   UNL     1      35.157 -23.757 -18.828  0.00  0.00    +0.152 HD
ENDROOT
BRANCH   1   9
ATOM      3  O   UNL     1      35.749 -24.026 -16.391  0.00  0.00    -0.270 OA
ATOM      4  N   UNL     1      34.092 -24.439 -14.758  0.00  0.00    -0.280 N 
ATOM      5  C   UNL     1      32.212 -23.805 -15.921  0.00  0.00    +0.019 C 
ATOM      6  C   UNL     1      33.380 -23.622 -16.775  0.00  0.00    +0.069 C 
ATOM      7  C   UNL     1      32.701 -24.302 -14.709  0.00  0.00    +0.051 C 
ATOM      8  C   UNL     1      34.597 -24.041 -16.001  0.00  0.00    +0.251 C 
ATOM      9  C   UNL     1      33.430 -23.169 -18.029  0.00  0.00    +0.066 C 
ATOM     10  C   UNL     1      30.858 -23.590 -16.100  0.00  0.00    +0.001 C 
ATOM     11  C   UNL     1      31.873 -24.601 -13.644  0.00  0.00    +0.015 C 
ATOM     12  C   UNL     1      30.002 -23.885 -15.034  0.00  0.00    +0.000 C 
ATOM     13  C   UNL     1      30.505 -24.387 -13.817  0.00  0.00    +0.001 C 
ATOM     14  H   UNL     1      34.645 -24.772 -14.015  0.00  0.00    +0.155 HD
ENDBRANCH   1   9
BRANCH   1  16
ATOM     15  C   UNL     1      35.573 -19.698 -21.184  0.00  0.00    +0.122 C 
ATOM     16  C   UNL     1      34.876 -21.898 -19.606  0.00  0.00    +0.048 C 
ATOM     17  C   UNL     1      36.564 -20.436 -20.539  0.00  0.00    +0.021 C 
ATOM     18  C   UNL     1      34.232 -20.059 -21.043  0.00  0.00    +0.021 C 
ATOM     19  C   UNL     1      36.217 -21.534 -19.751  0.00  0.00    +0.016 C 
ATOM     20  C   UNL     1      33.884 -21.156 -20.255  0.00  0.00    +0.016 C 
BRANCH  15  21
ATOM     21  S   UNL     1      36.007 -18.324 -22.170  0.00  0.00    +0.060 S 
ATOM     22  O   UNL     1      35.594 -17.106 -21.485  0.00  0.00    -0.153 OA
ATOM     23  O   UNL     1      37.400 -18.484 -22.565  0.00  0.00    -0.153 OA
BRANCH  21  24
ATOM     24  N   UNL     1      35.021 -18.536 -23.551  0.00  0.00    -0.178 NA
ATOM     25  C   UNL     1      35.016 -17.515 -24.609  0.00  0.00    +0.110 C 
ATOM     26  H   UNL     1      34.061 -18.619 -23.218  0.00  0.00    +0.149 HD
ENDBRANCH  21  24
ENDBRANCH  15  21
ENDBRANCH   1  16
TORSDOF 4
ENDMDL
MODEL 4
REMARK VINA RESULT:     -10.3      3.774      6.476
REMARK  Name = 5288708
REMARK  4 active torsions:
REMARK  status: ('A' for Active; 'I' for Inactive)
REMARK    1  A    between atoms: N_1  and  C_9
REMARK    2  A    between atoms: N_1  and  C_16
REMARK    3  A    between atoms: C_15  and  S_21
REMARK    4  A    between atoms: S_21  and  N_24
REMARK                            x       y       z     vdW  Elec       q    Type
REMARK                         _______ _______ _______ _____ _____    ______ ____
ROOT
ATOM      1  N   UNL     1      35.022 -23.117 -17.291  0.00  0.00    -0.311 N 
ATOM      2  H   UNL     1      34.243 -23.641 -17.589  0.00  0.00    +0.152 HD
ENDROOT
BRANCH   1   9
ATOM      3  O   UNL     1      32.672 -22.480 -18.867  0.00  0.00    -0.270 OA
ATOM      4  N   UNL     1      33.249 -21.008 -20.622  0.00  0.00    -0.280 N 
ATOM      5  C   UNL     1      35.503 -20.772 -20.229  0.00  0.00    +0.019 C 
ATOM      6  C   UNL     1      34.939 -21.668 -19.225  0.00  0.00    +0.069 C 
ATOM      7  C   UNL     1      34.434 -20.401 -21.051  0.00  0.00    +0.051 C 
ATOM      8  C   UNL     1      33.469 -21.811 -19.498  0.00  0.00    +0.251 C 
ATOM      9  C   UNL     1      35.560 -22.285 -18.219  0.00  0.00    +0.066 C 
ATOM     10  C   UNL     1      36.776 -20.290 -20.467  0.00  0.00    +0.001 C 
ATOM     11  C   UNL     1      34.590 -19.548 -22.127  0.00  0.00    +0.015 C 
ATOM     12  C   UNL     1      36.957 -19.424 -21.550  0.00  0.00    +0.000 C 
ATOM     13  C   UNL     1      35.874 -19.057 -22.373  0.00  0.00    +0.001 C 
ATOM     14  H   UNL     1      32.374 -20.886 -21.056  0.00  0.00    +0.155 HD
ENDBRANCH   1   9
BRANCH   1  16
ATOM     15  C   UNL     1      36.241 -23.754 -13.323  0.00  0.00    +0.122 C 
ATOM     16  C   UNL     1      35.429 -23.330 -15.964  0.00  0.00    +0.048 C 
ATOM     17  C   UNL     1      37.132 -23.210 -14.248  0.00  0.00    +0.021 C 
ATOM     18  C   UNL     1      34.944 -24.086 -13.716  0.00  0.00    +0.021 C 
ATOM     19  C   UNL     1      36.727 -22.998 -15.566  0.00  0.00    +0.016 C 
ATOM     20  C   UNL     1      34.539 -23.875 -15.034  0.00  0.00    +0.016 C 
BRANCH  15  21
ATOM     21  S   UNL     1      36.748 -24.020 -11.674  0.00  0.00    +0.060 S 
ATOM     22  O   UNL     1      37.492 -22.853 -11.217  0.00  0.00    -0.153 OA
ATOM     23  O   UNL     1      35.584 -24.466 -10.918  0.00  0.00    -0.153 OA
BRANCH  21  24
ATOM     24  N   UNL     1      37.832 -25.333 -11.828  0.00  0.00    -0.178 NA
ATOM     25  C   UNL     1      37.485 -26.471 -12.691  0.00  0.00    +0.110 C 
ATOM     26  H   UNL     1      37.978 -25.708 -10.891  0.00  0.00    +0.149 HD
ENDBRANCH  21  24
ENDBRANCH  15  21
ENDBRANCH   1  16
TORSDOF 4
ENDMDL
MODEL 5
REMARK VINA RESULT:      -9.7      5.955      9.904
REMARK  Name = 5288708
REMARK  4 active torsions:
REMARK  status: ('A' for Active; 'I' for Inactive)
REMARK    1  A    between atoms: N_1  and  C_9
REMARK    2  A    between atoms: N_1  and  C_16
REMARK    3  A    between atoms: C_15  and  S_21
REMARK    4  A    between atoms: S_21  and  N_24
REMARK                            x       y       z     vdW  Elec       q    Type
REMARK                         _______ _______ _______ _____ _____    ______ ____
ROOT
ATOM      1  N   UNL     1      34.502 -13.570 -24.519  0.00  0.00    -0.311 N 
ATOM      2  H   UNL     1      34.646 -13.619 -25.491  0.00  0.00    +0.152 HD
ENDROOT
BRANCH   1   9
ATOM      3  O   UNL     1      33.967 -15.632 -26.486  0.00  0.00    -0.270 OA
ATOM      4  N   UNL     1      34.466 -17.759 -25.585  0.00  0.00    -0.280 N 
ATOM      5  C   UNL     1      35.169 -17.153 -23.481  0.00  0.00    +0.019 C 
ATOM      6  C   UNL     1      34.805 -15.950 -24.222  0.00  0.00    +0.069 C 
ATOM      7  C   UNL     1      34.945 -18.221 -24.354  0.00  0.00    +0.051 C 
ATOM      8  C   UNL     1      34.348 -16.365 -25.591  0.00  0.00    +0.251 C 
ATOM      9  C   UNL     1      34.844 -14.680 -23.817  0.00  0.00    +0.066 C 
ATOM     10  C   UNL     1      35.644 -17.375 -22.202  0.00  0.00    +0.001 C 
ATOM     11  C   UNL     1      35.181 -19.534 -23.994  0.00  0.00    +0.015 C 
ATOM     12  C   UNL     1      35.892 -18.697 -21.816  0.00  0.00    +0.000 C 
ATOM     13  C   UNL     1      35.661 -19.766 -22.704  0.00  0.00    +0.001 C 
ATOM     14  H   UNL     1      34.241 -18.339 -26.347  0.00  0.00    +0.155 HD
ENDBRANCH   1   9
BRANCH   1  16
ATOM     15  C   UNL     1      32.907  -9.956 -23.092  0.00  0.00    +0.122 C 
ATOM     16  C   UNL     1      33.968 -12.362 -24.042  0.00  0.00    +0.048 C 
ATOM     17  C   UNL     1      33.862  -9.944 -24.108  0.00  0.00    +0.021 C 
ATOM     18  C   UNL     1      32.480 -11.169 -22.551  0.00  0.00    +0.021 C 
ATOM     19  C   UNL     1      34.392 -11.144 -24.582  0.00  0.00    +0.016 C 
ATOM     20  C   UNL     1      33.010 -12.369 -23.024  0.00  0.00    +0.016 C 
BRANCH  15  21
ATOM     21  S   UNL     1      32.244  -8.454 -22.498  0.00  0.00    +0.060 S 
ATOM     22  O   UNL     1      31.200  -8.008 -23.412  0.00  0.00    -0.153 OA
ATOM     23  O   UNL     1      31.928  -8.636 -21.087  0.00  0.00    -0.153 OA
BRANCH  21  24
ATOM     24  N   UNL     1      33.574  -7.388 -22.625  0.00  0.00    -0.178 NA
ATOM     25  C   UNL     1      33.503  -6.235 -23.534  0.00  0.00    +0.110 C 
ATOM     26  H   UNL     1      34.373  -7.948 -22.922  0.00  0.00    +0.149 HD
ENDBRANCH  21  24
ENDBRANCH  15  21
ENDBRANCH   1  16
TORSDOF 4
ENDMDL
MODEL 6
REMARK VINA RESULT:      -9.6      2.422      9.386
REMARK  Name = 5288708
REMARK  4 active torsions:
REMARK  status: ('A' for Active; 'I' for Inactive)
REMARK    1  A    between atoms: N_1  and  C_9
REMARK    2  A    between atoms: N_1  and  C_16
REMARK    3  A    between atoms: C_15  and  S_21
REMARK    4  A    between atoms: S_21  and  N_24
REMARK                            x       y       z     vdW  Elec       q    Type
REMARK                         _______ _______ _______ _____ _____    ______ ____
ROOT
ATOM      1  N   UNL     1      33.927 -22.635 -19.025  0.00  0.00    -0.311 N 
ATOM      2  H   UNL     1      33.112 -23.096 -19.328  0.00  0.00    +0.152 HD
ENDROOT
BRANCH   1   9
ATOM      3  O   UNL     1      31.562 -22.712 -17.350  0.00  0.00    -0.270 OA
ATOM      4  N   UNL     1      32.126 -23.475 -15.187  0.00  0.00    -0.280 N 
ATOM      5  C   UNL     1      34.386 -23.807 -15.451  0.00  0.00    +0.019 C 
ATOM      6  C   UNL     1      33.829 -23.323 -16.709  0.00  0.00    +0.069 C 
ATOM      7  C   UNL     1      33.310 -23.882 -14.562  0.00  0.00    +0.051 C 
ATOM      8  C   UNL     1      32.355 -23.111 -16.518  0.00  0.00    +0.251 C 
ATOM      9  C   UNL     1      34.460 -23.086 -17.861  0.00  0.00    +0.066 C 
ATOM     10  C   UNL     1      35.660 -24.161 -15.047  0.00  0.00    +0.001 C 
ATOM     11  C   UNL     1      33.457 -24.306 -13.255  0.00  0.00    +0.015 C 
ATOM     12  C   UNL     1      35.832 -24.595 -13.728  0.00  0.00    +0.000 C 
ATOM     13  C   UNL     1      34.741 -24.665 -12.841  0.00  0.00    +0.001 C 
ATOM     14  H   UNL     1      31.246 -23.449 -14.746  0.00  0.00    +0.155 HD
ENDBRANCH   1   9
BRANCH   1  16
ATOM     15  C   UNL     1      35.296 -19.532 -21.503  0.00  0.00    +0.122 C 
ATOM     16  C   UNL     1      34.385 -21.598 -19.854  0.00  0.00    +0.048 C 
ATOM     17  C   UNL     1      36.206 -20.296 -20.773  0.00  0.00    +0.021 C 
ATOM     18  C   UNL     1      33.929 -19.800 -21.411  0.00  0.00    +0.021 C 
ATOM     19  C   UNL     1      35.752 -21.327 -19.951  0.00  0.00    +0.016 C 
ATOM     20  C   UNL     1      33.475 -20.831 -20.587  0.00  0.00    +0.016 C 
BRANCH  15  21
ATOM     21  S   UNL     1      35.864 -18.242 -22.532  0.00  0.00    +0.060 S 
ATOM     22  O   UNL     1      35.519 -16.966 -21.919  0.00  0.00    -0.153 OA
ATOM     23  O   UNL     1      37.254 -18.520 -22.867  0.00  0.00    -0.153 OA
BRANCH  21  24
ATOM     24  N   UNL     1      34.913 -18.447 -23.939  0.00  0.00    -0.178 NA
ATOM     25  C   UNL     1      34.882 -17.392 -24.961  0.00  0.00    +0.110 C 
ATOM     26  H   UNL     1      33.951 -18.582 -23.627  0.00  0.00    +0.149 HD
ENDBRANCH  21  24
ENDBRANCH  15  21
ENDBRANCH   1  16
TORSDOF 4
ENDMDL
MODEL 7
REMARK VINA RESULT:      -9.5      3.277      5.101
REMARK  Name = 5288708
REMARK  4 active torsions:
REMARK  status: ('A' for Active; 'I' for Inactive)
REMARK    1  A    between atoms: N_1  and  C_9
REMARK    2  A    between atoms: N_1  and  C_16
REMARK    3  A    between atoms: C_15  and  S_21
REMARK    4  A    between atoms: S_21  and  N_24
REMARK                            x       y       z     vdW  Elec       q    Type
REMARK                         _______ _______ _______ _____ _____    ______ ____
ROOT
ATOM      1  N   UNL     1      35.427 -22.385 -18.658  0.00  0.00    -0.311 N 
ATOM      2  H   UNL     1      36.371 -22.613 -18.500  0.00  0.00    +0.152 HD
ENDROOT
BRANCH   1   9
ATOM      3  O   UNL     1      37.585 -20.449 -18.626  0.00  0.00    -0.270 OA
ATOM      4  N   UNL     1      37.453 -19.058 -20.531  0.00  0.00    -0.280 N 
ATOM      5  C   UNL     1      35.589 -19.940 -21.549  0.00  0.00    +0.019 C 
ATOM      6  C   UNL     1      35.851 -20.680 -20.319  0.00  0.00    +0.069 C 
ATOM      7  C   UNL     1      36.591 -18.968 -21.629  0.00  0.00    +0.051 C 
ATOM      8  C   UNL     1      37.070 -20.090 -19.668  0.00  0.00    +0.251 C 
ATOM      9  C   UNL     1      35.170 -21.705 -19.804  0.00  0.00    +0.066 C 
ATOM     10  C   UNL     1      34.621 -20.037 -22.530  0.00  0.00    +0.001 C 
ATOM     11  C   UNL     1      36.667 -18.068 -22.675  0.00  0.00    +0.015 C 
ATOM     12  C   UNL     1      34.679 -19.136 -23.599  0.00  0.00    +0.000 C 
ATOM     13  C   UNL     1      35.692 -18.160 -23.669  0.00  0.00    +0.001 C 
ATOM     14  H   UNL     1      38.229 -18.470 -20.384  0.00  0.00    +0.155 HD
ENDBRANCH   1   9
BRANCH   1  16
ATOM     15  C   UNL     1      32.726 -23.633 -15.693  0.00  0.00    +0.122 C 
ATOM     16  C   UNL     1      34.524 -22.802 -17.667  0.00  0.00    +0.048 C 
ATOM     17  C   UNL     1      32.259 -23.286 -16.961  0.00  0.00    +0.021 C 
ATOM     18  C   UNL     1      34.091 -23.568 -15.410  0.00  0.00    +0.021 C 
ATOM     19  C   UNL     1      33.156 -22.871 -17.945  0.00  0.00    +0.016 C 
ATOM     20  C   UNL     1      34.988 -23.152 -16.395  0.00  0.00    +0.016 C 
BRANCH  15  21
ATOM     21  S   UNL     1      31.604 -24.152 -14.460  0.00  0.00    +0.060 S 
ATOM     22  O   UNL     1      31.556 -25.609 -14.452  0.00  0.00    -0.153 OA
ATOM     23  O   UNL     1      31.934 -23.441 -13.232  0.00  0.00    -0.153 OA
BRANCH  21  24
ATOM     24  N   UNL     1      30.111 -23.560 -15.048  0.00  0.00    -0.178 NA
ATOM     25  C   UNL     1      29.131 -24.491 -15.624  0.00  0.00    +0.110 C 
ATOM     26  H   UNL     1      30.330 -22.877 -15.773  0.00  0.00    +0.149 HD
ENDBRANCH  21  24
ENDBRANCH  15  21
ENDBRANCH   1  16
TORSDOF 4
ENDMDL
MODEL 8
REMARK VINA RESULT:      -9.5      2.452      9.613
REMARK  Name = 5288708
REMARK  4 active torsions:
REMARK  status: ('A' for Active; 'I' for Inactive)
REMARK    1  A    between atoms: N_1  and  C_9
REMARK    2  A    between atoms: N_1  and  C_16
REMARK    3  A    between atoms: C_15  and  S_21
REMARK    4  A    between atoms: S_21  and  N_24
REMARK                            x       y       z     vdW  Elec       q    Type
REMARK                         _______ _______ _______ _____ _____    ______ ____
ROOT
ATOM      1  N   UNL     1      34.613 -22.576 -18.345  0.00  0.00    -0.311 N 
ATOM      2  H   UNL     1      33.819 -23.142 -18.481  0.00  0.00    +0.152 HD
ENDROOT
BRANCH   1   9
ATOM      3  O   UNL     1      32.522 -23.733 -16.702  0.00  0.00    -0.270 OA
ATOM      4  N   UNL     1      33.365 -24.233 -14.552  0.00  0.00    -0.280 N 
ATOM      5  C   UNL     1      35.541 -23.530 -14.797  0.00  0.00    +0.019 C 
ATOM      6  C   UNL     1      34.828 -23.304 -16.049  0.00  0.00    +0.069 C 
ATOM      7  C   UNL     1      34.608 -24.096 -13.924  0.00  0.00    +0.051 C 
ATOM      8  C   UNL     1      33.410 -23.767 -15.871  0.00  0.00    +0.251 C 
ATOM      9  C   UNL     1      35.289 -22.781 -17.186  0.00  0.00    +0.066 C 
ATOM     10  C   UNL     1      36.841 -23.301 -14.387  0.00  0.00    +0.001 C 
ATOM     11  C   UNL     1      34.927 -24.450 -12.627  0.00  0.00    +0.015 C 
ATOM     12  C   UNL     1      37.187 -23.652 -13.078  0.00  0.00    +0.000 C 
ATOM     13  C   UNL     1      36.238 -24.221 -12.206  0.00  0.00    +0.001 C 
ATOM     14  H   UNL     1      32.563 -24.609 -14.123  0.00  0.00    +0.155 HD
ENDBRANCH   1   9
BRANCH   1  16
ATOM     15  C   UNL     1      35.455 -19.847 -21.424  0.00  0.00    +0.122 C 
ATOM     16  C   UNL     1      34.894 -21.664 -19.374  0.00  0.00    +0.048 C 
ATOM     17  C   UNL     1      34.133 -20.184 -21.133  0.00  0.00    +0.021 C 
ATOM     18  C   UNL     1      36.497 -20.416 -20.692  0.00  0.00    +0.021 C 
ATOM     19  C   UNL     1      33.853 -21.090 -20.110  0.00  0.00    +0.016 C 
ATOM     20  C   UNL     1      36.218 -21.323 -19.670  0.00  0.00    +0.016 C 
BRANCH  15  21
ATOM     21  S   UNL     1      35.805 -18.713 -22.704  0.00  0.00    +0.060 S 
ATOM     22  O   UNL     1      37.239 -18.730 -22.967  0.00  0.00    -0.153 OA
ATOM     23  O   UNL     1      34.876 -18.974 -23.796  0.00  0.00    -0.153 OA
BRANCH  21  24
ATOM     24  N   UNL     1      35.399 -17.214 -21.990  0.00  0.00    -0.178 NA
ATOM     25  C   UNL     1      35.263 -16.016 -22.831  0.00  0.00    +0.110 C 
ATOM     26  H   UNL     1      36.123 -17.009 -21.301  0.00  0.00    +0.149 HD
ENDBRANCH  21  24
ENDBRANCH  15  21
ENDBRANCH   1  16
TORSDOF 4
ENDMDL
MODEL 9
REMARK VINA RESULT:      -9.2      3.694      8.362
REMARK  Name = 5288708
REMARK  4 active torsions:
REMARK  status: ('A' for Active; 'I' for Inactive)
REMARK    1  A    between atoms: N_1  and  C_9
REMARK    2  A    between atoms: N_1  and  C_16
REMARK    3  A    between atoms: C_15  and  S_21
REMARK    4  A    between atoms: S_21  and  N_24
REMARK                            x       y       z     vdW  Elec       q    Type
REMARK                         _______ _______ _______ _____ _____    ______ ____
ROOT
ATOM      1  N   UNL     1      35.639 -18.833 -23.281  0.00  0.00    -0.311 N 
ATOM      2  H   UNL     1      36.406 -19.173 -23.795  0.00  0.00    +0.152 HD
ENDROOT
BRANCH   1   9
ATOM      3  O   UNL     1      37.807 -18.997 -21.362  0.00  0.00    -0.270 OA
ATOM      4  N   UNL     1      37.217 -20.451 -19.596  0.00  0.00    -0.280 N 
ATOM      5  C   UNL     1      35.110 -21.075 -20.272  0.00  0.00    +0.019 C 
ATOM      6  C   UNL     1      35.666 -20.149 -21.253  0.00  0.00    +0.069 C 
ATOM      7  C   UNL     1      36.092 -21.223 -19.288  0.00  0.00    +0.051 C 
ATOM      8  C   UNL     1      37.041 -19.754 -20.797  0.00  0.00    +0.251 C 
ATOM      9  C   UNL     1      35.109 -19.695 -22.377  0.00  0.00    +0.066 C 
ATOM     10  C   UNL     1      33.906 -21.749 -20.174  0.00  0.00    +0.001 C 
ATOM     11  C   UNL     1      35.917 -22.036 -18.185  0.00  0.00    +0.015 C 
ATOM     12  C   UNL     1      33.708 -22.577 -19.064  0.00  0.00    +0.000 C 
ATOM     13  C   UNL     1      34.705 -22.719 -18.079  0.00  0.00    +0.001 C 
ATOM     14  H   UNL     1      38.029 -20.405 -19.041  0.00  0.00    +0.155 HD
ENDBRANCH   1   9
BRANCH   1  16
ATOM     15  C   UNL     1      34.435 -14.910 -24.176  0.00  0.00    +0.122 C 
ATOM     16  C   UNL     1      35.237 -17.521 -23.580  0.00  0.00    +0.048 C 
ATOM     17  C   UNL     1      34.857 -15.233 -22.887  0.00  0.00    +0.021 C 
ATOM     18  C   UNL     1      34.414 -15.890 -25.169  0.00  0.00    +0.021 C 
ATOM     19  C   UNL     1      35.257 -16.536 -22.589  0.00  0.00    +0.016 C 
ATOM     20  C   UNL     1      34.814 -17.193 -24.872  0.00  0.00    +0.016 C 
BRANCH  15  21
ATOM     21  S   UNL     1      33.934 -13.280 -24.548  0.00  0.00    +0.060 S 
ATOM     22  O   UNL     1      34.924 -12.351 -24.017  0.00  0.00    -0.153 OA
ATOM     23  O   UNL     1      33.597 -13.231 -25.966  0.00  0.00    -0.153 OA
BRANCH  21  24
ATOM     24  N   UNL     1      32.493 -13.121 -23.641  0.00  0.00    -0.178 NA
ATOM     25  C   UNL     1      32.509 -12.392 -22.365  0.00  0.00    +0.110 C 
ATOM     26  H   UNL     1      32.168 -14.065 -23.436  0.00  0.00    +0.149 HD
ENDBRANCH  21  24
ENDBRANCH  15  21
ENDBRANCH   1  16
TORSDOF 4
ENDMDL
