MODEL 1
REMARK VINA RESULT:     -12.2      0.000      0.000
REMARK  Name = 25151352
REMARK  5 active torsions:
REMARK  status: ('A' for Active; 'I' for Inactive)
REMARK    1  A    between atoms: N_1  and  C_21
REMARK    2  A    between atoms: C_3  and  C_9
REMARK    3  A    between atoms: C_9  and  C_13
REMARK    4  A    between atoms: C_21  and  C_23
REMARK    5  A    between atoms: C_27  and  C_31
REMARK                            x       y       z     vdW  Elec       q    Type
REMARK                         _______ _______ _______ _____ _____    ______ ____
ROOT
ATOM      1  N   UNL     1      35.091 -22.297 -19.354  0.00  0.00    -0.314 N 
ATOM      2  N   UNL     1      36.622 -20.685 -20.214  0.00  0.00    -0.230 NA
ATOM      3  C   UNL     1      35.795 -18.874 -21.584  0.00  0.00    +0.002 C 
ATOM      4  C   UNL     1      34.498 -19.360 -21.457  0.00  0.00    +0.000 C 
ATOM      5  C   UNL     1      36.813 -19.567 -20.949  0.00  0.00    +0.096 C 
ATOM      6  C   UNL     1      35.348 -21.128 -20.114  0.00  0.00    +0.129 C 
ATOM      7  C   UNL     1      34.262 -20.508 -20.710  0.00  0.00    +0.034 C 
ATOM      8  H   UNL     1      35.847 -22.755 -18.921  0.00  0.00    +0.149 HD
ENDROOT
BRANCH   3   9
ATOM      9  C   UNL     1      36.085 -17.619 -22.395  0.00  0.00    +0.056 C 
BRANCH   9  13
ATOM     10 CL   UNL     1      34.157 -12.468 -24.634  0.00  0.00    -0.081 Cl
ATOM     11  N   UNL     1      34.427 -18.148 -25.611  0.00  0.00    -0.297 N 
ATOM     12  N   UNL     1      33.685 -16.008 -26.431  0.00  0.00    -0.228 NA
ATOM     13  C   UNL     1      35.379 -17.552 -23.690  0.00  0.00    -0.000 C 
ATOM     14  C   UNL     1      34.875 -16.383 -24.319  0.00  0.00    +0.030 C 
ATOM     15  C   UNL     1      34.289 -16.789 -25.514  0.00  0.00    +0.132 C 
ATOM     16  C   UNL     1      35.088 -18.623 -24.508  0.00  0.00    +0.059 C 
ATOM     17  C   UNL     1      34.845 -15.011 -24.017  0.00  0.00    +0.015 C 
ATOM     18  C   UNL     1      34.233 -14.158 -24.933  0.00  0.00    +0.077 C 
ATOM     19  C   UNL     1      33.685 -14.699 -26.088  0.00  0.00    +0.112 C 
ATOM     20  H   UNL     1      34.102 -18.700 -26.358  0.00  0.00    +0.154 HD
ENDBRANCH   9  13
ENDBRANCH   3   9
BRANCH   1  21
ATOM     21  C   UNL     1      33.780 -22.836 -19.192  0.00  0.00    +0.117 C 
BRANCH  21  23
ATOM     22  N   UNL     1      34.374 -23.867 -15.600  0.00  0.00    -0.240 NA
ATOM     23  C   UNL     1      33.518 -23.158 -17.747  0.00  0.00    +0.017 C 
ATOM     24  C   UNL     1      32.238 -23.058 -17.212  0.00  0.00    +0.000 C 
ATOM     25  C   UNL     1      34.542 -23.562 -16.907  0.00  0.00    +0.096 C 
ATOM     26  C   UNL     1      32.025 -23.363 -15.871  0.00  0.00    +0.023 C 
ATOM     27  C   UNL     1      33.117 -23.758 -15.115  0.00  0.00    +0.153 C 
BRANCH  27  31
ATOM     28  F   UNL     1      32.364 -25.319 -13.467  0.00  0.00    -0.164 F 
ATOM     29  F   UNL     1      34.087 -24.106 -12.956  0.00  0.00    -0.164 F 
ATOM     30  F   UNL     1      32.110 -23.204 -13.033  0.00  0.00    -0.164 F 
ATOM     31  C   UNL     1      32.925 -24.092 -13.674  0.00  0.00    +0.435 C 
ENDBRANCH  27  31
ENDBRANCH  21  23
ENDBRANCH   1  21
TORSDOF 5
ENDMDL
MODEL 2
REMARK VINA RESULT:     -12.1      1.211      1.659
REMARK  Name = 25151352
REMARK  5 active torsions:
REMARK  status: ('A' for Active; 'I' for Inactive)
REMARK    1  A    between atoms: N_1  and  C_21
REMARK    2  A    between atoms: C_3  and  C_9
REMARK    3  A    between atoms: C_9  and  C_13
REMARK    4  A    between atoms: C_21  and  C_23
REMARK    5  A    between atoms: C_27  and  C_31
REMARK                            x       y       z     vdW  Elec       q    Type
REMARK                         _______ _______ _______ _____ _____    ______ ____
ROOT
ATOM      1  N   UNL     1      33.550 -22.176 -19.092  0.00  0.00    -0.314 N 
ATOM      2  N   UNL     1      33.434 -20.538 -20.819  0.00  0.00    -0.230 NA
ATOM      3  C   UNL     1      35.471 -19.524 -21.635  0.00  0.00    +0.002 C 
ATOM      4  C   UNL     1      36.217 -20.290 -20.746  0.00  0.00    +0.000 C 
ATOM      5  C   UNL     1      34.094 -19.684 -21.633  0.00  0.00    +0.096 C 
ATOM      6  C   UNL     1      34.192 -21.264 -19.968  0.00  0.00    +0.129 C 
ATOM      7  C   UNL     1      35.573 -21.179 -19.893  0.00  0.00    +0.034 C 
ATOM      8  H   UNL     1      32.570 -22.254 -19.128  0.00  0.00    +0.149 HD
ENDROOT
BRANCH   3   9
ATOM      9  C   UNL     1      36.146 -18.544 -22.582  0.00  0.00    +0.056 C 
BRANCH   9  13
ATOM     10 CL   UNL     1      34.521 -12.997 -23.951  0.00  0.00    -0.081 Cl
ATOM     11  N   UNL     1      34.258 -18.485 -25.713  0.00  0.00    -0.297 N 
ATOM     12  N   UNL     1      33.649 -16.201 -26.177  0.00  0.00    -0.228 NA
ATOM     13  C   UNL     1      35.371 -18.240 -23.803  0.00  0.00    -0.000 C 
ATOM     14  C   UNL     1      34.929 -16.960 -24.228  0.00  0.00    +0.030 C 
ATOM     15  C   UNL     1      34.240 -17.147 -25.422  0.00  0.00    +0.132 C 
ATOM     16  C   UNL     1      34.943 -19.160 -24.736  0.00  0.00    +0.059 C 
ATOM     17  C   UNL     1      35.032 -15.647 -23.739  0.00  0.00    +0.015 C 
ATOM     18  C   UNL     1      34.438 -14.629 -24.483  0.00  0.00    +0.077 C 
ATOM     19  C   UNL     1      33.778 -14.958 -25.659  0.00  0.00    +0.112 C 
ATOM     20  H   UNL     1      33.844 -18.900 -26.504  0.00  0.00    +0.154 HD
ENDBRANCH   9  13
ENDBRANCH   3   9
BRANCH   1  21
ATOM     21  C   UNL     1      34.268 -22.984 -18.162  0.00  0.00    +0.117 C 
BRANCH  21  23
ATOM     22  N   UNL     1      33.158 -24.387 -14.828  0.00  0.00    -0.240 NA
ATOM     23  C   UNL     1      33.380 -23.385 -17.017  0.00  0.00    +0.017 C 
ATOM     24  C   UNL     1      32.010 -23.147 -17.055  0.00  0.00    +0.000 C 
ATOM     25  C   UNL     1      33.900 -24.002 -15.891  0.00  0.00    +0.096 C 
ATOM     26  C   UNL     1      31.214 -23.529 -15.980  0.00  0.00    +0.023 C 
ATOM     27  C   UNL     1      31.831 -24.139 -14.901  0.00  0.00    +0.153 C 
BRANCH  27  31
ATOM     28  F   UNL     1      30.853 -23.585 -12.789  0.00  0.00    -0.164 F 
ATOM     29  F   UNL     1      29.738 -24.939 -14.063  0.00  0.00    -0.164 F 
ATOM     30  F   UNL     1      31.544 -25.628 -13.068  0.00  0.00    -0.164 F 
ATOM     31  C   UNL     1      31.007 -24.562 -13.730  0.00  0.00    +0.435 C 
ENDBRANCH  27  31
ENDBRANCH  21  23
ENDBRANCH   1  21
TORSDOF 5
ENDMDL
MODEL 3
REMARK VINA RESULT:     -11.9      1.518      1.811
REMARK  Name = 25151352
REMARK  5 active torsions:
REMARK  status: ('A' for Active; 'I' for Inactive)
REMARK    1  A    between atoms: N_1  and  C_21
REMARK    2  A    between atoms: C_3  and  C_9
REMARK    3  A    between atoms: C_9  and  C_13
REMARK    4  A    between atoms: C_21  and  C_23
REMARK    5  A    between atoms: C_27  and  C_31
REMARK                            x       y       z     vdW  Elec       q    Type
REMARK                         _______ _______ _______ _____ _____    ______ ____
ROOT
ATOM      1  N   UNL     1      35.130 -22.052 -19.267  0.00  0.00    -0.314 N 
ATOM      2  N   UNL     1      36.597 -20.420 -20.196  0.00  0.00    -0.230 NA
ATOM      3  C   UNL     1      35.789 -18.946 -21.932  0.00  0.00    +0.002 C 
ATOM      4  C   UNL     1      34.540 -19.555 -21.878  0.00  0.00    +0.000 C 
ATOM      5  C   UNL     1      36.775 -19.411 -21.078  0.00  0.00    +0.096 C 
ATOM      6  C   UNL     1      35.371 -20.989 -20.173  0.00  0.00    +0.129 C 
ATOM      7  C   UNL     1      34.319 -20.597 -20.985  0.00  0.00    +0.034 C 
ATOM      8  H   UNL     1      35.862 -22.347 -18.680  0.00  0.00    +0.149 HD
ENDROOT
BRANCH   3   9
ATOM      9  C   UNL     1      36.061 -17.802 -22.898  0.00  0.00    +0.056 C 
BRANCH   9  13
ATOM     10 CL   UNL     1      33.671 -14.333 -27.084  0.00  0.00    -0.081 Cl
ATOM     11  N   UNL     1      34.516 -14.846 -21.399  0.00  0.00    -0.297 N 
ATOM     12  N   UNL     1      33.581 -13.510 -23.173  0.00  0.00    -0.228 NA
ATOM     13  C   UNL     1      35.371 -16.540 -22.560  0.00  0.00    -0.000 C 
ATOM     14  C   UNL     1      34.767 -15.636 -23.473  0.00  0.00    +0.030 C 
ATOM     15  C   UNL     1      34.242 -14.591 -22.717  0.00  0.00    +0.132 C 
ATOM     16  C   UNL     1      35.202 -16.028 -21.292  0.00  0.00    +0.059 C 
ATOM     17  C   UNL     1      34.597 -15.575 -24.866  0.00  0.00    +0.015 C 
ATOM     18  C   UNL     1      33.918 -14.477 -25.391  0.00  0.00    +0.077 C 
ATOM     19  C   UNL     1      33.448 -13.504 -24.520  0.00  0.00    +0.112 C 
ATOM     20  H   UNL     1      34.259 -14.269 -20.645  0.00  0.00    +0.154 HD
ENDBRANCH   9  13
ENDBRANCH   3   9
BRANCH   1  21
ATOM     21  C   UNL     1      33.868 -22.710 -19.172  0.00  0.00    +0.117 C 
BRANCH  21  23
ATOM     22  N   UNL     1      34.356 -23.793 -15.580  0.00  0.00    -0.240 NA
ATOM     23  C   UNL     1      33.562 -23.060 -17.742  0.00  0.00    +0.017 C 
ATOM     24  C   UNL     1      32.264 -22.986 -17.248  0.00  0.00    +0.000 C 
ATOM     25  C   UNL     1      34.563 -23.465 -16.875  0.00  0.00    +0.096 C 
ATOM     26  C   UNL     1      32.011 -23.316 -15.921  0.00  0.00    +0.023 C 
ATOM     27  C   UNL     1      33.082 -23.709 -15.135  0.00  0.00    +0.153 C 
BRANCH  27  31
ATOM     28  F   UNL     1      32.376 -25.339 -13.533  0.00  0.00    -0.164 F 
ATOM     29  F   UNL     1      33.970 -23.997 -12.932  0.00  0.00    -0.164 F 
ATOM     30  F   UNL     1      31.933 -23.254 -13.103  0.00  0.00    -0.164 F 
ATOM     31  C   UNL     1      32.847 -24.069 -13.706  0.00  0.00    +0.435 C 
ENDBRANCH  27  31
ENDBRANCH  21  23
ENDBRANCH   1  21
TORSDOF 5
ENDMDL
MODEL 4
REMARK VINA RESULT:     -11.6      2.015      2.568
REMARK  Name = 25151352
REMARK  5 active torsions:
REMARK  status: ('A' for Active; 'I' for Inactive)
REMARK    1  A    between atoms: N_1  and  C_21
REMARK    2  A    between atoms: C_3  and  C_9
REMARK    3  A    between atoms: C_9  and  C_13
REMARK    4  A    between atoms: C_21  and  C_23
REMARK    5  A    between atoms: C_27  and  C_31
REMARK                            x       y       z     vdW  Elec       q    Type
REMARK                         _______ _______ _______ _____ _____    ______ ____
ROOT
ATOM      1  N   UNL     1      36.189 -21.595 -19.128  0.00  0.00    -0.314 N 
ATOM      2  N   UNL     1      37.153 -19.914 -20.516  0.00  0.00    -0.230 NA
ATOM      3  C   UNL     1      35.789 -18.831 -22.192  0.00  0.00    +0.002 C 
ATOM      4  C   UNL     1      34.696 -19.602 -21.812  0.00  0.00    +0.000 C 
ATOM      5  C   UNL     1      36.984 -19.023 -21.519  0.00  0.00    +0.096 C 
ATOM      6  C   UNL     1      36.069 -20.646 -20.174  0.00  0.00    +0.129 C 
ATOM      7  C   UNL     1      34.830 -20.530 -20.785  0.00  0.00    +0.034 C 
ATOM      8  H   UNL     1      37.059 -21.695 -18.680  0.00  0.00    +0.149 HD
ENDROOT
BRANCH   3   9
ATOM      9  C   UNL     1      35.673 -17.807 -23.312  0.00  0.00    +0.056 C 
BRANCH   9  13
ATOM     10 CL   UNL     1      33.566 -13.816 -27.173  0.00  0.00    -0.081 Cl
ATOM     11  N   UNL     1      34.695 -14.733 -21.589  0.00  0.00    -0.297 N 
ATOM     12  N   UNL     1      33.858 -13.186 -23.235  0.00  0.00    -0.228 NA
ATOM     13  C   UNL     1      35.206 -16.475 -22.875  0.00  0.00    -0.000 C 
ATOM     14  C   UNL     1      34.687 -15.447 -23.704  0.00  0.00    +0.030 C 
ATOM     15  C   UNL     1      34.377 -14.375 -22.872  0.00  0.00    +0.132 C 
ATOM     16  C   UNL     1      35.200 -16.007 -21.578  0.00  0.00    +0.059 C 
ATOM     17  C   UNL     1      34.437 -15.292 -25.078  0.00  0.00    +0.015 C 
ATOM     18  C   UNL     1      33.899 -14.080 -25.508  0.00  0.00    +0.077 C 
ATOM     19  C   UNL     1      33.639 -13.093 -24.568  0.00  0.00    +0.112 C 
ATOM     20  H   UNL     1      34.579 -14.163 -20.795  0.00  0.00    +0.154 HD
ENDBRANCH   9  13
ENDBRANCH   3   9
BRANCH   1  21
ATOM     21  C   UNL     1      35.100 -22.410 -18.700  0.00  0.00    +0.117 C 
BRANCH  21  23
ATOM     22  N   UNL     1      36.709 -22.961 -15.320  0.00  0.00    -0.240 NA
ATOM     23  C   UNL     1      35.277 -22.812 -17.262  0.00  0.00    +0.017 C 
ATOM     24  C   UNL     1      34.233 -23.387 -16.545  0.00  0.00    +0.000 C 
ATOM     25  C   UNL     1      36.484 -22.622 -16.609  0.00  0.00    +0.096 C 
ATOM     26  C   UNL     1      34.426 -23.749 -15.216  0.00  0.00    +0.023 C 
ATOM     27  C   UNL     1      35.671 -23.517 -14.655  0.00  0.00    +0.153 C 
BRANCH  27  31
ATOM     28  F   UNL     1      36.751 -23.037 -12.575  0.00  0.00    -0.164 F 
ATOM     29  F   UNL     1      34.777 -23.931 -12.475  0.00  0.00    -0.164 F 
ATOM     30  F   UNL     1      36.480 -25.128 -13.104  0.00  0.00    -0.164 F 
ATOM     31  C   UNL     1      35.914 -23.893 -13.231  0.00  0.00    +0.435 C 
ENDBRANCH  27  31
ENDBRANCH  21  23
ENDBRANCH   1  21
TORSDOF 5
ENDMDL
MODEL 5
REMARK VINA RESULT:     -11.4      3.708      5.900
REMARK  Name = 25151352
REMARK  5 active torsions:
REMARK  status: ('A' for Active; 'I' for Inactive)
REMARK    1  A    between atoms: N_1  and  C_21
REMARK    2  A    between atoms: C_3  and  C_9
REMARK    3  A    between atoms: C_9  and  C_13
REMARK    4  A    between atoms: C_21  and  C_23
REMARK    5  A    between atoms: C_27  and  C_31
REMARK                            x       y       z     vdW  Elec       q    Type
REMARK                         _______ _______ _______ _____ _____    ______ ____
ROOT
ATOM      1  N   UNL     1      35.973 -18.388 -23.418  0.00  0.00    -0.314 N 
ATOM      2  N   UNL     1      34.730 -16.949 -24.854  0.00  0.00    -0.230 NA
ATOM      3  C   UNL     1      34.320 -14.663 -24.182  0.00  0.00    +0.002 C 
ATOM      4  C   UNL     1      35.020 -14.878 -22.999  0.00  0.00    +0.000 C 
ATOM      5  C   UNL     1      34.205 -15.721 -25.068  0.00  0.00    +0.096 C 
ATOM      6  C   UNL     1      35.401 -17.120 -23.693  0.00  0.00    +0.129 C 
ATOM      7  C   UNL     1      35.573 -16.127 -22.742  0.00  0.00    +0.034 C 
ATOM      8  H   UNL     1      35.864 -19.108 -24.078  0.00  0.00    +0.149 HD
ENDROOT
BRANCH   3   9
ATOM      9  C   UNL     1      33.704 -13.307 -24.492  0.00  0.00    +0.056 C 
BRANCH   9  13
ATOM     10 CL   UNL     1      33.454  -7.410 -23.833  0.00  0.00    -0.081 Cl
ATOM     11  N   UNL     1      31.821 -12.421 -21.484  0.00  0.00    -0.297 N 
ATOM     12  N   UNL     1      31.779 -10.019 -21.309  0.00  0.00    -0.228 NA
ATOM     13  C   UNL     1      32.999 -12.682 -23.354  0.00  0.00    -0.000 C 
ATOM     14  C   UNL     1      32.876 -11.291 -23.096  0.00  0.00    +0.030 C 
ATOM     15  C   UNL     1      32.136 -11.162 -21.924  0.00  0.00    +0.132 C 
ATOM     16  C   UNL     1      32.340 -13.353 -22.345  0.00  0.00    +0.059 C 
ATOM     17  C   UNL     1      33.307 -10.110 -23.721  0.00  0.00    +0.015 C 
ATOM     18  C   UNL     1      32.964  -8.897 -23.127  0.00  0.00    +0.077 C 
ATOM     19  C   UNL     1      32.221  -8.914 -21.954  0.00  0.00    +0.112 C 
ATOM     20  H   UNL     1      31.301 -12.626 -20.674  0.00  0.00    +0.154 HD
ENDBRANCH   9  13
ENDBRANCH   3   9
BRANCH   1  21
ATOM     21  C   UNL     1      36.699 -18.660 -22.221  0.00  0.00    +0.117 C 
BRANCH  21  23
ATOM     22  N   UNL     1      36.038 -21.419 -19.717  0.00  0.00    -0.240 NA
ATOM     23  C   UNL     1      35.961 -19.658 -21.373  0.00  0.00    +0.017 C 
ATOM     24  C   UNL     1      34.576 -19.767 -21.434  0.00  0.00    +0.000 C 
ATOM     25  C   UNL     1      36.639 -20.500 -20.506  0.00  0.00    +0.096 C 
ATOM     26  C   UNL     1      33.921 -20.700 -20.638  0.00  0.00    +0.023 C 
ATOM     27  C   UNL     1      34.691 -21.495 -19.804  0.00  0.00    +0.153 C 
BRANCH  27  31
ATOM     28  F   UNL     1      32.754 -22.157 -18.565  0.00  0.00    -0.164 F 
ATOM     29  F   UNL     1      33.894 -23.733 -19.524  0.00  0.00    -0.164 F 
ATOM     30  F   UNL     1      34.696 -22.727 -17.770  0.00  0.00    -0.164 F 
ATOM     31  C   UNL     1      34.021 -22.507 -18.936  0.00  0.00    +0.435 C 
ENDBRANCH  27  31
ENDBRANCH  21  23
ENDBRANCH   1  21
TORSDOF 5
ENDMDL
MODEL 6
REMARK VINA RESULT:     -11.3      7.503     12.027
REMARK  Name = 25151352
REMARK  5 active torsions:
REMARK  status: ('A' for Active; 'I' for Inactive)
REMARK    1  A    between atoms: N_1  and  C_21
REMARK    2  A    between atoms: C_3  and  C_9
REMARK    3  A    between atoms: C_9  and  C_13
REMARK    4  A    between atoms: C_21  and  C_23
REMARK    5  A    between atoms: C_27  and  C_31
REMARK                            x       y       z     vdW  Elec       q    Type
REMARK                         _______ _______ _______ _____ _____    ______ ____
ROOT
ATOM      1  N   UNL     1      34.362 -12.446 -23.234  0.00  0.00    -0.314 N 
ATOM      2  N   UNL     1      34.826 -14.580 -22.279  0.00  0.00    -0.230 NA
ATOM      3  C   UNL     1      35.010 -16.512 -23.719  0.00  0.00    +0.002 C 
ATOM      4  C   UNL     1      34.760 -15.716 -24.832  0.00  0.00    +0.000 C 
ATOM      5  C   UNL     1      35.033 -15.901 -22.476  0.00  0.00    +0.096 C 
ATOM      6  C   UNL     1      34.585 -13.838 -23.383  0.00  0.00    +0.129 C 
ATOM      7  C   UNL     1      34.542 -14.353 -24.669  0.00  0.00    +0.034 C 
ATOM      8  H   UNL     1      34.387 -12.058 -22.331  0.00  0.00    +0.149 HD
ENDROOT
BRANCH   3   9
ATOM      9  C   UNL     1      35.254 -18.007 -23.865  0.00  0.00    +0.056 C 
BRANCH   9  13
ATOM     10 CL   UNL     1      33.090 -21.711 -19.758  0.00  0.00    -0.081 Cl
ATOM     11  N   UNL     1      37.894 -19.081 -21.573  0.00  0.00    -0.297 N 
ATOM     12  N   UNL     1      36.917 -20.573 -19.954  0.00  0.00    -0.228 NA
ATOM     13  C   UNL     1      36.114 -18.591 -22.814  0.00  0.00    -0.000 C 
ATOM     14  C   UNL     1      35.708 -19.482 -21.787  0.00  0.00    +0.030 C 
ATOM     15  C   UNL     1      36.841 -19.769 -21.031  0.00  0.00    +0.132 C 
ATOM     16  C   UNL     1      37.465 -18.362 -22.657  0.00  0.00    +0.059 C 
ATOM     17  C   UNL     1      34.502 -20.089 -21.400  0.00  0.00    +0.015 C 
ATOM     18  C   UNL     1      34.525 -20.932 -20.291  0.00  0.00    +0.077 C 
ATOM     19  C   UNL     1      35.728 -21.130 -19.626  0.00  0.00    +0.112 C 
ATOM     20  H   UNL     1      38.818 -19.101 -21.236  0.00  0.00    +0.154 HD
ENDBRANCH   9  13
ENDBRANCH   3   9
BRANCH   1  21
ATOM     21  C   UNL     1      34.100 -11.587 -24.342  0.00  0.00    +0.117 C 
BRANCH  21  23
ATOM     22  N   UNL     1      32.153  -8.738 -22.788  0.00  0.00    -0.240 NA
ATOM     23  C   UNL     1      33.745 -10.206 -23.864  0.00  0.00    +0.017 C 
ATOM     24  C   UNL     1      34.623  -9.140 -24.035  0.00  0.00    +0.000 C 
ATOM     25  C   UNL     1      32.534  -9.954 -23.240  0.00  0.00    +0.096 C 
ATOM     26  C   UNL     1      34.266  -7.874 -23.583  0.00  0.00    +0.023 C 
ATOM     27  C   UNL     1      33.032  -7.727 -22.972  0.00  0.00    +0.153 C 
BRANCH  27  31
ATOM     28  F   UNL     1      32.939  -6.161 -21.166  0.00  0.00    -0.164 F 
ATOM     29  F   UNL     1      33.184  -5.347 -23.162  0.00  0.00    -0.164 F 
ATOM     30  F   UNL     1      31.269  -6.185 -22.559  0.00  0.00    -0.164 F 
ATOM     31  C   UNL     1      32.617  -6.383 -22.475  0.00  0.00    +0.435 C 
ENDBRANCH  27  31
ENDBRANCH  21  23
ENDBRANCH   1  21
TORSDOF 5
ENDMDL
MODEL 7
REMARK VINA RESULT:     -11.3      3.548      5.571
REMARK  Name = 25151352
REMARK  5 active torsions:
REMARK  status: ('A' for Active; 'I' for Inactive)
REMARK    1  A    between atoms: N_1  and  C_21
REMARK    2  A    between atoms: C_3  and  C_9
REMARK    3  A    between atoms: C_9  and  C_13
REMARK    4  A    between atoms: C_21  and  C_23
REMARK    5  A    between atoms: C_27  and  C_31
REMARK                            x       y       z     vdW  Elec       q    Type
REMARK                         _______ _______ _______ _____ _____    ______ ____
ROOT
ATOM      1  N   UNL     1      35.873 -17.549 -21.456  0.00  0.00    -0.314 N 
ATOM      2  N   UNL     1      34.960 -15.388 -21.876  0.00  0.00    -0.230 NA
ATOM      3  C   UNL     1      34.310 -14.790 -24.126  0.00  0.00    +0.002 C 
ATOM      4  C   UNL     1      34.708 -16.042 -24.582  0.00  0.00    +0.000 C 
ATOM      5  C   UNL     1      34.455 -14.515 -22.776  0.00  0.00    +0.096 C 
ATOM      6  C   UNL     1      35.337 -16.594 -22.356  0.00  0.00    +0.129 C 
ATOM      7  C   UNL     1      35.233 -16.967 -23.687  0.00  0.00    +0.034 C 
ATOM      8  H   UNL     1      35.957 -17.307 -20.506  0.00  0.00    +0.149 HD
ENDROOT
BRANCH   3   9
ATOM      9  C   UNL     1      33.731 -13.757 -25.081  0.00  0.00    +0.056 C 
BRANCH   9  13
ATOM     10 CL   UNL     1      30.462 -11.329 -20.757  0.00  0.00    -0.081 Cl
ATOM     11  N   UNL     1      34.707 -10.277 -24.521  0.00  0.00    -0.297 N 
ATOM     12  N   UNL     1      33.328  -9.388 -22.757  0.00  0.00    -0.228 NA
ATOM     13  C   UNL     1      33.924 -12.355 -24.655  0.00  0.00    -0.000 C 
ATOM     14  C   UNL     1      33.204 -11.673 -23.639  0.00  0.00    +0.030 C 
ATOM     15  C   UNL     1      33.717 -10.381 -23.580  0.00  0.00    +0.132 C 
ATOM     16  C   UNL     1      34.841 -11.471 -25.181  0.00  0.00    +0.059 C 
ATOM     17  C   UNL     1      32.167 -11.998 -22.750  0.00  0.00    +0.015 C 
ATOM     18  C   UNL     1      31.726 -11.007 -21.874  0.00  0.00    +0.077 C 
ATOM     19  C   UNL     1      32.327  -9.757 -21.924  0.00  0.00    +0.112 C 
ATOM     20  H   UNL     1      35.241  -9.469 -24.697  0.00  0.00    +0.154 HD
ENDBRANCH   9  13
ENDBRANCH   3   9
BRANCH   1  21
ATOM     21  C   UNL     1      36.297 -18.846 -21.872  0.00  0.00    +0.117 C 
BRANCH  21  23
ATOM     22  N   UNL     1      35.862 -21.743 -19.478  0.00  0.00    -0.240 NA
ATOM     23  C   UNL     1      35.639 -19.908 -21.036  0.00  0.00    +0.017 C 
ATOM     24  C   UNL     1      34.256 -20.058 -21.026  0.00  0.00    +0.000 C 
ATOM     25  C   UNL     1      36.390 -20.768 -20.251  0.00  0.00    +0.096 C 
ATOM     26  C   UNL     1      33.676 -21.051 -20.243  0.00  0.00    +0.023 C 
ATOM     27  C   UNL     1      34.515 -21.859 -19.494  0.00  0.00    +0.153 C 
BRANCH  27  31
ATOM     28  F   UNL     1      33.855 -24.147 -19.264  0.00  0.00    -0.164 F 
ATOM     29  F   UNL     1      34.624 -23.163 -17.491  0.00  0.00    -0.164 F 
ATOM     30  F   UNL     1      32.651 -22.650 -18.246  0.00  0.00    -0.164 F 
ATOM     31  C   UNL     1      33.926 -22.934 -18.642  0.00  0.00    +0.435 C 
ENDBRANCH  27  31
ENDBRANCH  21  23
ENDBRANCH   1  21
TORSDOF 5
ENDMDL
MODEL 8
REMARK VINA RESULT:     -11.3      6.248     10.851
REMARK  Name = 25151352
REMARK  5 active torsions:
REMARK  status: ('A' for Active; 'I' for Inactive)
REMARK    1  A    between atoms: N_1  and  C_21
REMARK    2  A    between atoms: C_3  and  C_9
REMARK    3  A    between atoms: C_9  and  C_13
REMARK    4  A    between atoms: C_21  and  C_23
REMARK    5  A    between atoms: C_27  and  C_31
REMARK                            x       y       z     vdW  Elec       q    Type
REMARK                         _______ _______ _______ _____ _____    ______ ____
ROOT
ATOM      1  N   UNL     1      36.248 -17.618 -23.271  0.00  0.00    -0.314 N 
ATOM      2  N   UNL     1      37.377 -18.825 -21.554  0.00  0.00    -0.230 NA
ATOM      3  C   UNL     1      36.243 -20.644 -20.437  0.00  0.00    +0.002 C 
ATOM      4  C   UNL     1      35.114 -20.431 -21.221  0.00  0.00    +0.000 C 
ATOM      5  C   UNL     1      37.338 -19.821 -20.640  0.00  0.00    +0.096 C 
ATOM      6  C   UNL     1      36.262 -18.648 -22.297  0.00  0.00    +0.129 C 
ATOM      7  C   UNL     1      35.116 -19.416 -22.171  0.00  0.00    +0.034 C 
ATOM      8  H   UNL     1      37.050 -17.059 -23.378  0.00  0.00    +0.149 HD
ENDROOT
BRANCH   3   9
ATOM      9  C   UNL     1      36.272 -21.747 -19.390  0.00  0.00    +0.056 C 
BRANCH   9  13
ATOM     10 CL   UNL     1      35.465 -23.942 -13.930  0.00  0.00    -0.081 Cl
ATOM     11  N   UNL     1      32.759 -22.604 -18.848  0.00  0.00    -0.297 N 
ATOM     12  N   UNL     1      32.538 -23.482 -16.615  0.00  0.00    -0.228 NA
ATOM     13  C   UNL     1      34.940 -22.173 -18.913  0.00  0.00    -0.000 C 
ATOM     14  C   UNL     1      34.631 -22.710 -17.636  0.00  0.00    +0.030 C 
ATOM     15  C   UNL     1      33.263 -22.967 -17.627  0.00  0.00    +0.132 C 
ATOM     16  C   UNL     1      33.769 -22.120 -19.638  0.00  0.00    +0.059 C 
ATOM     17  C   UNL     1      35.353 -23.012 -16.470  0.00  0.00    +0.015 C 
ATOM     18  C   UNL     1      34.651 -23.547 -15.391  0.00  0.00    +0.077 C 
ATOM     19  C   UNL     1      33.284 -23.754 -15.519  0.00  0.00    +0.112 C 
ATOM     20  H   UNL     1      31.815 -22.679 -19.117  0.00  0.00    +0.154 HD
ENDBRANCH   9  13
ENDBRANCH   3   9
BRANCH   1  21
ATOM     21  C   UNL     1      35.117 -17.359 -24.100  0.00  0.00    +0.117 C 
BRANCH  21  23
ATOM     22  N   UNL     1      34.026 -13.959 -25.353  0.00  0.00    -0.240 NA
ATOM     23  C   UNL     1      34.805 -15.888 -24.121  0.00  0.00    +0.017 C 
ATOM     24  C   UNL     1      34.991 -15.099 -22.990  0.00  0.00    +0.000 C 
ATOM     25  C   UNL     1      34.325 -15.275 -25.267  0.00  0.00    +0.096 C 
ATOM     26  C   UNL     1      34.694 -13.741 -23.041  0.00  0.00    +0.023 C 
ATOM     27  C   UNL     1      34.218 -13.225 -24.235  0.00  0.00    +0.153 C 
BRANCH  27  31
ATOM     28  F   UNL     1      32.930 -11.374 -23.438  0.00  0.00    -0.164 F 
ATOM     29  F   UNL     1      34.957 -10.954 -24.085  0.00  0.00    -0.164 F 
ATOM     30  F   UNL     1      33.422 -11.415 -25.555  0.00  0.00    -0.164 F 
ATOM     31  C   UNL     1      33.889 -11.772 -24.324  0.00  0.00    +0.435 C 
ENDBRANCH  27  31
ENDBRANCH  21  23
ENDBRANCH   1  21
TORSDOF 5
ENDMDL
MODEL 9
REMARK VINA RESULT:     -11.1      6.443     11.313
REMARK  Name = 25151352
REMARK  5 active torsions:
REMARK  status: ('A' for Active; 'I' for Inactive)
REMARK    1  A    between atoms: N_1  and  C_21
REMARK    2  A    between atoms: C_3  and  C_9
REMARK    3  A    between atoms: C_9  and  C_13
REMARK    4  A    between atoms: C_21  and  C_23
REMARK    5  A    between atoms: C_27  and  C_31
REMARK                            x       y       z     vdW  Elec       q    Type
REMARK                         _______ _______ _______ _____ _____    ______ ____
ROOT
ATOM      1  N   UNL     1      34.623 -19.068 -22.792  0.00  0.00    -0.314 N 
ATOM      2  N   UNL     1      33.796 -20.498 -21.075  0.00  0.00    -0.230 NA
ATOM      3  C   UNL     1      35.346 -21.507 -19.519  0.00  0.00    +0.002 C 
ATOM      4  C   UNL     1      36.409 -20.879 -20.159  0.00  0.00    +0.000 C 
ATOM      5  C   UNL     1      34.070 -21.286 -20.011  0.00  0.00    +0.096 C 
ATOM      6  C   UNL     1      34.854 -19.905 -21.672  0.00  0.00    +0.129 C 
ATOM      7  C   UNL     1      36.166 -20.062 -21.257  0.00  0.00    +0.034 C 
ATOM      8  H   UNL     1      33.699 -18.942 -23.105  0.00  0.00    +0.149 HD
ENDROOT
BRANCH   3   9
ATOM      9  C   UNL     1      35.578 -22.407 -18.314  0.00  0.00    +0.056 C 
BRANCH   9  13
ATOM     10 CL   UNL     1      35.706 -24.553 -12.777  0.00  0.00    -0.081 Cl
ATOM     11  N   UNL     1      32.204 -23.232 -17.169  0.00  0.00    -0.297 N 
ATOM     12  N   UNL     1      32.365 -24.090 -14.924  0.00  0.00    -0.228 NA
ATOM     13  C   UNL     1      34.345 -22.818 -17.611  0.00  0.00    -0.000 C 
ATOM     14  C   UNL     1      34.256 -23.343 -16.295  0.00  0.00    +0.030 C 
ATOM     15  C   UNL     1      32.909 -23.589 -16.050  0.00  0.00    +0.132 C 
ATOM     16  C   UNL     1      33.067 -22.762 -18.125  0.00  0.00    +0.059 C 
ATOM     17  C   UNL     1      35.166 -23.642 -15.268  0.00  0.00    +0.015 C 
ATOM     18  C   UNL     1      34.656 -24.163 -14.080  0.00  0.00    +0.077 C 
ATOM     19  C   UNL     1      33.286 -24.360 -13.970  0.00  0.00    +0.112 C 
ATOM     20  H   UNL     1      31.228 -23.301 -17.272  0.00  0.00    +0.154 HD
ENDBRANCH   9  13
ENDBRANCH   3   9
BRANCH   1  21
ATOM     21  C   UNL     1      35.677 -18.401 -23.484  0.00  0.00    +0.117 C 
BRANCH  21  23
ATOM     22  N   UNL     1      34.071 -16.420 -26.279  0.00  0.00    -0.240 NA
ATOM     23  C   UNL     1      35.138 -17.238 -24.269  0.00  0.00    +0.017 C 
ATOM     24  C   UNL     1      35.192 -15.944 -23.762  0.00  0.00    +0.000 C 
ATOM     25  C   UNL     1      34.573 -17.421 -25.521  0.00  0.00    +0.096 C 
ATOM     26  C   UNL     1      34.686 -14.888 -24.513  0.00  0.00    +0.023 C 
ATOM     27  C   UNL     1      34.141 -15.176 -25.753  0.00  0.00    +0.153 C 
BRANCH  27  31
ATOM     28  F   UNL     1      32.271 -14.229 -26.907  0.00  0.00    -0.164 F 
ATOM     29  F   UNL     1      33.660 -12.844 -25.982  0.00  0.00    -0.164 F 
ATOM     30  F   UNL     1      34.242 -13.928 -27.775  0.00  0.00    -0.164 F 
ATOM     31  C   UNL     1      33.588 -14.067 -26.585  0.00  0.00    +0.435 C 
ENDBRANCH  27  31
ENDBRANCH  21  23
ENDBRANCH   1  21
TORSDOF 5
ENDMDL
