MODEL 1
REMARK VINA RESULT:     -11.8      0.000      0.000
REMARK  Name = 5326929
REMARK  3 active torsions:
REMARK  status: ('A' for Active; 'I' for Inactive)
REMARK    1  A    between atoms: C_7  and  C_21
REMARK    2  A    between atoms: C_21  and  C_22
REMARK    3  A    between atoms: C_22  and  C_23
REMARK                            x       y       z     vdW  Elec       q    Type
REMARK                         _______ _______ _______ _____ _____    ______ ____
ROOT
ATOM      1  O   UNL     1      34.940 -25.035 -12.061  0.00  0.00    -0.209 OA
ATOM      2  N   UNL     1      34.924 -23.054 -15.542  0.00  0.00    -0.275 N 
ATOM      3  N   UNL     1      30.137 -25.387 -14.162  0.00  0.00    -0.315 N 
ATOM      4  N   UNL     1      30.160 -24.279 -16.088  0.00  0.00    -0.316 N 
ATOM      5  N   UNL     1      36.088 -23.787 -13.600  0.00  0.00    -0.302 NA
ATOM      6  N   UNL     1      37.132 -22.503 -15.258  0.00  0.00    -0.320 N 
ATOM      7  C   UNL     1      32.578 -23.583 -15.943  0.00  0.00    +0.007 C 
ATOM      8  C   UNL     1      33.731 -23.665 -15.146  0.00  0.00    +0.060 C 
ATOM      9  C   UNL     1      31.403 -24.215 -15.500  0.00  0.00    +0.056 C 
ATOM     10  C   UNL     1      31.414 -24.901 -14.290  0.00  0.00    +0.060 C 
ATOM     11  C   UNL     1      33.703 -24.368 -13.931  0.00  0.00    +0.109 C 
ATOM     12  C   UNL     1      32.540 -25.005 -13.473  0.00  0.00    +0.029 C 
ATOM     13  C   UNL     1      34.956 -24.423 -13.125  0.00  0.00    +0.208 C 
ATOM     14  C   UNL     1      29.427 -24.988 -15.261  0.00  0.00    +0.182 C 
ATOM     15  C   UNL     1      36.039 -23.151 -14.741  0.00  0.00    +0.248 C 
ATOM     16  H   UNL     1      34.967 -22.557 -16.390  0.00  0.00    +0.156 HD
ATOM     17  H   UNL     1      29.794 -25.925 -13.414  0.00  0.00    +0.148 HD
ATOM     18  H   UNL     1      29.882 -23.880 -16.944  0.00  0.00    +0.148 HD
ATOM     19  H   UNL     1      37.064 -22.033 -16.122  0.00  0.00    +0.146 HD
ATOM     20  H   UNL     1      37.985 -22.507 -14.768  0.00  0.00    +0.146 HD
ENDROOT
BRANCH   7  21
ATOM     21  C   UNL     1      32.601 -22.835 -17.239  0.00  0.00    +0.034 C 
BRANCH  21  22
ATOM     22  C   UNL     1      33.692 -23.313 -18.215  0.00  0.00    +0.031 C 
BRANCH  22  23
ATOM     23  C   UNL     1      34.146 -22.240 -19.173  0.00  0.00    -0.022 C 
ATOM     24  C   UNL     1      33.198 -21.480 -19.843  0.00  0.00    -0.005 C 
ATOM     25  C   UNL     1      35.502 -22.030 -19.367  0.00  0.00    -0.005 C 
ATOM     26  C   UNL     1      34.980 -20.268 -20.935  0.00  0.00    -0.022 C 
ATOM     27  C   UNL     1      33.618 -20.489 -20.729  0.00  0.00    -0.005 C 
ATOM     28  C   UNL     1      35.922 -21.038 -20.253  0.00  0.00    -0.005 C 
ATOM     29  C   UNL     1      35.428 -19.207 -21.881  0.00  0.00    +0.031 C 
ENDBRANCH  22  23
ENDBRANCH  21  22
ENDBRANCH   7  21
TORSDOF 3
ENDMDL
MODEL 2
REMARK VINA RESULT:     -11.6      1.847      4.345
REMARK  Name = 5326929
REMARK  3 active torsions:
REMARK  status: ('A' for Active; 'I' for Inactive)
REMARK    1  A    between atoms: C_7  and  C_21
REMARK    2  A    between atoms: C_21  and  C_22
REMARK    3  A    between atoms: C_22  and  C_23
REMARK                            x       y       z     vdW  Elec       q    Type
REMARK                         _______ _______ _______ _____ _____    ______ ____
ROOT
ATOM      1  O   UNL     1      28.826 -25.666 -14.292  0.00  0.00    -0.209 OA
ATOM      2  N   UNL     1      29.992 -23.145 -17.177  0.00  0.00    -0.275 N 
ATOM      3  N   UNL     1      34.037 -25.070 -13.985  0.00  0.00    -0.315 N 
ATOM      4  N   UNL     1      34.653 -23.670 -15.596  0.00  0.00    -0.316 N 
ATOM      5  N   UNL     1      28.255 -24.328 -16.061  0.00  0.00    -0.302 NA
ATOM      6  N   UNL     1      27.822 -22.924 -17.886  0.00  0.00    -0.320 N 
ATOM      7  C   UNL     1      32.331 -23.307 -16.508  0.00  0.00    +0.007 C 
ATOM      8  C   UNL     1      30.984 -23.662 -16.338  0.00  0.00    +0.060 C 
ATOM      9  C   UNL     1      33.290 -23.856 -15.637  0.00  0.00    +0.056 C 
ATOM     10  C   UNL     1      32.879 -24.730 -14.637  0.00  0.00    +0.060 C 
ATOM     11  C   UNL     1      30.608 -24.548 -15.317  0.00  0.00    +0.109 C 
ATOM     12  C   UNL     1      31.550 -25.105 -14.438  0.00  0.00    +0.029 C 
ATOM     13  C   UNL     1      29.163 -24.891 -15.182  0.00  0.00    +0.208 C 
ATOM     14  C   UNL     1      35.068 -24.410 -14.595  0.00  0.00    +0.182 C 
ATOM     15  C   UNL     1      28.679 -23.510 -16.988  0.00  0.00    +0.248 C 
ATOM     16  H   UNL     1      30.232 -22.521 -17.900  0.00  0.00    +0.156 HD
ATOM     17  H   UNL     1      34.113 -25.679 -13.215  0.00  0.00    +0.148 HD
ATOM     18  H   UNL     1      35.198 -23.103 -16.189  0.00  0.00    +0.148 HD
ATOM     19  H   UNL     1      28.172 -22.312 -18.573  0.00  0.00    +0.146 HD
ATOM     20  H   UNL     1      26.858 -23.115 -17.842  0.00  0.00    +0.146 HD
ENDROOT
BRANCH   7  21
ATOM     21  C   UNL     1      32.739 -22.363 -17.595  0.00  0.00    +0.034 C 
BRANCH  21  22
ATOM     22  C   UNL     1      33.726 -22.971 -18.609  0.00  0.00    +0.031 C 
BRANCH  22  23
ATOM     23  C   UNL     1      34.404 -21.936 -19.474  0.00  0.00    -0.022 C 
ATOM     24  C   UNL     1      35.789 -21.870 -19.497  0.00  0.00    -0.005 C 
ATOM     25  C   UNL     1      33.630 -21.071 -20.230  0.00  0.00    -0.005 C 
ATOM     26  C   UNL     1      35.648 -20.035 -21.063  0.00  0.00    -0.022 C 
ATOM     27  C   UNL     1      36.414 -20.914 -20.297  0.00  0.00    -0.005 C 
ATOM     28  C   UNL     1      34.255 -20.114 -21.030  0.00  0.00    -0.005 C 
ATOM     29  C   UNL     1      36.316 -19.014 -21.919  0.00  0.00    +0.031 C 
ENDBRANCH  22  23
ENDBRANCH  21  22
ENDBRANCH   7  21
TORSDOF 3
ENDMDL
MODEL 3
REMARK VINA RESULT:     -11.4      1.891      2.736
REMARK  Name = 5326929
REMARK  3 active torsions:
REMARK  status: ('A' for Active; 'I' for Inactive)
REMARK    1  A    between atoms: C_7  and  C_21
REMARK    2  A    between atoms: C_21  and  C_22
REMARK    3  A    between atoms: C_22  and  C_23
REMARK                            x       y       z     vdW  Elec       q    Type
REMARK                         _______ _______ _______ _____ _____    ______ ____
ROOT
ATOM      1  O   UNL     1      37.178 -26.431 -12.205  0.00  0.00    -0.209 OA
ATOM      2  N   UNL     1      37.799 -24.356 -15.575  0.00  0.00    -0.275 N 
ATOM      3  N   UNL     1      32.755 -23.872 -13.432  0.00  0.00    -0.315 N 
ATOM      4  N   UNL     1      33.131 -22.732 -15.301  0.00  0.00    -0.316 N 
ATOM      5  N   UNL     1      38.608 -25.829 -13.889  0.00  0.00    -0.302 NA
ATOM      6  N   UNL     1      39.957 -25.127 -15.671  0.00  0.00    -0.320 N 
ATOM      7  C   UNL     1      35.523 -23.479 -15.568  0.00  0.00    +0.007 C 
ATOM      8  C   UNL     1      36.532 -24.267 -14.990  0.00  0.00    +0.060 C 
ATOM      9  C   UNL     1      34.266 -23.422 -14.941  0.00  0.00    +0.056 C 
ATOM     10  C   UNL     1      34.056 -24.144 -13.771  0.00  0.00    +0.060 C 
ATOM     11  C   UNL     1      36.281 -24.982 -13.808  0.00  0.00    +0.109 C 
ATOM     12  C   UNL     1      35.033 -24.938 -13.168  0.00  0.00    +0.029 C 
ATOM     13  C   UNL     1      37.388 -25.803 -13.239  0.00  0.00    +0.208 C 
ATOM     14  C   UNL     1      32.246 -23.025 -14.377  0.00  0.00    +0.182 C 
ATOM     15  C   UNL     1      38.767 -25.137 -14.986  0.00  0.00    +0.248 C 
ATOM     16  H   UNL     1      37.996 -23.864 -16.404  0.00  0.00    +0.156 HD
ATOM     17  H   UNL     1      32.274 -24.224 -12.649  0.00  0.00    +0.148 HD
ATOM     18  H   UNL     1      33.009 -22.147 -16.083  0.00  0.00    +0.148 HD
ATOM     19  H   UNL     1      40.046 -24.595 -16.496  0.00  0.00    +0.146 HD
ATOM     20  H   UNL     1      40.720 -25.651 -15.340  0.00  0.00    +0.146 HD
ENDROOT
BRANCH   7  21
ATOM     21  C   UNL     1      35.784 -22.713 -16.827  0.00  0.00    +0.034 C 
BRANCH  21  22
ATOM     22  C   UNL     1      34.767 -22.996 -17.949  0.00  0.00    +0.031 C 
BRANCH  22  23
ATOM     23  C   UNL     1      34.844 -22.006 -19.086  0.00  0.00    -0.022 C 
ATOM     24  C   UNL     1      36.085 -21.580 -19.535  0.00  0.00    -0.005 C 
ATOM     25  C   UNL     1      33.673 -21.541 -19.662  0.00  0.00    -0.005 C 
ATOM     26  C   UNL     1      34.983 -20.188 -21.174  0.00  0.00    -0.022 C 
ATOM     27  C   UNL     1      36.154 -20.665 -20.585  0.00  0.00    -0.005 C 
ATOM     28  C   UNL     1      33.742 -20.626 -20.712  0.00  0.00    -0.005 C 
ATOM     29  C   UNL     1      35.058 -19.211 -22.297  0.00  0.00    +0.031 C 
ENDBRANCH  22  23
ENDBRANCH  21  22
ENDBRANCH   7  21
TORSDOF 3
ENDMDL
MODEL 4
REMARK VINA RESULT:     -11.4      1.203      1.873
REMARK  Name = 5326929
REMARK  3 active torsions:
REMARK  status: ('A' for Active; 'I' for Inactive)
REMARK    1  A    between atoms: C_7  and  C_21
REMARK    2  A    between atoms: C_21  and  C_22
REMARK    3  A    between atoms: C_22  and  C_23
REMARK                            x       y       z     vdW  Elec       q    Type
REMARK                         _______ _______ _______ _____ _____    ______ ____
ROOT
ATOM      1  O   UNL     1      37.437 -24.225 -13.151  0.00  0.00    -0.209 OA
ATOM      2  N   UNL     1      35.897 -22.453 -16.397  0.00  0.00    -0.275 N 
ATOM      3  N   UNL     1      32.335 -25.444 -13.459  0.00  0.00    -0.315 N 
ATOM      4  N   UNL     1      31.511 -24.447 -15.265  0.00  0.00    -0.316 N 
ATOM      5  N   UNL     1      37.762 -22.891 -14.984  0.00  0.00    -0.302 NA
ATOM      6  N   UNL     1      37.944 -21.544 -16.892  0.00  0.00    -0.320 N 
ATOM      7  C   UNL     1      33.679 -23.369 -15.963  0.00  0.00    +0.007 C 
ATOM      8  C   UNL     1      35.032 -23.225 -15.616  0.00  0.00    +0.060 C 
ATOM      9  C   UNL     1      32.850 -24.156 -15.144  0.00  0.00    +0.056 C 
ATOM     10  C   UNL     1      33.390 -24.769 -14.019  0.00  0.00    +0.060 C 
ATOM     11  C   UNL     1      35.540 -23.860 -14.472  0.00  0.00    +0.109 C 
ATOM     12  C   UNL     1      34.729 -24.650 -13.643  0.00  0.00    +0.029 C 
ATOM     13  C   UNL     1      36.985 -23.674 -14.150  0.00  0.00    +0.208 C 
ATOM     14  C   UNL     1      31.236 -25.221 -14.241  0.00  0.00    +0.182 C 
ATOM     15  C   UNL     1      37.219 -22.331 -16.033  0.00  0.00    +0.248 C 
ATOM     16  H   UNL     1      35.563 -22.000 -17.204  0.00  0.00    +0.156 HD
ATOM     17  H   UNL     1      32.365 -25.991 -12.642  0.00  0.00    +0.148 HD
ATOM     18  H   UNL     1      30.893 -24.142 -15.969  0.00  0.00    +0.148 HD
ATOM     19  H   UNL     1      37.505 -21.135 -17.674  0.00  0.00    +0.146 HD
ATOM     20  H   UNL     1      38.901 -21.387 -16.728  0.00  0.00    +0.146 HD
ENDROOT
BRANCH   7  21
ATOM     21  C   UNL     1      33.131 -22.694 -17.181  0.00  0.00    +0.034 C 
BRANCH  21  22
ATOM     22  C   UNL     1      33.706 -23.234 -18.504  0.00  0.00    +0.031 C 
BRANCH  22  23
ATOM     23  C   UNL     1      34.202 -22.147 -19.425  0.00  0.00    -0.022 C 
ATOM     24  C   UNL     1      35.563 -22.022 -19.660  0.00  0.00    -0.005 C 
ATOM     25  C   UNL     1      33.288 -21.293 -20.022  0.00  0.00    -0.005 C 
ATOM     26  C   UNL     1      35.112 -20.149 -21.118  0.00  0.00    -0.022 C 
ATOM     27  C   UNL     1      36.020 -21.017 -20.512  0.00  0.00    -0.005 C 
ATOM     28  C   UNL     1      33.746 -20.287 -20.874  0.00  0.00    -0.005 C 
ATOM     29  C   UNL     1      35.602 -19.076 -22.030  0.00  0.00    +0.031 C 
ENDBRANCH  22  23
ENDBRANCH  21  22
ENDBRANCH   7  21
TORSDOF 3
ENDMDL
MODEL 5
REMARK VINA RESULT:     -11.3      1.293      3.968
REMARK  Name = 5326929
REMARK  3 active torsions:
REMARK  status: ('A' for Active; 'I' for Inactive)
REMARK    1  A    between atoms: C_7  and  C_21
REMARK    2  A    between atoms: C_21  and  C_22
REMARK    3  A    between atoms: C_22  and  C_23
REMARK                            x       y       z     vdW  Elec       q    Type
REMARK                         _______ _______ _______ _____ _____    ______ ____
ROOT
ATOM      1  O   UNL     1      31.194 -25.349 -13.057  0.00  0.00    -0.209 OA
ATOM      2  N   UNL     1      30.810 -23.591 -16.635  0.00  0.00    -0.275 N 
ATOM      3  N   UNL     1      35.937 -23.743 -14.646  0.00  0.00    -0.315 N 
ATOM      4  N   UNL     1      35.692 -22.774 -16.630  0.00  0.00    -0.316 N 
ATOM      5  N   UNL     1      29.826 -24.703 -14.775  0.00  0.00    -0.302 NA
ATOM      6  N   UNL     1      28.551 -23.985 -16.606  0.00  0.00    -0.320 N 
ATOM      7  C   UNL     1      33.200 -23.121 -16.768  0.00  0.00    +0.007 C 
ATOM      8  C   UNL     1      32.095 -23.654 -16.085  0.00  0.00    +0.060 C 
ATOM      9  C   UNL     1      34.470 -23.212 -16.172  0.00  0.00    +0.056 C 
ATOM     10  C   UNL     1      34.598 -23.823 -14.930  0.00  0.00    +0.060 C 
ATOM     11  C   UNL     1      32.263 -24.264 -14.832  0.00  0.00    +0.109 C 
ATOM     12  C   UNL     1      33.523 -24.363 -14.222  0.00  0.00    +0.029 C 
ATOM     13  C   UNL     1      31.055 -24.814 -14.152  0.00  0.00    +0.208 C 
ATOM     14  C   UNL     1      36.548 -23.108 -15.692  0.00  0.00    +0.182 C 
ATOM     15  C   UNL     1      29.746 -24.121 -15.944  0.00  0.00    +0.248 C 
ATOM     16  H   UNL     1      30.669 -23.167 -17.511  0.00  0.00    +0.156 HD
ATOM     17  H   UNL     1      36.380 -24.081 -13.834  0.00  0.00    +0.148 HD
ATOM     18  H   UNL     1      35.883 -22.311 -17.478  0.00  0.00    +0.148 HD
ATOM     19  H   UNL     1      28.524 -23.542 -17.485  0.00  0.00    +0.146 HD
ATOM     20  H   UNL     1      27.723 -24.330 -16.203  0.00  0.00    +0.146 HD
ENDROOT
BRANCH   7  21
ATOM     21  C   UNL     1      33.027 -22.470 -18.104  0.00  0.00    +0.034 C 
BRANCH  21  22
ATOM     22  C   UNL     1      34.077 -22.900 -19.146  0.00  0.00    +0.031 C 
BRANCH  22  23
ATOM     23  C   UNL     1      34.675 -21.739 -19.902  0.00  0.00    -0.022 C 
ATOM     24  C   UNL     1      33.837 -20.840 -20.543  0.00  0.00    -0.005 C 
ATOM     25  C   UNL     1      36.052 -21.592 -19.943  0.00  0.00    -0.005 C 
ATOM     26  C   UNL     1      35.775 -19.607 -21.292  0.00  0.00    -0.022 C 
ATOM     27  C   UNL     1      34.390 -19.767 -21.242  0.00  0.00    -0.005 C 
ATOM     28  C   UNL     1      36.606 -20.520 -20.642  0.00  0.00    -0.005 C 
ATOM     29  C   UNL     1      36.366 -18.460 -22.039  0.00  0.00    +0.031 C 
ENDBRANCH  22  23
ENDBRANCH  21  22
ENDBRANCH   7  21
TORSDOF 3
ENDMDL
MODEL 6
REMARK VINA RESULT:     -10.4      2.928      5.829
REMARK  Name = 5326929
REMARK  3 active torsions:
REMARK  status: ('A' for Active; 'I' for Inactive)
REMARK    1  A    between atoms: C_7  and  C_21
REMARK    2  A    between atoms: C_21  and  C_22
REMARK    3  A    between atoms: C_22  and  C_23
REMARK                            x       y       z     vdW  Elec       q    Type
REMARK                         _______ _______ _______ _____ _____    ______ ____
ROOT
ATOM      1  O   UNL     1      37.597 -21.832 -17.205  0.00  0.00    -0.209 OA
ATOM      2  N   UNL     1      34.063 -23.661 -16.747  0.00  0.00    -0.275 N 
ATOM      3  N   UNL     1      37.402 -23.904 -12.381  0.00  0.00    -0.315 N 
ATOM      4  N   UNL     1      35.432 -24.909 -12.157  0.00  0.00    -0.316 N 
ATOM      5  N   UNL     1      35.569 -22.407 -18.099  0.00  0.00    -0.302 NA
ATOM      6  N   UNL     1      33.459 -23.065 -18.878  0.00  0.00    -0.320 N 
ATOM      7  C   UNL     1      34.604 -24.345 -14.470  0.00  0.00    +0.007 C 
ATOM      8  C   UNL     1      34.948 -23.694 -15.665  0.00  0.00    +0.060 C 
ATOM      9  C   UNL     1      35.529 -24.350 -13.411  0.00  0.00    +0.056 C 
ATOM     10  C   UNL     1      36.755 -23.714 -13.576  0.00  0.00    +0.060 C 
ATOM     11  C   UNL     1      36.195 -23.063 -15.793  0.00  0.00    +0.109 C 
ATOM     12  C   UNL     1      37.132 -23.058 -14.749  0.00  0.00    +0.029 C 
ATOM     13  C   UNL     1      36.509 -22.387 -17.085  0.00  0.00    +0.208 C 
ATOM     14  C   UNL     1      36.570 -24.624 -11.567  0.00  0.00    +0.182 C 
ATOM     15  C   UNL     1      34.428 -23.016 -17.906  0.00  0.00    +0.248 C 
ATOM     16  H   UNL     1      33.184 -24.097 -16.679  0.00  0.00    +0.156 HD
ATOM     17  H   UNL     1      38.302 -23.582 -12.151  0.00  0.00    +0.148 HD
ATOM     18  H   UNL     1      34.674 -25.413 -11.784  0.00  0.00    +0.148 HD
ATOM     19  H   UNL     1      32.609 -23.532 -18.702  0.00  0.00    +0.146 HD
ATOM     20  H   UNL     1      33.614 -22.636 -19.749  0.00  0.00    +0.146 HD
ENDROOT
BRANCH   7  21
ATOM     21  C   UNL     1      33.276 -25.020 -14.326  0.00  0.00    +0.034 C 
BRANCH  21  22
ATOM     22  C   UNL     1      32.163 -24.096 -13.798  0.00  0.00    +0.031 C 
BRANCH  22  23
ATOM     23  C   UNL     1      31.043 -23.887 -14.788  0.00  0.00    -0.022 C 
ATOM     24  C   UNL     1      30.044 -24.842 -14.897  0.00  0.00    -0.005 C 
ATOM     25  C   UNL     1      31.032 -22.743 -15.569  0.00  0.00    -0.005 C 
ATOM     26  C   UNL     1      28.986 -23.502 -16.606  0.00  0.00    -0.022 C 
ATOM     27  C   UNL     1      29.009 -24.648 -15.812  0.00  0.00    -0.005 C 
ATOM     28  C   UNL     1      29.997 -22.548 -16.485  0.00  0.00    -0.005 C 
ATOM     29  C   UNL     1      27.879 -23.294 -17.583  0.00  0.00    +0.031 C 
ENDBRANCH  22  23
ENDBRANCH  21  22
ENDBRANCH   7  21
TORSDOF 3
ENDMDL
MODEL 7
REMARK VINA RESULT:     -10.3      1.318      3.892
REMARK  Name = 5326929
REMARK  3 active torsions:
REMARK  status: ('A' for Active; 'I' for Inactive)
REMARK    1  A    between atoms: C_7  and  C_21
REMARK    2  A    between atoms: C_21  and  C_22
REMARK    3  A    between atoms: C_22  and  C_23
REMARK                            x       y       z     vdW  Elec       q    Type
REMARK                         _______ _______ _______ _____ _____    ______ ____
ROOT
ATOM      1  O   UNL     1      34.604 -25.021 -12.079  0.00  0.00    -0.209 OA
ATOM      2  N   UNL     1      32.454 -24.042 -15.314  0.00  0.00    -0.275 N 
ATOM      3  N   UNL     1      37.795 -22.751 -15.583  0.00  0.00    -0.315 N 
ATOM      4  N   UNL     1      36.575 -22.222 -17.363  0.00  0.00    -0.316 N 
ATOM      5  N   UNL     1      32.572 -24.992 -13.135  0.00  0.00    -0.302 NA
ATOM      6  N   UNL     1      30.563 -24.896 -14.336  0.00  0.00    -0.320 N 
ATOM      7  C   UNL     1      34.402 -23.108 -16.445  0.00  0.00    +0.007 C 
ATOM      8  C   UNL     1      33.818 -23.735 -15.333  0.00  0.00    +0.060 C 
ATOM      9  C   UNL     1      35.778 -22.821 -16.414  0.00  0.00    +0.056 C 
ATOM     10  C   UNL     1      36.520 -23.163 -15.289  0.00  0.00    +0.060 C 
ATOM     11  C   UNL     1      34.600 -24.064 -14.215  0.00  0.00    +0.109 C 
ATOM     12  C   UNL     1      35.974 -23.785 -14.165  0.00  0.00    +0.029 C 
ATOM     13  C   UNL     1      33.928 -24.728 -13.061  0.00  0.00    +0.208 C 
ATOM     14  C   UNL     1      37.776 -22.196 -16.833  0.00  0.00    +0.182 C 
ATOM     15  C   UNL     1      31.909 -24.657 -14.210  0.00  0.00    +0.248 C 
ATOM     16  H   UNL     1      31.887 -23.820 -16.086  0.00  0.00    +0.156 HD
ATOM     17  H   UNL     1      38.582 -22.839 -14.999  0.00  0.00    +0.148 HD
ATOM     18  H   UNL     1      36.303 -21.886 -18.248  0.00  0.00    +0.148 HD
ATOM     19  H   UNL     1      30.091 -24.630 -15.159  0.00  0.00    +0.146 HD
ATOM     20  H   UNL     1      30.070 -25.331 -13.605  0.00  0.00    +0.146 HD
ENDROOT
BRANCH   7  21
ATOM     21  C   UNL     1      33.574 -22.755 -17.641  0.00  0.00    +0.034 C 
BRANCH  21  22
ATOM     22  C   UNL     1      34.236 -23.113 -18.984  0.00  0.00    +0.031 C 
BRANCH  22  23
ATOM     23  C   UNL     1      34.535 -21.908 -19.841  0.00  0.00    -0.022 C 
ATOM     24  C   UNL     1      33.489 -21.121 -20.298  0.00  0.00    -0.005 C 
ATOM     25  C   UNL     1      35.851 -21.608 -20.157  0.00  0.00    -0.005 C 
ATOM     26  C   UNL     1      35.085 -19.694 -21.417  0.00  0.00    -0.022 C 
ATOM     27  C   UNL     1      33.766 -20.007 -21.090  0.00  0.00    -0.005 C 
ATOM     28  C   UNL     1      36.128 -20.494 -20.950  0.00  0.00    -0.005 C 
ATOM     29  C   UNL     1      35.381 -18.503 -22.263  0.00  0.00    +0.031 C 
ENDBRANCH  22  23
ENDBRANCH  21  22
ENDBRANCH   7  21
TORSDOF 3
ENDMDL
MODEL 8
REMARK VINA RESULT:     -10.1      1.435      3.978
REMARK  Name = 5326929
REMARK  3 active torsions:
REMARK  status: ('A' for Active; 'I' for Inactive)
REMARK    1  A    between atoms: C_7  and  C_21
REMARK    2  A    between atoms: C_21  and  C_22
REMARK    3  A    between atoms: C_22  and  C_23
REMARK                            x       y       z     vdW  Elec       q    Type
REMARK                         _______ _______ _______ _____ _____    ______ ____
ROOT
ATOM      1  O   UNL     1      31.600 -25.364 -13.168  0.00  0.00    -0.209 OA
ATOM      2  N   UNL     1      33.017 -22.973 -16.052  0.00  0.00    -0.275 N 
ATOM      3  N   UNL     1      36.741 -24.636 -12.361  0.00  0.00    -0.315 N 
ATOM      4  N   UNL     1      37.497 -23.309 -13.975  0.00  0.00    -0.316 N 
ATOM      5  N   UNL     1      31.194 -24.134 -15.057  0.00  0.00    -0.302 NA
ATOM      6  N   UNL     1      30.929 -22.839 -16.991  0.00  0.00    -0.320 N 
ATOM      7  C   UNL     1      35.276 -23.047 -15.138  0.00  0.00    +0.007 C 
ATOM      8  C   UNL     1      33.925 -23.423 -15.089  0.00  0.00    +0.060 C 
ATOM      9  C   UNL     1      36.149 -23.528 -14.145  0.00  0.00    +0.056 C 
ATOM     10  C   UNL     1      35.651 -24.357 -13.146  0.00  0.00    +0.060 C 
ATOM     11  C   UNL     1      33.460 -24.262 -14.064  0.00  0.00    +0.109 C 
ATOM     12  C   UNL     1      34.315 -24.751 -13.064  0.00  0.00    +0.029 C 
ATOM     13  C   UNL     1      32.015 -24.629 -14.060  0.00  0.00    +0.208 C 
ATOM     14  C   UNL     1      37.818 -23.987 -12.897  0.00  0.00    +0.182 C 
ATOM     15  C   UNL     1      31.698 -23.357 -15.979  0.00  0.00    +0.248 C 
ATOM     16  H   UNL     1      33.320 -22.383 -16.779  0.00  0.00    +0.156 HD
ATOM     17  H   UNL     1      36.746 -25.202 -11.556  0.00  0.00    +0.148 HD
ATOM     18  H   UNL     1      38.091 -22.763 -14.538  0.00  0.00    +0.148 HD
ATOM     19  H   UNL     1      31.338 -22.255 -17.671  0.00  0.00    +0.146 HD
ATOM     20  H   UNL     1      29.968 -23.048 -17.036  0.00  0.00    +0.146 HD
ENDROOT
BRANCH   7  21
ATOM     21  C   UNL     1      35.778 -22.153 -16.228  0.00  0.00    +0.034 C 
BRANCH  21  22
ATOM     22  C   UNL     1      35.991 -22.871 -17.574  0.00  0.00    +0.031 C 
BRANCH  22  23
ATOM     23  C   UNL     1      35.662 -22.009 -18.768  0.00  0.00    -0.022 C 
ATOM     24  C   UNL     1      34.349 -21.922 -19.204  0.00  0.00    -0.005 C 
ATOM     25  C   UNL     1      36.679 -21.318 -19.407  0.00  0.00    -0.005 C 
ATOM     26  C   UNL     1      35.060 -20.424 -20.961  0.00  0.00    -0.022 C 
ATOM     27  C   UNL     1      34.047 -21.124 -20.308  0.00  0.00    -0.005 C 
ATOM     28  C   UNL     1      36.377 -20.520 -20.511  0.00  0.00    -0.005 C 
ATOM     29  C   UNL     1      34.736 -19.571 -22.140  0.00  0.00    +0.031 C 
ENDBRANCH  22  23
ENDBRANCH  21  22
ENDBRANCH   7  21
TORSDOF 3
ENDMDL
MODEL 9
REMARK VINA RESULT:     -10.0      2.876      5.766
REMARK  Name = 5326929
REMARK  3 active torsions:
REMARK  status: ('A' for Active; 'I' for Inactive)
REMARK    1  A    between atoms: C_7  and  C_21
REMARK    2  A    between atoms: C_21  and  C_22
REMARK    3  A    between atoms: C_22  and  C_23
REMARK                            x       y       z     vdW  Elec       q    Type
REMARK                         _______ _______ _______ _____ _____    ______ ____
ROOT
ATOM      1  O   UNL     1      33.315 -22.683 -19.505  0.00  0.00    -0.209 OA
ATOM      2  N   UNL     1      35.693 -22.783 -16.284  0.00  0.00    -0.275 N 
ATOM      3  N   UNL     1      30.506 -24.392 -15.406  0.00  0.00    -0.315 N 
ATOM      4  N   UNL     1      31.851 -24.438 -13.638  0.00  0.00    -0.316 N 
ATOM      5  N   UNL     1      35.388 -22.329 -18.600  0.00  0.00    -0.302 NA
ATOM      6  N   UNL     1      37.453 -22.016 -17.539  0.00  0.00    -0.320 N 
ATOM      7  C   UNL     1      33.891 -23.600 -14.859  0.00  0.00    +0.007 C 
ATOM      8  C   UNL     1      34.364 -23.182 -16.113  0.00  0.00    +0.060 C 
ATOM      9  C   UNL     1      32.546 -23.993 -14.740  0.00  0.00    +0.056 C 
ATOM     10  C   UNL     1      31.725 -23.956 -15.862  0.00  0.00    +0.060 C 
ATOM     11  C   UNL     1      33.504 -23.159 -17.222  0.00  0.00    +0.109 C 
ATOM     12  C   UNL     1      32.159 -23.546 -17.123  0.00  0.00    +0.029 C 
ATOM     13  C   UNL     1      34.060 -22.706 -18.530  0.00  0.00    +0.208 C 
ATOM     14  C   UNL     1      30.633 -24.666 -14.073  0.00  0.00    +0.182 C 
ATOM     15  C   UNL     1      36.129 -22.378 -17.524  0.00  0.00    +0.248 C 
ATOM     16  H   UNL     1      36.314 -22.791 -15.520  0.00  0.00    +0.156 HD
ATOM     17  H   UNL     1      29.687 -24.489 -15.943  0.00  0.00    +0.148 HD
ATOM     18  H   UNL     1      32.193 -24.557 -12.723  0.00  0.00    +0.148 HD
ATOM     19  H   UNL     1      37.986 -22.063 -16.711  0.00  0.00    +0.146 HD
ATOM     20  H   UNL     1      37.871 -21.709 -18.375  0.00  0.00    +0.146 HD
ENDROOT
BRANCH   7  21
ATOM     21  C   UNL     1      34.803 -23.629 -13.673  0.00  0.00    +0.034 C 
BRANCH  21  22
ATOM     22  C   UNL     1      35.260 -25.044 -13.272  0.00  0.00    +0.031 C 
BRANCH  22  23
ATOM     23  C   UNL     1      36.695 -25.332 -13.638  0.00  0.00    -0.022 C 
ATOM     24  C   UNL     1      37.711 -24.893 -12.802  0.00  0.00    -0.005 C 
ATOM     25  C   UNL     1      36.974 -26.031 -14.801  0.00  0.00    -0.005 C 
ATOM     26  C   UNL     1      39.333 -25.861 -14.310  0.00  0.00    -0.022 C 
ATOM     27  C   UNL     1      39.038 -25.159 -13.141  0.00  0.00    -0.005 C 
ATOM     28  C   UNL     1      38.300 -26.297 -15.140  0.00  0.00    -0.005 C 
ATOM     29  C   UNL     1      40.750 -26.147 -14.670  0.00  0.00    +0.031 C 
ENDBRANCH  22  23
ENDBRANCH  21  22
ENDBRANCH   7  21
TORSDOF 3
ENDMDL
