MODEL 1
REMARK VINA RESULT:     -13.6      0.000      0.000
REMARK  Name = 16741238
REMARK  6 active torsions:
REMARK  status: ('A' for Active; 'I' for Inactive)
REMARK    1  A    between atoms: N_1  and  C_22
REMARK    2  A    between atoms: C_10  and  C_15
REMARK    3  A    between atoms: C_15  and  C_16
REMARK    4  A    between atoms: C_22  and  C_23
REMARK    5  A    between atoms: C_23  and  C_26
REMARK    6  A    between atoms: N_25  and  C_28
REMARK                            x       y       z     vdW  Elec       q    Type
REMARK                         _______ _______ _______ _____ _____    ______ ____
ROOT
ATOM      1  N   UNL     1      34.278 -14.266 -25.159  0.00  0.00    -0.249 N 
ATOM      2  N   UNL     1      33.877 -16.413 -26.167  0.00  0.00    -0.373 NA
ATOM      3  N   UNL     1      33.197 -14.481 -27.242  0.00  0.00    -0.321 N 
ATOM      4  C   UNL     1      34.937 -14.815 -23.973  0.00  0.00    +0.071 C 
ATOM      5  C   UNL     1      35.012 -16.316 -23.992  0.00  0.00    +0.045 C 
ATOM      6  C   UNL     1      33.796 -15.104 -26.170  0.00  0.00    +0.239 C 
ATOM      7  C   UNL     1      34.488 -17.042 -25.070  0.00  0.00    +0.136 C 
ATOM      8  C   UNL     1      35.612 -16.995 -22.921  0.00  0.00    +0.007 C 
ATOM      9  C   UNL     1      34.573 -18.440 -25.061  0.00  0.00    +0.032 C 
ATOM     10  C   UNL     1      35.691 -18.387 -22.923  0.00  0.00    +0.039 C 
ATOM     11  C   UNL     1      35.171 -19.110 -23.993  0.00  0.00    +0.006 C 
ATOM     12  H   UNL     1      33.127 -13.499 -27.266  0.00  0.00    +0.146 HD
ATOM     13  H   UNL     1      32.838 -15.018 -27.986  0.00  0.00    +0.146 HD
ENDROOT
BRANCH  10  15
ATOM     14  O   UNL     1      37.494 -18.849 -21.507  0.00  0.00    -0.287 OA
ATOM     15  C   UNL     1      36.314 -19.082 -21.809  0.00  0.00    +0.196 C 
BRANCH  15  16
ATOM     16  C   UNL     1      35.582 -20.091 -20.985  0.00  0.00    +0.039 C 
ATOM     17  C   UNL     1      34.188 -20.095 -20.962  0.00  0.00    +0.003 C 
ATOM     18  C   UNL     1      36.294 -21.031 -20.238  0.00  0.00    +0.003 C 
ATOM     19  C   UNL     1      33.505 -21.037 -20.193  0.00  0.00    +0.000 C 
ATOM     20  C   UNL     1      35.611 -21.973 -19.470  0.00  0.00    +0.000 C 
ATOM     21  C   UNL     1      34.216 -21.976 -19.447  0.00  0.00    +0.000 C 
ENDBRANCH  15  16
ENDBRANCH  10  15
BRANCH   1  22
ATOM     22  C   UNL     1      34.173 -12.811 -25.192  0.00  0.00    +0.109 C 
BRANCH  22  23
ATOM     23  C   UNL     1      33.728 -12.277 -23.834  0.00  0.00    +0.107 C 
BRANCH  23  26
ATOM     24  O   UNL     1      34.723 -10.139 -24.288  0.00  0.00    -0.275 OA
ATOM     25  N   UNL     1      32.854 -10.142 -22.917  0.00  0.00    -0.279 N 
ATOM     26  C   UNL     1      33.827 -10.759 -23.710  0.00  0.00    +0.227 C 
ATOM     27  C   UNL     1      31.801 -10.895 -22.240  0.00  0.00    +0.115 C 
BRANCH  25  28
ATOM     28  C   UNL     1      32.818  -8.714 -22.708  0.00  0.00    +0.075 C 
ATOM     29  C   UNL     1      32.672  -8.394 -21.218  0.00  0.00    +0.020 C 
ATOM     30  C   UNL     1      31.694  -8.075 -23.528  0.00  0.00    +0.020 C 
ATOM     31  C   UNL     1      32.577  -6.890 -20.972  0.00  0.00    +0.002 C 
ATOM     32  C   UNL     1      31.602  -6.571 -23.279  0.00  0.00    +0.002 C 
ATOM     33  C   UNL     1      31.459  -6.255 -21.794  0.00  0.00    +0.000 C 
ENDBRANCH  25  28
ENDBRANCH  23  26
ENDBRANCH  22  23
ENDBRANCH   1  22
TORSDOF 6
ENDMDL
MODEL 2
REMARK VINA RESULT:     -11.4      6.144     10.916
REMARK  Name = 16741238
REMARK  6 active torsions:
REMARK  status: ('A' for Active; 'I' for Inactive)
REMARK    1  A    between atoms: N_1  and  C_22
REMARK    2  A    between atoms: C_10  and  C_15
REMARK    3  A    between atoms: C_15  and  C_16
REMARK    4  A    between atoms: C_22  and  C_23
REMARK    5  A    between atoms: C_23  and  C_26
REMARK    6  A    between atoms: N_25  and  C_28
REMARK                            x       y       z     vdW  Elec       q    Type
REMARK                         _______ _______ _______ _____ _____    ______ ____
ROOT
ATOM      1  N   UNL     1      36.453 -22.614 -17.134  0.00  0.00    -0.249 N 
ATOM      2  N   UNL     1      36.828 -23.714 -15.029  0.00  0.00    -0.373 NA
ATOM      3  N   UNL     1      38.622 -23.116 -16.361  0.00  0.00    -0.321 N 
ATOM      4  C   UNL     1      34.995 -22.606 -17.004  0.00  0.00    +0.071 C 
ATOM      5  C   UNL     1      34.522 -23.245 -15.728  0.00  0.00    +0.045 C 
ATOM      6  C   UNL     1      37.263 -23.166 -16.137  0.00  0.00    +0.239 C 
ATOM      7  C   UNL     1      35.443 -23.764 -14.808  0.00  0.00    +0.136 C 
ATOM      8  C   UNL     1      33.148 -23.320 -15.457  0.00  0.00    +0.007 C 
ATOM      9  C   UNL     1      34.973 -24.352 -13.627  0.00  0.00    +0.032 C 
ATOM     10  C   UNL     1      32.691 -23.908 -14.278  0.00  0.00    +0.039 C 
ATOM     11  C   UNL     1      33.605 -24.425 -13.362  0.00  0.00    +0.006 C 
ATOM     12  H   UNL     1      38.970 -22.707 -17.186  0.00  0.00    +0.146 HD
ATOM     13  H   UNL     1      39.244 -23.489 -15.695  0.00  0.00    +0.146 HD
ENDROOT
BRANCH  10  15
ATOM     14  O   UNL     1      30.859 -24.163 -12.848  0.00  0.00    -0.287 OA
ATOM     15  C   UNL     1      31.266 -23.983 -14.006  0.00  0.00    +0.196 C 
BRANCH  15  16
ATOM     16  C   UNL     1      30.237 -23.849 -15.081  0.00  0.00    +0.039 C 
ATOM     17  C   UNL     1      29.842 -24.968 -15.813  0.00  0.00    +0.003 C 
ATOM     18  C   UNL     1      29.670 -22.603 -15.352  0.00  0.00    +0.003 C 
ATOM     19  C   UNL     1      28.881 -24.843 -16.815  0.00  0.00    +0.000 C 
ATOM     20  C   UNL     1      28.709 -22.477 -16.355  0.00  0.00    +0.000 C 
ATOM     21  C   UNL     1      28.315 -23.597 -17.087  0.00  0.00    +0.000 C 
ENDBRANCH  15  16
ENDBRANCH  10  15
BRANCH   1  22
ATOM     22  C   UNL     1      36.969 -22.009 -18.358  0.00  0.00    +0.109 C 
BRANCH  22  23
ATOM     23  C   UNL     1      35.825 -21.450 -19.200  0.00  0.00    +0.107 C 
BRANCH  23  26
ATOM     24  O   UNL     1      37.486 -20.300 -20.498  0.00  0.00    -0.275 OA
ATOM     25  N   UNL     1      35.284 -20.049 -21.177  0.00  0.00    -0.279 N 
ATOM     26  C   UNL     1      36.288 -20.551 -20.343  0.00  0.00    +0.227 C 
ATOM     27  C   UNL     1      33.870 -20.359 -20.975  0.00  0.00    +0.115 C 
BRANCH  25  28
ATOM     28  C   UNL     1      35.568 -19.188 -22.300  0.00  0.00    +0.075 C 
ATOM     29  C   UNL     1      35.501 -17.718 -21.878  0.00  0.00    +0.020 C 
ATOM     30  C   UNL     1      34.615 -19.479 -23.462  0.00  0.00    +0.020 C 
ATOM     31  C   UNL     1      35.746 -16.782 -23.059  0.00  0.00    +0.002 C 
ATOM     32  C   UNL     1      34.862 -18.542 -24.641  0.00  0.00    +0.002 C 
ATOM     33  C   UNL     1      34.797 -17.077 -24.217  0.00  0.00    +0.000 C 
ENDBRANCH  25  28
ENDBRANCH  23  26
ENDBRANCH  22  23
ENDBRANCH   1  22
TORSDOF 6
ENDMDL
MODEL 3
REMARK VINA RESULT:     -11.3      5.475      9.965
REMARK  Name = 16741238
REMARK  6 active torsions:
REMARK  status: ('A' for Active; 'I' for Inactive)
REMARK    1  A    between atoms: N_1  and  C_22
REMARK    2  A    between atoms: C_10  and  C_15
REMARK    3  A    between atoms: C_15  and  C_16
REMARK    4  A    between atoms: C_22  and  C_23
REMARK    5  A    between atoms: C_23  and  C_26
REMARK    6  A    between atoms: N_25  and  C_28
REMARK                            x       y       z     vdW  Elec       q    Type
REMARK                         _______ _______ _______ _____ _____    ______ ____
ROOT
ATOM      1  N   UNL     1      34.924 -22.346 -19.183  0.00  0.00    -0.249 N 
ATOM      2  N   UNL     1      32.765 -22.813 -18.232  0.00  0.00    -0.373 NA
ATOM      3  N   UNL     1      32.939 -22.132 -20.436  0.00  0.00    -0.321 N 
ATOM      4  C   UNL     1      35.662 -22.659 -17.958  0.00  0.00    +0.071 C 
ATOM      5  C   UNL     1      34.762 -23.071 -16.827  0.00  0.00    +0.045 C 
ATOM      6  C   UNL     1      33.530 -22.447 -19.232  0.00  0.00    +0.239 C 
ATOM      7  C   UNL     1      33.374 -23.131 -17.007  0.00  0.00    +0.136 C 
ATOM      8  C   UNL     1      35.318 -23.399 -15.582  0.00  0.00    +0.007 C 
ATOM      9  C   UNL     1      32.560 -23.520 -15.936  0.00  0.00    +0.032 C 
ATOM     10  C   UNL     1      34.498 -23.785 -14.522  0.00  0.00    +0.039 C 
ATOM     11  C   UNL     1      33.118 -23.845 -14.699  0.00  0.00    +0.006 C 
ATOM     12  H   UNL     1      33.495 -21.855 -21.200  0.00  0.00    +0.146 HD
ATOM     13  H   UNL     1      31.961 -22.184 -20.532  0.00  0.00    +0.146 HD
ENDROOT
BRANCH  10  15
ATOM     14  O   UNL     1      34.410 -24.023 -12.197  0.00  0.00    -0.287 OA
ATOM     15  C   UNL     1      35.082 -24.122 -13.235  0.00  0.00    +0.196 C 
BRANCH  15  16
ATOM     16  C   UNL     1      36.492 -24.598 -13.095  0.00  0.00    +0.039 C 
ATOM     17  C   UNL     1      36.869 -25.829 -13.632  0.00  0.00    +0.003 C 
ATOM     18  C   UNL     1      37.431 -23.811 -12.428  0.00  0.00    +0.003 C 
ATOM     19  C   UNL     1      38.185 -26.272 -13.502  0.00  0.00    +0.000 C 
ATOM     20  C   UNL     1      38.747 -24.255 -12.299  0.00  0.00    +0.000 C 
ATOM     21  C   UNL     1      39.124 -25.486 -12.835  0.00  0.00    +0.000 C 
ENDBRANCH  15  16
ENDBRANCH  10  15
BRANCH   1  22
ATOM     22  C   UNL     1      35.749 -21.935 -20.315  0.00  0.00    +0.109 C 
BRANCH  22  23
ATOM     23  C   UNL     1      36.030 -20.436 -20.254  0.00  0.00    +0.107 C 
BRANCH  23  26
ATOM     24  O   UNL     1      33.925 -19.666 -21.115  0.00  0.00    -0.275 OA
ATOM     25  N   UNL     1      35.831 -18.805 -22.115  0.00  0.00    -0.279 N 
ATOM     26  C   UNL     1      35.155 -19.609 -21.191  0.00  0.00    +0.227 C 
ATOM     27  C   UNL     1      37.290 -18.753 -22.190  0.00  0.00    +0.115 C 
BRANCH  25  28
ATOM     28  C   UNL     1      35.138 -17.967 -23.064  0.00  0.00    +0.075 C 
ATOM     29  C   UNL     1      35.002 -18.681 -24.411  0.00  0.00    +0.020 C 
ATOM     30  C   UNL     1      35.850 -16.619 -23.218  0.00  0.00    +0.020 C 
ATOM     31  C   UNL     1      34.319 -17.796 -25.451  0.00  0.00    +0.002 C 
ATOM     32  C   UNL     1      35.165 -15.737 -24.258  0.00  0.00    +0.002 C 
ATOM     33  C   UNL     1      35.028 -16.453 -25.599  0.00  0.00    +0.000 C 
ENDBRANCH  25  28
ENDBRANCH  23  26
ENDBRANCH  22  23
ENDBRANCH   1  22
TORSDOF 6
ENDMDL
MODEL 4
REMARK VINA RESULT:     -11.0      2.650     11.379
REMARK  Name = 16741238
REMARK  6 active torsions:
REMARK  status: ('A' for Active; 'I' for Inactive)
REMARK    1  A    between atoms: N_1  and  C_22
REMARK    2  A    between atoms: C_10  and  C_15
REMARK    3  A    between atoms: C_15  and  C_16
REMARK    4  A    between atoms: C_22  and  C_23
REMARK    5  A    between atoms: C_23  and  C_26
REMARK    6  A    between atoms: N_25  and  C_28
REMARK                            x       y       z     vdW  Elec       q    Type
REMARK                         _______ _______ _______ _____ _____    ______ ____
ROOT
ATOM      1  N   UNL     1      32.269 -11.494 -21.983  0.00  0.00    -0.249 N 
ATOM      2  N   UNL     1      32.170  -9.979 -20.118  0.00  0.00    -0.373 NA
ATOM      3  N   UNL     1      32.182 -12.263 -19.757  0.00  0.00    -0.321 N 
ATOM      4  C   UNL     1      32.304 -10.434 -22.992  0.00  0.00    +0.071 C 
ATOM      5  C   UNL     1      32.257  -9.057 -22.392  0.00  0.00    +0.045 C 
ATOM      6  C   UNL     1      32.206 -11.189 -20.619  0.00  0.00    +0.239 C 
ATOM      7  C   UNL     1      32.193  -8.888 -21.002  0.00  0.00    +0.136 C 
ATOM      8  C   UNL     1      32.277  -7.933 -23.230  0.00  0.00    +0.007 C 
ATOM      9  C   UNL     1      32.151  -7.593 -20.471  0.00  0.00    +0.032 C 
ATOM     10  C   UNL     1      32.235  -6.648 -22.690  0.00  0.00    +0.039 C 
ATOM     11  C   UNL     1      32.172  -6.478 -21.309  0.00  0.00    +0.006 C 
ATOM     12  H   UNL     1      32.209 -13.181 -20.112  0.00  0.00    +0.146 HD
ATOM     13  H   UNL     1      32.137 -12.112 -18.785  0.00  0.00    +0.146 HD
ENDROOT
BRANCH  10  15
ATOM     14  O   UNL     1      31.424  -4.580 -23.422  0.00  0.00    -0.287 OA
ATOM     15  C   UNL     1      32.256  -5.489 -23.566  0.00  0.00    +0.196 C 
BRANCH  15  16
ATOM     16  C   UNL     1      33.260  -5.331 -24.662  0.00  0.00    +0.039 C 
ATOM     17  C   UNL     1      34.519  -5.918 -24.544  0.00  0.00    +0.003 C 
ATOM     18  C   UNL     1      32.937  -4.596 -25.803  0.00  0.00    +0.003 C 
ATOM     19  C   UNL     1      35.456  -5.772 -25.567  0.00  0.00    +0.000 C 
ATOM     20  C   UNL     1      33.874  -4.450 -26.826  0.00  0.00    +0.000 C 
ATOM     21  C   UNL     1      35.133  -5.037 -26.708  0.00  0.00    +0.000 C 
ENDBRANCH  15  16
ENDBRANCH  10  15
BRANCH   1  22
ATOM     22  C   UNL     1      32.309 -12.854 -22.510  0.00  0.00    +0.109 C 
BRANCH  22  23
ATOM     23  C   UNL     1      33.595 -13.083 -23.300  0.00  0.00    +0.107 C 
BRANCH  23  26
ATOM     24  O   UNL     1      34.868 -14.250 -21.631  0.00  0.00    -0.275 OA
ATOM     25  N   UNL     1      34.655 -15.293 -23.691  0.00  0.00    -0.279 N 
ATOM     26  C   UNL     1      34.430 -14.251 -22.785  0.00  0.00    +0.227 C 
ATOM     27  C   UNL     1      34.128 -15.275 -25.054  0.00  0.00    +0.115 C 
BRANCH  25  28
ATOM     28  C   UNL     1      35.425 -16.465 -23.347  0.00  0.00    +0.075 C 
ATOM     29  C   UNL     1      35.057 -17.635 -24.262  0.00  0.00    +0.020 C 
ATOM     30  C   UNL     1      35.231 -16.828 -21.872  0.00  0.00    +0.020 C 
ATOM     31  C   UNL     1      35.818 -18.905 -23.887  0.00  0.00    +0.002 C 
ATOM     32  C   UNL     1      35.993 -18.097 -21.500  0.00  0.00    +0.002 C 
ATOM     33  C   UNL     1      35.626 -19.261 -22.415  0.00  0.00    +0.000 C 
ENDBRANCH  25  28
ENDBRANCH  23  26
ENDBRANCH  22  23
ENDBRANCH   1  22
TORSDOF 6
ENDMDL
MODEL 5
REMARK VINA RESULT:     -10.9      4.277      7.614
REMARK  Name = 16741238
REMARK  6 active torsions:
REMARK  status: ('A' for Active; 'I' for Inactive)
REMARK    1  A    between atoms: N_1  and  C_22
REMARK    2  A    between atoms: C_10  and  C_15
REMARK    3  A    between atoms: C_15  and  C_16
REMARK    4  A    between atoms: C_22  and  C_23
REMARK    5  A    between atoms: C_23  and  C_26
REMARK    6  A    between atoms: N_25  and  C_28
REMARK                            x       y       z     vdW  Elec       q    Type
REMARK                         _______ _______ _______ _____ _____    ______ ____
ROOT
ATOM      1  N   UNL     1      34.902 -20.548 -20.910  0.00  0.00    -0.249 N 
ATOM      2  N   UNL     1      33.375 -21.668 -19.428  0.00  0.00    -0.373 NA
ATOM      3  N   UNL     1      32.584 -20.613 -21.327  0.00  0.00    -0.321 N 
ATOM      4  C   UNL     1      36.091 -20.872 -20.119  0.00  0.00    +0.071 C 
ATOM      5  C   UNL     1      35.770 -21.667 -18.885  0.00  0.00    +0.045 C 
ATOM      6  C   UNL     1      33.631 -20.970 -20.507  0.00  0.00    +0.239 C 
ATOM      7  C   UNL     1      34.447 -22.028 -18.595  0.00  0.00    +0.136 C 
ATOM      8  C   UNL     1      36.803 -22.053 -18.019  0.00  0.00    +0.007 C 
ATOM      9  C   UNL     1      34.177 -22.770 -17.438  0.00  0.00    +0.032 C 
ATOM     10  C   UNL     1      36.523 -22.792 -16.870  0.00  0.00    +0.039 C 
ATOM     11  C   UNL     1      35.209 -23.151 -16.580  0.00  0.00    +0.006 C 
ATOM     12  H   UNL     1      32.754 -20.090 -22.144  0.00  0.00    +0.146 HD
ATOM     13  H   UNL     1      31.665 -20.882 -21.097  0.00  0.00    +0.146 HD
ENDROOT
BRANCH  10  15
ATOM     14  O   UNL     1      38.767 -22.835 -16.210  0.00  0.00    -0.287 OA
ATOM     15  C   UNL     1      37.600 -23.186 -15.977  0.00  0.00    +0.196 C 
BRANCH  15  16
ATOM     16  C   UNL     1      37.365 -24.016 -14.757  0.00  0.00    +0.039 C 
ATOM     17  C   UNL     1      37.520 -25.401 -14.814  0.00  0.00    +0.003 C 
ATOM     18  C   UNL     1      36.991 -23.406 -13.559  0.00  0.00    +0.003 C 
ATOM     19  C   UNL     1      37.302 -26.175 -13.675  0.00  0.00    +0.000 C 
ATOM     20  C   UNL     1      36.772 -24.180 -12.420  0.00  0.00    +0.000 C 
ATOM     21  C   UNL     1      36.928 -25.565 -12.478  0.00  0.00    +0.000 C 
ENDBRANCH  15  16
ENDBRANCH  10  15
BRANCH   1  22
ATOM     22  C   UNL     1      35.155 -19.771 -22.119  0.00  0.00    +0.109 C 
BRANCH  22  23
ATOM     23  C   UNL     1      35.540 -18.338 -21.762  0.00  0.00    +0.107 C 
BRANCH  23  26
ATOM     24  O   UNL     1      35.768 -17.768 -24.084  0.00  0.00    -0.275 OA
ATOM     25  N   UNL     1      35.117 -16.061 -22.656  0.00  0.00    -0.279 N 
ATOM     26  C   UNL     1      35.490 -17.378 -22.947  0.00  0.00    +0.227 C 
ATOM     27  C   UNL     1      34.792 -15.619 -21.302  0.00  0.00    +0.115 C 
BRANCH  25  28
ATOM     28  C   UNL     1      35.023 -15.041 -23.673  0.00  0.00    +0.075 C 
ATOM     29  C   UNL     1      34.657 -13.693 -23.048  0.00  0.00    +0.020 C 
ATOM     30  C   UNL     1      34.018 -15.445 -24.756  0.00  0.00    +0.020 C 
ATOM     31  C   UNL     1      34.499 -12.605 -24.107  0.00  0.00    +0.002 C 
ATOM     32  C   UNL     1      33.863 -14.354 -25.813  0.00  0.00    +0.002 C 
ATOM     33  C   UNL     1      33.500 -13.012 -25.187  0.00  0.00    +0.000 C 
ENDBRANCH  25  28
ENDBRANCH  23  26
ENDBRANCH  22  23
ENDBRANCH   1  22
TORSDOF 6
ENDMDL
MODEL 6
REMARK VINA RESULT:     -10.8      6.024     10.767
REMARK  Name = 16741238
REMARK  6 active torsions:
REMARK  status: ('A' for Active; 'I' for Inactive)
REMARK    1  A    between atoms: N_1  and  C_22
REMARK    2  A    between atoms: C_10  and  C_15
REMARK    3  A    between atoms: C_15  and  C_16
REMARK    4  A    between atoms: C_22  and  C_23
REMARK    5  A    between atoms: C_23  and  C_26
REMARK    6  A    between atoms: N_25  and  C_28
REMARK                            x       y       z     vdW  Elec       q    Type
REMARK                         _______ _______ _______ _____ _____    ______ ____
ROOT
ATOM      1  N   UNL     1      36.205 -22.247 -17.488  0.00  0.00    -0.249 N 
ATOM      2  N   UNL     1      36.832 -23.359 -15.449  0.00  0.00    -0.373 NA
ATOM      3  N   UNL     1      38.458 -22.461 -16.828  0.00  0.00    -0.321 N 
ATOM      4  C   UNL     1      34.768 -22.454 -17.296  0.00  0.00    +0.071 C 
ATOM      5  C   UNL     1      34.452 -23.200 -16.030  0.00  0.00    +0.045 C 
ATOM      6  C   UNL     1      37.132 -22.713 -16.550  0.00  0.00    +0.239 C 
ATOM      7  C   UNL     1      35.480 -23.615 -15.173  0.00  0.00    +0.136 C 
ATOM      8  C   UNL     1      33.117 -23.482 -15.706  0.00  0.00    +0.007 C 
ATOM      9  C   UNL     1      35.155 -24.308 -13.999  0.00  0.00    +0.032 C 
ATOM     10  C   UNL     1      32.805 -24.172 -14.535  0.00  0.00    +0.039 C 
ATOM     11  C   UNL     1      33.825 -24.585 -13.681  0.00  0.00    +0.006 C 
ATOM     12  H   UNL     1      38.705 -21.976 -17.649  0.00  0.00    +0.146 HD
ATOM     13  H   UNL     1      39.157 -22.765 -16.206  0.00  0.00    +0.146 HD
ENDROOT
BRANCH  10  15
ATOM     14  O   UNL     1      31.135 -25.052 -13.154  0.00  0.00    -0.287 OA
ATOM     15  C   UNL     1      31.419 -24.461 -14.207  0.00  0.00    +0.196 C 
BRANCH  15  16
ATOM     16  C   UNL     1      30.286 -24.068 -15.098  0.00  0.00    +0.039 C 
ATOM     17  C   UNL     1      29.794 -22.764 -15.068  0.00  0.00    +0.003 C 
ATOM     18  C   UNL     1      29.721 -25.006 -15.963  0.00  0.00    +0.003 C 
ATOM     19  C   UNL     1      28.738 -22.397 -15.901  0.00  0.00    +0.000 C 
ATOM     20  C   UNL     1      28.665 -24.639 -16.796  0.00  0.00    +0.000 C 
ATOM     21  C   UNL     1      28.172 -23.335 -16.764  0.00  0.00    +0.000 C 
ENDBRANCH  15  16
ENDBRANCH  10  15
BRANCH   1  22
ATOM     22  C   UNL     1      36.571 -21.530 -18.705  0.00  0.00    +0.109 C 
BRANCH  22  23
ATOM     23  C   UNL     1      35.775 -22.058 -19.895  0.00  0.00    +0.107 C 
BRANCH  23  26
ATOM     24  O   UNL     1      33.772 -20.966 -20.644  0.00  0.00    -0.275 OA
ATOM     25  N   UNL     1      35.781 -20.024 -21.318  0.00  0.00    -0.279 N 
ATOM     26  C   UNL     1      35.006 -20.977 -20.647  0.00  0.00    +0.227 C 
ATOM     27  C   UNL     1      37.242 -20.055 -21.310  0.00  0.00    +0.115 C 
BRANCH  25  28
ATOM     28  C   UNL     1      35.195 -18.941 -22.070  0.00  0.00    +0.075 C 
ATOM     29  C   UNL     1      35.310 -19.207 -23.573  0.00  0.00    +0.020 C 
ATOM     30  C   UNL     1      35.841 -17.605 -21.690  0.00  0.00    +0.020 C 
ATOM     31  C   UNL     1      34.745 -18.051 -24.395  0.00  0.00    +0.002 C 
ATOM     32  C   UNL     1      35.274 -16.451 -22.513  0.00  0.00    +0.002 C 
ATOM     33  C   UNL     1      35.387 -16.721 -24.011  0.00  0.00    +0.000 C 
ENDBRANCH  25  28
ENDBRANCH  23  26
ENDBRANCH  22  23
ENDBRANCH   1  22
TORSDOF 6
ENDMDL
MODEL 7
REMARK VINA RESULT:     -10.7      6.248     11.024
REMARK  Name = 16741238
REMARK  6 active torsions:
REMARK  status: ('A' for Active; 'I' for Inactive)
REMARK    1  A    between atoms: N_1  and  C_22
REMARK    2  A    between atoms: C_10  and  C_15
REMARK    3  A    between atoms: C_15  and  C_16
REMARK    4  A    between atoms: C_22  and  C_23
REMARK    5  A    between atoms: C_23  and  C_26
REMARK    6  A    between atoms: N_25  and  C_28
REMARK                            x       y       z     vdW  Elec       q    Type
REMARK                         _______ _______ _______ _____ _____    ______ ____
ROOT
ATOM      1  N   UNL     1      33.204 -23.096 -17.555  0.00  0.00    -0.249 N 
ATOM      2  N   UNL     1      32.148 -23.380 -15.413  0.00  0.00    -0.373 NA
ATOM      3  N   UNL     1      30.903 -22.694 -17.238  0.00  0.00    -0.321 N 
ATOM      4  C   UNL     1      34.533 -23.486 -17.083  0.00  0.00    +0.071 C 
ATOM      5  C   UNL     1      34.553 -23.829 -15.620  0.00  0.00    +0.045 C 
ATOM      6  C   UNL     1      32.108 -23.072 -16.687  0.00  0.00    +0.239 C 
ATOM      7  C   UNL     1      33.379 -23.763 -14.857  0.00  0.00    +0.136 C 
ATOM      8  C   UNL     1      35.757 -24.218 -15.014  0.00  0.00    +0.007 C 
ATOM      9  C   UNL     1      33.428 -24.089 -13.496  0.00  0.00    +0.032 C 
ATOM     10  C   UNL     1      35.793 -24.540 -13.658  0.00  0.00    +0.039 C 
ATOM     11  C   UNL     1      34.628 -24.476 -12.898  0.00  0.00    +0.006 C 
ATOM     12  H   UNL     1      30.851 -22.460 -18.193  0.00  0.00    +0.146 HD
ATOM     13  H   UNL     1      30.095 -22.658 -16.676  0.00  0.00    +0.146 HD
ENDROOT
BRANCH  10  15
ATOM     14  O   UNL     1      37.098 -25.159 -11.818  0.00  0.00    -0.287 OA
ATOM     15  C   UNL     1      37.045 -24.942 -13.038  0.00  0.00    +0.196 C 
BRANCH  15  16
ATOM     16  C   UNL     1      38.307 -25.113 -13.819  0.00  0.00    +0.039 C 
ATOM     17  C   UNL     1      38.497 -24.402 -15.004  0.00  0.00    +0.003 C 
ATOM     18  C   UNL     1      39.297 -25.985 -13.364  0.00  0.00    +0.003 C 
ATOM     19  C   UNL     1      39.675 -24.561 -15.732  0.00  0.00    +0.000 C 
ATOM     20  C   UNL     1      40.475 -26.144 -14.093  0.00  0.00    +0.000 C 
ATOM     21  C   UNL     1      40.664 -25.433 -15.278  0.00  0.00    +0.000 C 
ENDBRANCH  15  16
ENDBRANCH  10  15
BRANCH   1  22
ATOM     22  C   UNL     1      33.126 -22.748 -18.970  0.00  0.00    +0.109 C 
BRANCH  22  23
ATOM     23  C   UNL     1      34.275 -21.821 -19.356  0.00  0.00    +0.107 C 
BRANCH  23  26
ATOM     24  O   UNL     1      32.700 -20.527 -20.625  0.00  0.00    -0.275 OA
ATOM     25  N   UNL     1      34.944 -20.072 -20.986  0.00  0.00    -0.279 N 
ATOM     26  C   UNL     1      33.887 -20.754 -20.375  0.00  0.00    +0.227 C 
ATOM     27  C   UNL     1      36.344 -20.357 -20.676  0.00  0.00    +0.115 C 
BRANCH  25  28
ATOM     28  C   UNL     1      34.732 -19.036 -21.968  0.00  0.00    +0.075 C 
ATOM     29  C   UNL     1      34.945 -19.585 -23.381  0.00  0.00    +0.020 C 
ATOM     30  C   UNL     1      35.642 -17.835 -21.694  0.00  0.00    +0.020 C 
ATOM     31  C   UNL     1      34.779 -18.497 -24.439  0.00  0.00    +0.002 C 
ATOM     32  C   UNL     1      35.474 -16.749 -22.754  0.00  0.00    +0.002 C 
ATOM     33  C   UNL     1      35.684 -17.299 -24.161  0.00  0.00    +0.000 C 
ENDBRANCH  25  28
ENDBRANCH  23  26
ENDBRANCH  22  23
ENDBRANCH   1  22
TORSDOF 6
ENDMDL
MODEL 8
REMARK VINA RESULT:     -10.7      3.350     11.476
REMARK  Name = 16741238
REMARK  6 active torsions:
REMARK  status: ('A' for Active; 'I' for Inactive)
REMARK    1  A    between atoms: N_1  and  C_22
REMARK    2  A    between atoms: C_10  and  C_15
REMARK    3  A    between atoms: C_15  and  C_16
REMARK    4  A    between atoms: C_22  and  C_23
REMARK    5  A    between atoms: C_23  and  C_26
REMARK    6  A    between atoms: N_25  and  C_28
REMARK                            x       y       z     vdW  Elec       q    Type
REMARK                         _______ _______ _______ _____ _____    ______ ____
ROOT
ATOM      1  N   UNL     1      31.762 -10.528 -21.163  0.00  0.00    -0.249 N 
ATOM      2  N   UNL     1      32.377  -8.667 -19.769  0.00  0.00    -0.373 NA
ATOM      3  N   UNL     1      32.154 -10.779 -18.853  0.00  0.00    -0.321 N 
ATOM      4  C   UNL     1      31.683  -9.734 -22.390  0.00  0.00    +0.071 C 
ATOM      5  C   UNL     1      31.994  -8.281 -22.163  0.00  0.00    +0.045 C 
ATOM      6  C   UNL     1      32.105  -9.938 -19.942  0.00  0.00    +0.239 C 
ATOM      7  C   UNL     1      32.324  -7.815 -20.883  0.00  0.00    +0.136 C 
ATOM      8  C   UNL     1      31.956  -7.386 -23.242  0.00  0.00    +0.007 C 
ATOM      9  C   UNL     1      32.611  -6.456 -20.702  0.00  0.00    +0.032 C 
ATOM     10  C   UNL     1      32.243  -6.035 -23.050  0.00  0.00    +0.039 C 
ATOM     11  C   UNL     1      32.571  -5.570 -21.779  0.00  0.00    +0.006 C 
ATOM     12  H   UNL     1      31.954 -11.737 -18.961  0.00  0.00    +0.146 HD
ATOM     13  H   UNL     1      32.389 -10.422 -17.966  0.00  0.00    +0.146 HD
ENDROOT
BRANCH  10  15
ATOM     14  O   UNL     1      31.228  -4.359 -24.327  0.00  0.00    -0.287 OA
ATOM     15  C   UNL     1      32.200  -5.114 -24.174  0.00  0.00    +0.196 C 
BRANCH  15  16
ATOM     16  C   UNL     1      33.301  -5.027 -25.181  0.00  0.00    +0.039 C 
ATOM     17  C   UNL     1      33.131  -4.265 -26.336  0.00  0.00    +0.003 C 
ATOM     18  C   UNL     1      34.499  -5.708 -24.965  0.00  0.00    +0.003 C 
ATOM     19  C   UNL     1      34.159  -4.183 -27.275  0.00  0.00    +0.000 C 
ATOM     20  C   UNL     1      35.527  -5.626 -25.904  0.00  0.00    +0.000 C 
ATOM     21  C   UNL     1      35.356  -4.864 -27.060  0.00  0.00    +0.000 C 
ENDBRANCH  15  16
ENDBRANCH  10  15
BRANCH   1  22
ATOM     22  C   UNL     1      31.465 -11.948 -21.324  0.00  0.00    +0.109 C 
BRANCH  22  23
ATOM     23  C   UNL     1      32.719 -12.785 -21.095  0.00  0.00    +0.107 C 
BRANCH  23  26
ATOM     24  O   UNL     1      33.017 -12.904 -23.474  0.00  0.00    -0.275 OA
ATOM     25  N   UNL     1      34.149 -14.482 -22.208  0.00  0.00    -0.279 N 
ATOM     26  C   UNL     1      33.299 -13.384 -22.373  0.00  0.00    +0.227 C 
ATOM     27  C   UNL     1      34.469 -15.035 -20.894  0.00  0.00    +0.115 C 
BRANCH  25  28
ATOM     28  C   UNL     1      34.773 -15.152 -23.324  0.00  0.00    +0.075 C 
ATOM     29  C   UNL     1      33.864 -15.107 -24.554  0.00  0.00    +0.020 C 
ATOM     30  C   UNL     1      35.141 -16.592 -22.955  0.00  0.00    +0.020 C 
ATOM     31  C   UNL     1      34.476 -15.854 -25.736  0.00  0.00    +0.002 C 
ATOM     32  C   UNL     1      35.753 -17.337 -24.139  0.00  0.00    +0.002 C 
ATOM     33  C   UNL     1      34.845 -17.288 -25.364  0.00  0.00    +0.000 C 
ENDBRANCH  25  28
ENDBRANCH  23  26
ENDBRANCH  22  23
ENDBRANCH   1  22
TORSDOF 6
ENDMDL
MODEL 9
REMARK VINA RESULT:     -10.6      2.949      4.988
REMARK  Name = 16741238
REMARK  6 active torsions:
REMARK  status: ('A' for Active; 'I' for Inactive)
REMARK    1  A    between atoms: N_1  and  C_22
REMARK    2  A    between atoms: C_10  and  C_15
REMARK    3  A    between atoms: C_15  and  C_16
REMARK    4  A    between atoms: C_22  and  C_23
REMARK    5  A    between atoms: C_23  and  C_26
REMARK    6  A    between atoms: N_25  and  C_28
REMARK                            x       y       z     vdW  Elec       q    Type
REMARK                         _______ _______ _______ _____ _____    ______ ____
ROOT
ATOM      1  N   UNL     1      31.806 -10.918 -21.872  0.00  0.00    -0.249 N 
ATOM      2  N   UNL     1      32.149 -12.474 -20.071  0.00  0.00    -0.373 NA
ATOM      3  N   UNL     1      30.887 -10.565 -19.731  0.00  0.00    -0.321 N 
ATOM      4  C   UNL     1      32.587 -11.688 -22.842  0.00  0.00    +0.071 C 
ATOM      5  C   UNL     1      33.159 -12.949 -22.257  0.00  0.00    +0.045 C 
ATOM      6  C   UNL     1      31.643 -11.367 -20.558  0.00  0.00    +0.239 C 
ATOM      7  C   UNL     1      32.920 -13.285 -20.918  0.00  0.00    +0.136 C 
ATOM      8  C   UNL     1      33.937 -13.796 -23.060  0.00  0.00    +0.007 C 
ATOM      9  C   UNL     1      33.465 -14.467 -20.400  0.00  0.00    +0.032 C 
ATOM     10  C   UNL     1      34.475 -14.970 -22.534  0.00  0.00    +0.039 C 
ATOM     11  C   UNL     1      34.239 -15.306 -21.203  0.00  0.00    +0.006 C 
ATOM     12  H   UNL     1      30.496  -9.730 -20.077  0.00  0.00    +0.146 HD
ATOM     13  H   UNL     1      30.736 -10.829 -18.794  0.00  0.00    +0.146 HD
ENDROOT
BRANCH  10  15
ATOM     14  O   UNL     1      35.917 -15.376 -24.331  0.00  0.00    -0.287 OA
ATOM     15  C   UNL     1      35.281 -15.842 -23.373  0.00  0.00    +0.196 C 
BRANCH  15  16
ATOM     16  C   UNL     1      35.386 -17.312 -23.131  0.00  0.00    +0.039 C 
ATOM     17  C   UNL     1      35.884 -17.786 -21.917  0.00  0.00    +0.003 C 
ATOM     18  C   UNL     1      34.986 -18.213 -24.119  0.00  0.00    +0.003 C 
ATOM     19  C   UNL     1      35.981 -19.158 -21.691  0.00  0.00    +0.000 C 
ATOM     20  C   UNL     1      35.084 -19.585 -23.892  0.00  0.00    +0.000 C 
ATOM     21  C   UNL     1      35.582 -20.058 -22.678  0.00  0.00    +0.000 C 
ENDBRANCH  15  16
ENDBRANCH  10  15
BRANCH   1  22
ATOM     22  C   UNL     1      31.229  -9.679 -22.385  0.00  0.00    +0.109 C 
BRANCH  22  23
ATOM     23  C   UNL     1      32.300  -8.598 -22.497  0.00  0.00    +0.107 C 
BRANCH  23  26
ATOM     24  O   UNL     1      30.905  -7.473 -24.095  0.00  0.00    -0.275 OA
ATOM     25  N   UNL     1      33.122  -6.801 -24.000  0.00  0.00    -0.279 N 
ATOM     26  C   UNL     1      32.031  -7.581 -23.602  0.00  0.00    +0.227 C 
ATOM     27  C   UNL     1      34.448  -6.945 -23.403  0.00  0.00    +0.115 C 
BRANCH  25  28
ATOM     28  C   UNL     1      33.020  -5.796 -25.031  0.00  0.00    +0.075 C 
ATOM     29  C   UNL     1      34.358  -5.633 -25.755  0.00  0.00    +0.020 C 
ATOM     30  C   UNL     1      32.538  -4.466 -24.446  0.00  0.00    +0.020 C 
ATOM     31  C   UNL     1      34.295  -4.538 -26.817  0.00  0.00    +0.002 C 
ATOM     32  C   UNL     1      32.475  -3.373 -25.510  0.00  0.00    +0.002 C 
ATOM     33  C   UNL     1      33.810  -3.215 -26.232  0.00  0.00    +0.000 C 
ENDBRANCH  25  28
ENDBRANCH  23  26
ENDBRANCH  22  23
ENDBRANCH   1  22
TORSDOF 6
ENDMDL
