MODEL 1
REMARK VINA RESULT:     -11.2      0.000      0.000
REMARK  Name = 11234049
REMARK  5 active torsions:
REMARK  status: ('A' for Active; 'I' for Inactive)
REMARK    1  A    between atoms: C_2  and  N_10
REMARK    2  A    between atoms: C_5  and  C_18
REMARK    3  A    between atoms: C_11  and  C_14
REMARK    4  A    between atoms: C_14  and  O_15
REMARK    5  A    between atoms: C_22  and  C_27
REMARK                            x       y       z     vdW  Elec       q    Type
REMARK                         _______ _______ _______ _____ _____    ______ ____
ROOT
ATOM      1  F   UNL     1      33.650 -22.773 -18.130  0.00  0.00    -0.204 F 
ATOM      2  C   UNL     1      36.385 -23.493 -15.840  0.00  0.00    +0.059 C 
ATOM      3  C   UNL     1      35.114 -23.494 -16.425  0.00  0.00    +0.045 C 
ATOM      4  C   UNL     1      37.414 -22.752 -16.430  0.00  0.00    +0.015 C 
ATOM      5  C   UNL     1      35.906 -22.023 -18.170  0.00  0.00    +0.029 C 
ATOM      6  C   UNL     1      34.875 -22.760 -17.586  0.00  0.00    +0.141 C 
ATOM      7  C   UNL     1      37.175 -22.020 -17.592  0.00  0.00    +0.004 C 
ENDROOT
BRANCH   2  10
ATOM      8  O   UNL     1      37.108 -25.925 -13.228  0.00  0.00    -0.434 OA
ATOM      9  O   UNL     1      37.101 -26.422 -15.441  0.00  0.00    -0.226 OA
ATOM     10  N   UNL     1      36.629 -24.241 -14.653  0.00  0.00    -0.221 N 
ATOM     11  C   UNL     1      37.095 -24.727 -12.440  0.00  0.00    +0.220 C 
ATOM     12  C   UNL     1      36.447 -23.694 -13.336  0.00  0.00    +0.148 C 
ATOM     13  C   UNL     1      36.964 -25.590 -14.556  0.00  0.00    +0.409 C 
BRANCH  11  14
ATOM     14  C   UNL     1      38.526 -24.375 -12.056  0.00  0.00    +0.183 C 
BRANCH  14  15
ATOM     15  O   UNL     1      38.587 -22.992 -11.754  0.00  0.00    -0.378 OA
ATOM     16  H   UNL     1      38.211 -22.484 -12.489  0.00  0.00    +0.211 HD
ENDBRANCH  14  15
ENDBRANCH  11  14
ENDBRANCH   2  10
BRANCH   5  18
ATOM     17  N   UNL     1      36.513 -19.789 -21.092  0.00  0.00    -0.234 NA
ATOM     18  C   UNL     1      35.662 -21.260 -19.376  0.00  0.00    +0.021 C 
ATOM     19  C   UNL     1      34.409 -21.250 -19.973  0.00  0.00    +0.004 C 
ATOM     20  C   UNL     1      36.673 -20.521 -19.966  0.00  0.00    +0.100 C 
ATOM     21  C   UNL     1      34.205 -20.508 -21.131  0.00  0.00    +0.029 C 
ATOM     22  C   UNL     1      35.280 -19.801 -21.646  0.00  0.00    +0.146 C 
BRANCH  22  27
ATOM     23  N   UNL     1      35.434 -17.720 -22.910  0.00  0.00    -0.105 NA
ATOM     24  N   UNL     1      35.114 -17.494 -24.191  0.00  0.00    -0.113 N 
ATOM     25  N   UNL     1      34.650 -19.543 -24.001  0.00  0.00    -0.085 NA
ATOM     26  N   UNL     1      34.645 -18.546 -24.876  0.00  0.00    -0.018 NA
ATOM     27  C   UNL     1      35.127 -19.017 -22.838  0.00  0.00    +0.092 C 
ATOM     28  C   UNL     1      35.262 -16.196 -24.797  0.00  0.00    +0.163 C 
ENDBRANCH  22  27
ENDBRANCH   5  18
TORSDOF 5
ENDMDL
MODEL 2
REMARK VINA RESULT:     -10.9      1.188      1.505
REMARK  Name = 11234049
REMARK  5 active torsions:
REMARK  status: ('A' for Active; 'I' for Inactive)
REMARK    1  A    between atoms: C_2  and  N_10
REMARK    2  A    between atoms: C_5  and  C_18
REMARK    3  A    between atoms: C_11  and  C_14
REMARK    4  A    between atoms: C_14  and  O_15
REMARK    5  A    between atoms: C_22  and  C_27
REMARK                            x       y       z     vdW  Elec       q    Type
REMARK                         _______ _______ _______ _____ _____    ______ ____
ROOT
ATOM      1  F   UNL     1      37.776 -21.222 -17.700  0.00  0.00    -0.204 F 
ATOM      2  C   UNL     1      35.947 -23.641 -15.688  0.00  0.00    +0.059 C 
ATOM      3  C   UNL     1      36.960 -22.782 -16.127  0.00  0.00    +0.045 C 
ATOM      4  C   UNL     1      34.765 -23.747 -16.428  0.00  0.00    +0.015 C 
ATOM      5  C   UNL     1      35.611 -22.150 -18.029  0.00  0.00    +0.029 C 
ATOM      6  C   UNL     1      36.793 -22.039 -17.295  0.00  0.00    +0.141 C 
ATOM      7  C   UNL     1      34.597 -23.003 -17.594  0.00  0.00    +0.004 C 
ENDROOT
BRANCH   2  10
ATOM      8  O   UNL     1      36.852 -25.919 -12.995  0.00  0.00    -0.434 OA
ATOM      9  O   UNL     1      37.805 -25.963 -15.052  0.00  0.00    -0.226 OA
ATOM     10  N   UNL     1      36.118 -24.401 -14.495  0.00  0.00    -0.221 N 
ATOM     11  C   UNL     1      36.010 -25.014 -12.267  0.00  0.00    +0.220 C 
ATOM     12  C   UNL     1      35.278 -24.237 -13.339  0.00  0.00    +0.148 C 
ATOM     13  C   UNL     1      37.006 -25.452 -14.282  0.00  0.00    +0.409 C 
BRANCH  11  14
ATOM     14  C   UNL     1      36.882 -24.137 -11.380  0.00  0.00    +0.183 C 
BRANCH  14  15
ATOM     15  O   UNL     1      36.456 -24.285 -10.036  0.00  0.00    -0.378 OA
ATOM     16  H   UNL     1      36.790 -23.544  -9.508  0.00  0.00    +0.211 HD
ENDBRANCH  14  15
ENDBRANCH  11  14
ENDBRANCH   2  10
BRANCH   5  18
ATOM     17  N   UNL     1      36.403 -19.998 -20.969  0.00  0.00    -0.234 NA
ATOM     18  C   UNL     1      35.433 -21.380 -19.243  0.00  0.00    +0.021 C 
ATOM     19  C   UNL     1      34.185 -21.273 -19.843  0.00  0.00    +0.004 C 
ATOM     20  C   UNL     1      36.501 -20.731 -19.836  0.00  0.00    +0.100 C 
ATOM     21  C   UNL     1      34.045 -20.527 -21.008  0.00  0.00    +0.029 C 
ATOM     22  C   UNL     1      35.174 -19.914 -21.525  0.00  0.00    +0.146 C 
BRANCH  22  27
ATOM     23  N   UNL     1      35.389 -17.832 -22.777  0.00  0.00    -0.105 NA
ATOM     24  N   UNL     1      35.145 -17.607 -24.075  0.00  0.00    -0.113 N 
ATOM     25  N   UNL     1      34.687 -19.660 -23.914  0.00  0.00    -0.085 NA
ATOM     26  N   UNL     1      34.726 -18.662 -24.788  0.00  0.00    -0.018 NA
ATOM     27  C   UNL     1      35.088 -19.131 -22.725  0.00  0.00    +0.092 C 
ATOM     28  C   UNL     1      35.320 -16.307 -24.671  0.00  0.00    +0.163 C 
ENDBRANCH  22  27
ENDBRANCH   5  18
TORSDOF 5
ENDMDL
MODEL 3
REMARK VINA RESULT:     -10.9      4.986     10.192
REMARK  Name = 11234049
REMARK  5 active torsions:
REMARK  status: ('A' for Active; 'I' for Inactive)
REMARK    1  A    between atoms: C_2  and  N_10
REMARK    2  A    between atoms: C_5  and  C_18
REMARK    3  A    between atoms: C_11  and  C_14
REMARK    4  A    between atoms: C_14  and  O_15
REMARK    5  A    between atoms: C_22  and  C_27
REMARK                            x       y       z     vdW  Elec       q    Type
REMARK                         _______ _______ _______ _____ _____    ______ ____
ROOT
ATOM      1  F   UNL     1      33.787 -20.887 -20.424  0.00  0.00    -0.204 F 
ATOM      2  C   UNL     1      35.501 -18.740 -22.811  0.00  0.00    +0.059 C 
ATOM      3  C   UNL     1      34.489 -19.465 -22.172  0.00  0.00    +0.045 C 
ATOM      4  C   UNL     1      36.797 -18.758 -22.286  0.00  0.00    +0.015 C 
ATOM      5  C   UNL     1      36.066 -20.212 -20.502  0.00  0.00    +0.029 C 
ATOM      6  C   UNL     1      34.770 -20.199 -21.021  0.00  0.00    +0.141 C 
ATOM      7  C   UNL     1      37.078 -19.491 -21.134  0.00  0.00    +0.004 C 
ENDROOT
BRANCH   2  10
ATOM      8  O   UNL     1      34.450 -17.388 -26.024  0.00  0.00    -0.434 OA
ATOM      9  O   UNL     1      33.980 -19.496 -25.334  0.00  0.00    -0.226 OA
ATOM     10  N   UNL     1      35.213 -17.992 -23.988  0.00  0.00    -0.221 N 
ATOM     11  C   UNL     1      34.948 -16.189 -25.414  0.00  0.00    +0.220 C 
ATOM     12  C   UNL     1      35.746 -16.677 -24.225  0.00  0.00    +0.148 C 
ATOM     13  C   UNL     1      34.496 -18.412 -25.105  0.00  0.00    +0.409 C 
BRANCH  11  14
ATOM     14  C   UNL     1      33.769 -15.308 -25.024  0.00  0.00    +0.183 C 
BRANCH  14  15
ATOM     15  O   UNL     1      32.969 -15.087 -26.173  0.00  0.00    -0.378 OA
ATOM     16  H   UNL     1      32.523 -15.912 -26.420  0.00  0.00    +0.211 HD
ENDBRANCH  14  15
ENDBRANCH  11  14
ENDBRANCH   2  10
BRANCH   5  18
ATOM     17  N   UNL     1      35.834 -22.835 -17.863  0.00  0.00    -0.234 NA
ATOM     18  C   UNL     1      36.363 -20.973 -19.306  0.00  0.00    +0.021 C 
ATOM     19  C   UNL     1      37.414 -20.611 -18.473  0.00  0.00    +0.004 C 
ATOM     20  C   UNL     1      35.609 -22.082 -18.963  0.00  0.00    +0.100 C 
ATOM     21  C   UNL     1      37.675 -21.361 -17.332  0.00  0.00    +0.029 C 
ATOM     22  C   UNL     1      36.863 -22.454 -17.074  0.00  0.00    +0.146 C 
BRANCH  22  27
ATOM     23  N   UNL     1      36.566 -24.481 -15.751  0.00  0.00    -0.105 NA
ATOM     24  N   UNL     1      37.069 -24.775 -14.544  0.00  0.00    -0.113 N 
ATOM     25  N   UNL     1      37.856 -22.844 -14.867  0.00  0.00    -0.085 NA
ATOM     26  N   UNL     1      37.840 -23.832 -13.982  0.00  0.00    -0.018 NA
ATOM     27  C   UNL     1      37.087 -23.263 -15.910  0.00  0.00    +0.092 C 
ATOM     28  C   UNL     1      36.797 -26.027 -13.888  0.00  0.00    +0.163 C 
ENDBRANCH  22  27
ENDBRANCH   5  18
TORSDOF 5
ENDMDL
MODEL 4
REMARK VINA RESULT:     -10.7      1.000      1.608
REMARK  Name = 11234049
REMARK  5 active torsions:
REMARK  status: ('A' for Active; 'I' for Inactive)
REMARK    1  A    between atoms: C_2  and  N_10
REMARK    2  A    between atoms: C_5  and  C_18
REMARK    3  A    between atoms: C_11  and  C_14
REMARK    4  A    between atoms: C_14  and  O_15
REMARK    5  A    between atoms: C_22  and  C_27
REMARK                            x       y       z     vdW  Elec       q    Type
REMARK                         _______ _______ _______ _____ _____    ______ ____
ROOT
ATOM      1  F   UNL     1      33.643 -22.724 -18.536  0.00  0.00    -0.204 F 
ATOM      2  C   UNL     1      36.354 -23.307 -16.179  0.00  0.00    +0.059 C 
ATOM      3  C   UNL     1      35.101 -23.376 -16.798  0.00  0.00    +0.045 C 
ATOM      4  C   UNL     1      37.352 -22.498 -16.731  0.00  0.00    +0.015 C 
ATOM      5  C   UNL     1      35.851 -21.839 -18.505  0.00  0.00    +0.029 C 
ATOM      6  C   UNL     1      34.850 -22.645 -17.958  0.00  0.00    +0.141 C 
ATOM      7  C   UNL     1      37.101 -21.768 -17.892  0.00  0.00    +0.004 C 
ENDROOT
BRANCH   2  10
ATOM      8  O   UNL     1      36.370 -25.059 -12.987  0.00  0.00    -0.434 OA
ATOM      9  O   UNL     1      34.575 -23.931 -13.792  0.00  0.00    -0.226 OA
ATOM     10  N   UNL     1      36.610 -24.053 -14.993  0.00  0.00    -0.221 N 
ATOM     11  C   UNL     1      37.623 -25.516 -13.515  0.00  0.00    +0.220 C 
ATOM     12  C   UNL     1      37.908 -24.581 -14.669  0.00  0.00    +0.148 C 
ATOM     13  C   UNL     1      35.730 -24.303 -13.943  0.00  0.00    +0.409 C 
BRANCH  11  14
ATOM     14  C   UNL     1      37.477 -26.970 -13.943  0.00  0.00    +0.183 C 
BRANCH  14  15
ATOM     15  O   UNL     1      38.441 -27.248 -14.943  0.00  0.00    -0.378 OA
ATOM     16  H   UNL     1      38.522 -26.483 -15.534  0.00  0.00    +0.211 HD
ENDBRANCH  14  15
ENDBRANCH  11  14
ENDBRANCH   2  10
BRANCH   5  18
ATOM     17  N   UNL     1      36.450 -19.693 -21.494  0.00  0.00    -0.234 NA
ATOM     18  C   UNL     1      35.595 -21.077 -19.710  0.00  0.00    +0.021 C 
ATOM     19  C   UNL     1      34.314 -20.988 -20.238  0.00  0.00    +0.004 C 
ATOM     20  C   UNL     1      36.620 -20.420 -20.366  0.00  0.00    +0.100 C 
ATOM     21  C   UNL     1      34.099 -20.249 -21.396  0.00  0.00    +0.029 C 
ATOM     22  C   UNL     1      35.190 -19.626 -21.980  0.00  0.00    +0.146 C 
BRANCH  22  27
ATOM     23  N   UNL     1      35.356 -17.560 -23.266  0.00  0.00    -0.105 NA
ATOM     24  N   UNL     1      35.013 -17.338 -24.542  0.00  0.00    -0.113 N 
ATOM     25  N   UNL     1      34.516 -19.377 -24.324  0.00  0.00    -0.085 NA
ATOM     26  N   UNL     1      34.510 -18.388 -25.208  0.00  0.00    -0.018 NA
ATOM     27  C   UNL     1      35.027 -18.850 -23.176  0.00  0.00    +0.092 C 
ATOM     28  C   UNL     1      35.173 -16.049 -25.162  0.00  0.00    +0.163 C 
ENDBRANCH  22  27
ENDBRANCH   5  18
TORSDOF 5
ENDMDL
MODEL 5
REMARK VINA RESULT:      -9.7      1.778      2.455
REMARK  Name = 11234049
REMARK  5 active torsions:
REMARK  status: ('A' for Active; 'I' for Inactive)
REMARK    1  A    between atoms: C_2  and  N_10
REMARK    2  A    between atoms: C_5  and  C_18
REMARK    3  A    between atoms: C_11  and  C_14
REMARK    4  A    between atoms: C_14  and  O_15
REMARK    5  A    between atoms: C_22  and  C_27
REMARK                            x       y       z     vdW  Elec       q    Type
REMARK                         _______ _______ _______ _____ _____    ______ ____
ROOT
ATOM      1  F   UNL     1      38.593 -21.425 -17.211  0.00  0.00    -0.204 F 
ATOM      2  C   UNL     1      36.764 -23.403 -14.764  0.00  0.00    +0.059 C 
ATOM      3  C   UNL     1      37.800 -22.705 -15.393  0.00  0.00    +0.045 C 
ATOM      4  C   UNL     1      35.511 -23.477 -15.381  0.00  0.00    +0.015 C 
ATOM      5  C   UNL     1      36.333 -22.166 -17.235  0.00  0.00    +0.029 C 
ATOM      6  C   UNL     1      37.586 -22.088 -16.624  0.00  0.00    +0.141 C 
ATOM      7  C   UNL     1      35.296 -22.859 -16.612  0.00  0.00    +0.004 C 
ENDROOT
BRANCH   2  10
ATOM      8  O   UNL     1      37.685 -24.461 -11.404  0.00  0.00    -0.434 OA
ATOM      9  O   UNL     1      38.333 -22.492 -12.323  0.00  0.00    -0.226 OA
ATOM     10  N   UNL     1      36.983 -24.033 -13.506  0.00  0.00    -0.221 N 
ATOM     11  C   UNL     1      36.729 -25.483 -11.721  0.00  0.00    +0.220 C 
ATOM     12  C   UNL     1      36.543 -25.372 -13.218  0.00  0.00    +0.148 C 
ATOM     13  C   UNL     1      37.713 -23.540 -12.428  0.00  0.00    +0.409 C 
BRANCH  11  14
ATOM     14  C   UNL     1      35.450 -25.221 -10.937  0.00  0.00    +0.183 C 
BRANCH  14  15
ATOM     15  O   UNL     1      35.792 -24.616  -9.702  0.00  0.00    -0.378 OA
ATOM     16  H   UNL     1      36.731 -24.769  -9.516  0.00  0.00    +0.211 HD
ENDBRANCH  14  15
ENDBRANCH  11  14
ENDBRANCH   2  10
BRANCH   5  18
ATOM     17  N   UNL     1      36.902 -20.051 -20.252  0.00  0.00    -0.234 NA
ATOM     18  C   UNL     1      36.106 -21.527 -18.514  0.00  0.00    +0.021 C 
ATOM     19  C   UNL     1      34.934 -21.750 -19.224  0.00  0.00    +0.004 C 
ATOM     20  C   UNL     1      37.051 -20.678 -19.063  0.00  0.00    +0.100 C 
ATOM     21  C   UNL     1      34.743 -21.122 -20.451  0.00  0.00    +0.029 C 
ATOM     22  C   UNL     1      35.748 -20.290 -20.916  0.00  0.00    +0.146 C 
BRANCH  22  27
ATOM     23  N   UNL     1      34.554 -19.778 -22.980  0.00  0.00    -0.105 NA
ATOM     24  N   UNL     1      34.914 -18.954 -23.973  0.00  0.00    -0.113 N 
ATOM     25  N   UNL     1      36.543 -18.749 -22.649  0.00  0.00    -0.085 NA
ATOM     26  N   UNL     1      36.086 -18.323 -23.819  0.00  0.00    -0.018 NA
ATOM     27  C   UNL     1      35.605 -19.616 -22.175  0.00  0.00    +0.092 C 
ATOM     28  C   UNL     1      34.091 -18.759 -25.139  0.00  0.00    +0.163 C 
ENDBRANCH  22  27
ENDBRANCH   5  18
TORSDOF 5
ENDMDL
MODEL 6
REMARK VINA RESULT:      -9.7      9.292     14.090
REMARK  Name = 11234049
REMARK  5 active torsions:
REMARK  status: ('A' for Active; 'I' for Inactive)
REMARK    1  A    between atoms: C_2  and  N_10
REMARK    2  A    between atoms: C_5  and  C_18
REMARK    3  A    between atoms: C_11  and  C_14
REMARK    4  A    between atoms: C_14  and  O_15
REMARK    5  A    between atoms: C_22  and  C_27
REMARK                            x       y       z     vdW  Elec       q    Type
REMARK                         _______ _______ _______ _____ _____    ______ ____
ROOT
ATOM      1  F   UNL     1      31.694 -12.511 -21.402  0.00  0.00    -0.204 F 
ATOM      2  C   UNL     1      32.380  -9.326 -23.022  0.00  0.00    +0.059 C 
ATOM      3  C   UNL     1      31.780 -10.296 -22.213  0.00  0.00    +0.045 C 
ATOM      4  C   UNL     1      33.489  -9.669 -23.801  0.00  0.00    +0.015 C 
ATOM      5  C   UNL     1      33.391 -11.932 -22.964  0.00  0.00    +0.029 C 
ATOM      6  C   UNL     1      32.283 -11.596 -22.184  0.00  0.00    +0.141 C 
ATOM      7  C   UNL     1      33.994 -10.968 -23.772  0.00  0.00    +0.004 C 
ENDROOT
BRANCH   2  10
ATOM      8  O   UNL     1      31.191  -5.934 -22.435  0.00  0.00    -0.434 OA
ATOM      9  O   UNL     1      32.021  -7.274 -20.805  0.00  0.00    -0.226 OA
ATOM     10  N   UNL     1      31.864  -7.998 -23.052  0.00  0.00    -0.221 N 
ATOM     11  C   UNL     1      31.160  -5.952 -23.869  0.00  0.00    +0.220 C 
ATOM     12  C   UNL     1      31.279  -7.416 -24.230  0.00  0.00    +0.148 C 
ATOM     13  C   UNL     1      31.742  -7.113 -21.984  0.00  0.00    +0.409 C 
BRANCH  11  14
ATOM     14  C   UNL     1      32.313  -5.108 -24.397  0.00  0.00    +0.183 C 
BRANCH  14  15
ATOM     15  O   UNL     1      32.964  -5.826 -25.430  0.00  0.00    -0.378 OA
ATOM     16  H   UNL     1      32.322  -6.394 -25.883  0.00  0.00    +0.211 HD
ENDBRANCH  14  15
ENDBRANCH  11  14
ENDBRANCH   2  10
BRANCH   5  18
ATOM     17  N   UNL     1      34.755 -15.142 -21.646  0.00  0.00    -0.234 NA
ATOM     18  C   UNL     1      33.918 -13.280 -22.938  0.00  0.00    +0.021 C 
ATOM     19  C   UNL     1      34.094 -14.001 -24.111  0.00  0.00    +0.004 C 
ATOM     20  C   UNL     1      34.259 -13.887 -21.741  0.00  0.00    +0.100 C 
ATOM     21  C   UNL     1      34.602 -15.294 -24.054  0.00  0.00    +0.029 C 
ATOM     22  C   UNL     1      34.914 -15.814 -22.809  0.00  0.00    +0.146 C 
BRANCH  22  27
ATOM     23  N   UNL     1      35.719 -17.722 -21.520  0.00  0.00    -0.105 NA
ATOM     24  N   UNL     1      36.166 -18.904 -21.965  0.00  0.00    -0.113 N 
ATOM     25  N   UNL     1      35.705 -17.922 -23.776  0.00  0.00    -0.085 NA
ATOM     26  N   UNL     1      36.176 -19.067 -23.296  0.00  0.00    -0.018 NA
ATOM     27  C   UNL     1      35.442 -17.142 -22.690  0.00  0.00    +0.092 C 
ATOM     28  C   UNL     1      36.612 -19.938 -21.069  0.00  0.00    +0.163 C 
ENDBRANCH  22  27
ENDBRANCH   5  18
TORSDOF 5
ENDMDL
MODEL 7
REMARK VINA RESULT:      -9.7      9.432     14.240
REMARK  Name = 11234049
REMARK  5 active torsions:
REMARK  status: ('A' for Active; 'I' for Inactive)
REMARK    1  A    between atoms: C_2  and  N_10
REMARK    2  A    between atoms: C_5  and  C_18
REMARK    3  A    between atoms: C_11  and  C_14
REMARK    4  A    between atoms: C_14  and  O_15
REMARK    5  A    between atoms: C_22  and  C_27
REMARK                            x       y       z     vdW  Elec       q    Type
REMARK                         _______ _______ _______ _____ _____    ______ ____
ROOT
ATOM      1  F   UNL     1      34.943 -11.309 -24.783  0.00  0.00    -0.204 F 
ATOM      2  C   UNL     1      32.415  -9.289 -23.118  0.00  0.00    +0.059 C 
ATOM      3  C   UNL     1      33.450  -9.667 -23.981  0.00  0.00    +0.045 C 
ATOM      4  C   UNL     1      31.886 -10.226 -22.225  0.00  0.00    +0.015 C 
ATOM      5  C   UNL     1      33.418 -11.898 -23.055  0.00  0.00    +0.029 C 
ATOM      6  C   UNL     1      33.950 -10.967 -23.949  0.00  0.00    +0.141 C 
ATOM      7  C   UNL     1      32.385 -11.527 -22.195  0.00  0.00    +0.004 C 
ENDROOT
BRANCH   2  10
ATOM      8  O   UNL     1      31.223  -5.899 -22.533  0.00  0.00    -0.434 OA
ATOM      9  O   UNL     1      32.010  -7.254 -20.895  0.00  0.00    -0.226 OA
ATOM     10  N   UNL     1      31.904  -7.960 -23.150  0.00  0.00    -0.221 N 
ATOM     11  C   UNL     1      31.225  -5.905 -23.967  0.00  0.00    +0.220 C 
ATOM     12  C   UNL     1      31.348  -7.367 -24.337  0.00  0.00    +0.148 C 
ATOM     13  C   UNL     1      31.759  -7.083 -22.078  0.00  0.00    +0.409 C 
BRANCH  11  14
ATOM     14  C   UNL     1      32.393  -5.061 -24.461  0.00  0.00    +0.183 C 
BRANCH  14  15
ATOM     15  O   UNL     1      32.981  -5.709 -25.575  0.00  0.00    -0.378 OA
ATOM     16  H   UNL     1      33.462  -5.059 -26.110  0.00  0.00    +0.211 HD
ENDBRANCH  14  15
ENDBRANCH  11  14
ENDBRANCH   2  10
BRANCH   5  18
ATOM     17  N   UNL     1      34.749 -15.112 -21.713  0.00  0.00    -0.234 NA
ATOM     18  C   UNL     1      33.935 -13.250 -23.018  0.00  0.00    +0.021 C 
ATOM     19  C   UNL     1      34.113 -13.978 -24.187  0.00  0.00    +0.004 C 
ATOM     20  C   UNL     1      34.264 -13.854 -21.817  0.00  0.00    +0.100 C 
ATOM     21  C   UNL     1      34.611 -15.274 -24.121  0.00  0.00    +0.029 C 
ATOM     22  C   UNL     1      34.911 -15.790 -22.871  0.00  0.00    +0.146 C 
BRANCH  22  27
ATOM     23  N   UNL     1      35.701 -17.695 -21.568  0.00  0.00    -0.105 NA
ATOM     24  N   UNL     1      36.138 -18.884 -22.005  0.00  0.00    -0.113 N 
ATOM     25  N   UNL     1      35.684 -17.913 -23.822  0.00  0.00    -0.085 NA
ATOM     26  N   UNL     1      36.145 -19.057 -23.334  0.00  0.00    -0.018 NA
ATOM     27  C   UNL     1      35.428 -17.123 -22.742  0.00  0.00    +0.092 C 
ATOM     28  C   UNL     1      36.576 -19.915 -21.101  0.00  0.00    +0.163 C 
ENDBRANCH  22  27
ENDBRANCH   5  18
TORSDOF 5
ENDMDL
MODEL 8
REMARK VINA RESULT:      -9.5      7.867     11.477
REMARK  Name = 11234049
REMARK  5 active torsions:
REMARK  status: ('A' for Active; 'I' for Inactive)
REMARK    1  A    between atoms: C_2  and  N_10
REMARK    2  A    between atoms: C_5  and  C_18
REMARK    3  A    between atoms: C_11  and  C_14
REMARK    4  A    between atoms: C_14  and  O_15
REMARK    5  A    between atoms: C_22  and  C_27
REMARK                            x       y       z     vdW  Elec       q    Type
REMARK                         _______ _______ _______ _____ _____    ______ ____
ROOT
ATOM      1  F   UNL     1      33.806 -13.171 -25.554  0.00  0.00    -0.204 F 
ATOM      2  C   UNL     1      34.732 -15.649 -23.054  0.00  0.00    +0.059 C 
ATOM      3  C   UNL     1      34.475 -15.051 -24.293  0.00  0.00    +0.045 C 
ATOM      4  C   UNL     1      34.559 -14.907 -21.882  0.00  0.00    +0.015 C 
ATOM      5  C   UNL     1      33.876 -12.990 -23.184  0.00  0.00    +0.029 C 
ATOM      6  C   UNL     1      34.048 -13.726 -24.358  0.00  0.00    +0.141 C 
ATOM      7  C   UNL     1      34.133 -13.581 -21.947  0.00  0.00    +0.004 C 
ENDROOT
BRANCH   2  10
ATOM      8  O   UNL     1      35.791 -19.096 -23.559  0.00  0.00    -0.434 OA
ATOM      9  O   UNL     1      35.223 -17.695 -25.250  0.00  0.00    -0.226 OA
ATOM     10  N   UNL     1      35.168 -17.003 -22.988  0.00  0.00    -0.221 N 
ATOM     11  C   UNL     1      36.082 -18.961 -22.162  0.00  0.00    +0.220 C 
ATOM     12  C   UNL     1      35.351 -17.703 -21.745  0.00  0.00    +0.148 C 
ATOM     13  C   UNL     1      35.379 -17.877 -24.052  0.00  0.00    +0.409 C 
BRANCH  11  14
ATOM     14  C   UNL     1      37.591 -18.866 -21.979  0.00  0.00    +0.183 C 
BRANCH  14  15
ATOM     15  O   UNL     1      37.871 -18.698 -20.600  0.00  0.00    -0.378 OA
ATOM     16  H   UNL     1      37.351 -19.335 -20.085  0.00  0.00    +0.211 HD
ENDBRANCH  14  15
ENDBRANCH  11  14
ENDBRANCH   2  10
BRANCH   5  18
ATOM     17  N   UNL     1      31.834  -9.930 -22.581  0.00  0.00    -0.234 NA
ATOM     18  C   UNL     1      33.433 -11.613 -23.246  0.00  0.00    +0.021 C 
ATOM     19  C   UNL     1      34.133 -10.671 -23.988  0.00  0.00    +0.004 C 
ATOM     20  C   UNL     1      32.301 -11.199 -22.566  0.00  0.00    +0.100 C 
ATOM     21  C   UNL     1      33.683  -9.356 -24.028  0.00  0.00    +0.029 C 
ATOM     22  C   UNL     1      32.539  -9.040 -23.314  0.00  0.00    +0.146 C 
BRANCH  22  27
ATOM     23  N   UNL     1      31.501  -7.107 -22.247  0.00  0.00    -0.105 NA
ATOM     24  N   UNL     1      31.197  -5.918 -22.783  0.00  0.00    -0.113 N 
ATOM     25  N   UNL     1      32.044  -6.918 -24.437  0.00  0.00    -0.085 NA
ATOM     26  N   UNL     1      31.501  -5.761 -24.080  0.00  0.00    -0.018 NA
ATOM     27  C   UNL     1      32.029  -7.698 -23.321  0.00  0.00    +0.092 C 
ATOM     28  C   UNL     1      30.579  -4.869 -22.014  0.00  0.00    +0.163 C 
ENDBRANCH  22  27
ENDBRANCH   5  18
TORSDOF 5
ENDMDL
MODEL 9
REMARK VINA RESULT:      -9.4     10.367     14.782
REMARK  Name = 11234049
REMARK  5 active torsions:
REMARK  status: ('A' for Active; 'I' for Inactive)
REMARK    1  A    between atoms: C_2  and  N_10
REMARK    2  A    between atoms: C_5  and  C_18
REMARK    3  A    between atoms: C_11  and  C_14
REMARK    4  A    between atoms: C_14  and  O_15
REMARK    5  A    between atoms: C_22  and  C_27
REMARK                            x       y       z     vdW  Elec       q    Type
REMARK                         _______ _______ _______ _____ _____    ______ ____
ROOT
ATOM      1  F   UNL     1      31.654 -11.528 -22.519  0.00  0.00    -0.204 F 
ATOM      2  C   UNL     1      33.176  -8.325 -23.336  0.00  0.00    +0.059 C 
ATOM      3  C   UNL     1      32.281  -9.274 -22.830  0.00  0.00    +0.045 C 
ATOM      4  C   UNL     1      34.316  -8.752 -24.024  0.00  0.00    +0.015 C 
ATOM      5  C   UNL     1      33.664 -11.055 -23.698  0.00  0.00    +0.029 C 
ATOM      6  C   UNL     1      32.524 -10.635 -23.010  0.00  0.00    +0.141 C 
ATOM      7  C   UNL     1      34.560 -10.113 -24.203  0.00  0.00    +0.004 C 
ENDROOT
BRANCH   2  10
ATOM      8  O   UNL     1      32.657  -4.727 -23.531  0.00  0.00    -0.434 OA
ATOM      9  O   UNL     1      33.190  -6.018 -25.318  0.00  0.00    -0.226 OA
ATOM     10  N   UNL     1      32.927  -6.935 -23.153  0.00  0.00    -0.221 N 
ATOM     11  C   UNL     1      32.214  -4.958 -22.187  0.00  0.00    +0.220 C 
ATOM     12  C   UNL     1      32.720  -6.345 -21.858  0.00  0.00    +0.148 C 
ATOM     13  C   UNL     1      32.944  -5.937 -24.123  0.00  0.00    +0.409 C 
BRANCH  11  14
ATOM     14  C   UNL     1      30.696  -4.846 -22.142  0.00  0.00    +0.183 C 
BRANCH  14  15
ATOM     15  O   UNL     1      30.333  -3.497 -22.378  0.00  0.00    -0.378 OA
ATOM     16  H   UNL     1      29.568  -3.468 -22.972  0.00  0.00    +0.211 HD
ENDBRANCH  14  15
ENDBRANCH  11  14
ENDBRANCH   2  10
BRANCH   5  18
ATOM     17  N   UNL     1      33.896 -14.389 -25.350  0.00  0.00    -0.234 NA
ATOM     18  C   UNL     1      33.921 -12.467 -23.888  0.00  0.00    +0.021 C 
ATOM     19  C   UNL     1      34.419 -13.247 -22.853  0.00  0.00    +0.004 C 
ATOM     20  C   UNL     1      33.678 -13.077 -25.106  0.00  0.00    +0.100 C 
ATOM     21  C   UNL     1      34.656 -14.601 -23.065  0.00  0.00    +0.029 C 
ATOM     22  C   UNL     1      34.381 -15.118 -24.320  0.00  0.00    +0.146 C 
BRANCH  22  27
ATOM     23  N   UNL     1      35.085 -17.368 -23.694  0.00  0.00    -0.105 NA
ATOM     24  N   UNL     1      35.097 -18.480 -24.442  0.00  0.00    -0.113 N 
ATOM     25  N   UNL     1      34.344 -17.063 -25.812  0.00  0.00    -0.085 NA
ATOM     26  N   UNL     1      34.666 -18.345 -25.704  0.00  0.00    -0.018 NA
ATOM     27  C   UNL     1      34.605 -16.508 -24.595  0.00  0.00    +0.092 C 
ATOM     28  C   UNL     1      35.548 -19.744 -23.921  0.00  0.00    +0.163 C 
ENDBRANCH  22  27
ENDBRANCH   5  18
TORSDOF 5
ENDMDL
