MODEL 1
REMARK VINA RESULT:     -11.0      0.000      0.000
REMARK  Name = 24764434
REMARK  8 active torsions:
REMARK  status: ('A' for Active; 'I' for Inactive)
REMARK    1  A    between atoms: C_1  and  N_4
REMARK    2  A    between atoms: C_1  and  C_17
REMARK    3  A    between atoms: C_1  and  C_28
REMARK    4  A    between atoms: C_11  and  C_14
REMARK    5  A    between atoms: C_14  and  O_15
REMARK    6  A    between atoms: C_17  and  C_18
REMARK    7  A    between atoms: C_28  and  C_30
REMARK    8  A    between atoms: C_30  and  O_31
REMARK                            x       y       z     vdW  Elec       q    Type
REMARK                         _______ _______ _______ _____ _____    ______ ____
ROOT
ATOM      1  C   UNL     1      33.819 -12.502 -23.442  0.00  0.00    +0.098 C 
ENDROOT
BRANCH   1   4
ATOM      2  O   UNL     1      34.830 -14.010 -21.077  0.00  0.00    -0.269 OA
ATOM      3  O   UNL     1      33.952 -14.566 -25.591  0.00  0.00    -0.269 OA
ATOM      4  N   UNL     1      34.268 -13.877 -23.360  0.00  0.00    -0.224 N 
ATOM      5  C   UNL     1      34.722 -14.466 -22.199  0.00  0.00    +0.255 C 
ATOM      6  C   UNL     1      34.288 -14.741 -24.435  0.00  0.00    +0.255 C 
ATOM      7  C   UNL     1      35.076 -15.837 -22.565  0.00  0.00    +0.059 C 
ATOM      8  C   UNL     1      34.814 -16.004 -23.916  0.00  0.00    +0.058 C 
ATOM      9  C   UNL     1      35.585 -16.859 -21.788  0.00  0.00    +0.011 C 
ATOM     10  C   UNL     1      35.044 -17.201 -24.564  0.00  0.00    +0.005 C 
ATOM     11  C   UNL     1      35.827 -18.081 -22.423  0.00  0.00    +0.076 C 
ATOM     12  C   UNL     1      35.560 -18.250 -23.797  0.00  0.00    +0.007 C 
BRANCH  11  14
ATOM     13  O   UNL     1      35.720 -20.186 -21.291  0.00  0.00    -0.245 OA
ATOM     14  C   UNL     1      36.361 -19.195 -21.656  0.00  0.00    +0.338 C 
BRANCH  14  15
ATOM     15  O   UNL     1      37.683 -19.042 -21.367  0.00  0.00    -0.477 OA
ATOM     16  H   UNL     1      38.317 -19.055 -22.056  0.00  0.00    +0.295 HD
ENDBRANCH  14  15
ENDBRANCH  11  14
ENDBRANCH   1   4
BRANCH   1  17
ATOM     17  C   UNL     1      32.361 -12.365 -22.950  0.00  0.00    +0.047 C 
BRANCH  17  18
ATOM     18  C   UNL     1      32.182 -11.689 -21.612  0.00  0.00    -0.020 C 
ATOM     19  C   UNL     1      32.166 -10.290 -21.480  0.00  0.00    -0.004 C 
ATOM     20  C   UNL     1      32.030 -12.511 -20.494  0.00  0.00    -0.004 C 
ATOM     21  C   UNL     1      31.994  -9.717 -20.198  0.00  0.00    -0.000 C 
ATOM     22  C   UNL     1      32.318  -9.448 -22.595  0.00  0.00    -0.000 C 
ATOM     23  C   UNL     1      31.861 -11.947 -19.233  0.00  0.00    -0.000 C 
ATOM     24  C   UNL     1      31.843 -10.560 -19.084  0.00  0.00    -0.000 C 
ATOM     25  C   UNL     1      31.978  -8.320 -20.067  0.00  0.00    -0.000 C 
ATOM     26  C   UNL     1      32.299  -8.061 -22.445  0.00  0.00    -0.000 C 
ATOM     27  C   UNL     1      32.130  -7.498 -21.184  0.00  0.00    -0.000 C 
ENDBRANCH  17  18
ENDBRANCH   1  17
BRANCH   1  28
ATOM     28  C   UNL     1      34.074 -11.947 -24.851  0.00  0.00    +0.130 C 
BRANCH  28  30
ATOM     29  O   UNL     1      35.047  -9.896 -23.975  0.00  0.00    -0.250 OA
ATOM     30  C   UNL     1      34.975 -10.732 -24.864  0.00  0.00    +0.316 C 
BRANCH  30  31
ATOM     31  O   UNL     1      35.745 -10.689 -25.983  0.00  0.00    -0.480 OA
ATOM     32  H   UNL     1      35.944 -11.480 -26.444  0.00  0.00    +0.295 HD
ENDBRANCH  30  31
ENDBRANCH  28  30
ENDBRANCH   1  28
TORSDOF 8
ENDMDL
MODEL 2
REMARK VINA RESULT:     -11.0     11.656     14.207
REMARK  Name = 24764434
REMARK  8 active torsions:
REMARK  status: ('A' for Active; 'I' for Inactive)
REMARK    1  A    between atoms: C_1  and  N_4
REMARK    2  A    between atoms: C_1  and  C_17
REMARK    3  A    between atoms: C_1  and  C_28
REMARK    4  A    between atoms: C_11  and  C_14
REMARK    5  A    between atoms: C_14  and  O_15
REMARK    6  A    between atoms: C_17  and  C_18
REMARK    7  A    between atoms: C_28  and  C_30
REMARK    8  A    between atoms: C_30  and  O_31
REMARK                            x       y       z     vdW  Elec       q    Type
REMARK                         _______ _______ _______ _____ _____    ______ ____
ROOT
ATOM      1  C   UNL     1      33.612 -24.724 -14.721  0.00  0.00    +0.098 C 
ENDROOT
BRANCH   1   4
ATOM      2  O   UNL     1      35.640 -26.150 -16.379  0.00  0.00    -0.269 OA
ATOM      3  O   UNL     1      35.246 -23.814 -12.397  0.00  0.00    -0.269 OA
ATOM      4  N   UNL     1      35.022 -24.931 -14.460  0.00  0.00    -0.224 N 
ATOM      5  C   UNL     1      35.865 -25.617 -15.309  0.00  0.00    +0.255 C 
ATOM      6  C   UNL     1      35.669 -24.461 -13.337  0.00  0.00    +0.255 C 
ATOM      7  C   UNL     1      37.177 -25.594 -14.664  0.00  0.00    +0.059 C 
ATOM      8  C   UNL     1      37.060 -24.896 -13.472  0.00  0.00    +0.058 C 
ATOM      9  C   UNL     1      38.378 -26.136 -15.078  0.00  0.00    +0.011 C 
ATOM     10  C   UNL     1      38.136 -24.700 -12.630  0.00  0.00    +0.005 C 
ATOM     11  C   UNL     1      39.483 -25.950 -14.241  0.00  0.00    +0.076 C 
ATOM     12  C   UNL     1      39.362 -25.240 -13.029  0.00  0.00    +0.007 C 
BRANCH  11  14
ATOM     13  O   UNL     1      41.578 -27.039 -13.859  0.00  0.00    -0.245 OA
ATOM     14  C   UNL     1      40.775 -26.496 -14.625  0.00  0.00    +0.338 C 
BRANCH  14  15
ATOM     15  O   UNL     1      41.027 -26.351 -15.954  0.00  0.00    -0.477 OA
ATOM     16  H   UNL     1      41.837 -26.651 -16.313  0.00  0.00    +0.295 HD
ENDBRANCH  14  15
ENDBRANCH  11  14
ENDBRANCH   1   4
BRANCH   1  17
ATOM     17  C   UNL     1      33.346 -23.290 -15.229  0.00  0.00    +0.047 C 
BRANCH  17  18
ATOM     18  C   UNL     1      33.836 -22.988 -16.625  0.00  0.00    -0.020 C 
ATOM     19  C   UNL     1      35.140 -22.527 -16.873  0.00  0.00    -0.004 C 
ATOM     20  C   UNL     1      32.939 -23.184 -17.675  0.00  0.00    -0.004 C 
ATOM     21  C   UNL     1      35.539 -22.262 -18.204  0.00  0.00    -0.000 C 
ATOM     22  C   UNL     1      36.056 -22.324 -15.827  0.00  0.00    -0.000 C 
ATOM     23  C   UNL     1      33.331 -22.924 -18.985  0.00  0.00    -0.000 C 
ATOM     24  C   UNL     1      34.623 -22.465 -19.250  0.00  0.00    -0.000 C 
ATOM     25  C   UNL     1      36.842 -21.801 -18.452  0.00  0.00    -0.000 C 
ATOM     26  C   UNL     1      37.347 -21.866 -16.092  0.00  0.00    -0.000 C 
ATOM     27  C   UNL     1      37.739 -21.605 -17.402  0.00  0.00    -0.000 C 
ENDBRANCH  17  18
ENDBRANCH   1  17
BRANCH   1  28
ATOM     28  C   UNL     1      32.784 -25.133 -13.494  0.00  0.00    +0.130 C 
BRANCH  28  30
ATOM     29  O   UNL     1      30.839 -25.793 -14.798  0.00  0.00    -0.250 OA
ATOM     30  C   UNL     1      31.309 -25.288 -13.789  0.00  0.00    +0.316 C 
BRANCH  30  31
ATOM     31  O   UNL     1      30.541 -24.827 -12.767  0.00  0.00    -0.480 OA
ATOM     32  H   UNL     1      30.896 -24.214 -12.154  0.00  0.00    +0.295 HD
ENDBRANCH  30  31
ENDBRANCH  28  30
ENDBRANCH   1  28
TORSDOF 8
ENDMDL
MODEL 3
REMARK VINA RESULT:     -10.7      0.547      2.072
REMARK  Name = 24764434
REMARK  8 active torsions:
REMARK  status: ('A' for Active; 'I' for Inactive)
REMARK    1  A    between atoms: C_1  and  N_4
REMARK    2  A    between atoms: C_1  and  C_17
REMARK    3  A    between atoms: C_1  and  C_28
REMARK    4  A    between atoms: C_11  and  C_14
REMARK    5  A    between atoms: C_14  and  O_15
REMARK    6  A    between atoms: C_17  and  C_18
REMARK    7  A    between atoms: C_28  and  C_30
REMARK    8  A    between atoms: C_30  and  O_31
REMARK                            x       y       z     vdW  Elec       q    Type
REMARK                         _______ _______ _______ _____ _____    ______ ____
ROOT
ATOM      1  C   UNL     1      34.015 -12.339 -23.917  0.00  0.00    +0.098 C 
ENDROOT
BRANCH   1   4
ATOM      2  O   UNL     1      34.992 -13.778 -21.495  0.00  0.00    -0.269 OA
ATOM      3  O   UNL     1      33.966 -14.521 -25.951  0.00  0.00    -0.269 OA
ATOM      4  N   UNL     1      34.381 -13.733 -23.770  0.00  0.00    -0.224 N 
ATOM      5  C   UNL     1      34.828 -14.286 -22.587  0.00  0.00    +0.255 C 
ATOM      6  C   UNL     1      34.320 -14.654 -24.794  0.00  0.00    +0.255 C 
ATOM      7  C   UNL     1      35.088 -15.694 -22.885  0.00  0.00    +0.059 C 
ATOM      8  C   UNL     1      34.781 -15.917 -24.219  0.00  0.00    +0.058 C 
ATOM      9  C   UNL     1      35.552 -16.702 -22.064  0.00  0.00    +0.011 C 
ATOM     10  C   UNL     1      34.921 -17.159 -24.803  0.00  0.00    +0.005 C 
ATOM     11  C   UNL     1      35.703 -17.970 -22.635  0.00  0.00    +0.076 C 
ATOM     12  C   UNL     1      35.391 -18.195 -23.991  0.00  0.00    +0.007 C 
BRANCH  11  14
ATOM     13  O   UNL     1      35.492 -19.991 -21.372  0.00  0.00    -0.245 OA
ATOM     14  C   UNL     1      36.187 -19.072 -21.819  0.00  0.00    +0.338 C 
BRANCH  14  15
ATOM     15  O   UNL     1      37.526 -18.998 -21.586  0.00  0.00    -0.477 OA
ATOM     16  H   UNL     1      37.900 -18.207 -21.252  0.00  0.00    +0.295 HD
ENDBRANCH  14  15
ENDBRANCH  11  14
ENDBRANCH   1   4
BRANCH   1  17
ATOM     17  C   UNL     1      32.564 -12.095 -23.450  0.00  0.00    +0.047 C 
BRANCH  17  18
ATOM     18  C   UNL     1      32.356 -10.895 -22.556  0.00  0.00    -0.020 C 
ATOM     19  C   UNL     1      32.131 -11.024 -21.176  0.00  0.00    -0.004 C 
ATOM     20  C   UNL     1      32.397  -9.636 -23.156  0.00  0.00    -0.004 C 
ATOM     21  C   UNL     1      31.943  -9.861 -20.393  0.00  0.00    -0.000 C 
ATOM     22  C   UNL     1      32.086 -12.284 -20.556  0.00  0.00    -0.000 C 
ATOM     23  C   UNL     1      32.213  -8.491 -22.386  0.00  0.00    -0.000 C 
ATOM     24  C   UNL     1      31.987  -8.601 -21.013  0.00  0.00    -0.000 C 
ATOM     25  C   UNL     1      31.718  -9.990 -19.014  0.00  0.00    -0.000 C 
ATOM     26  C   UNL     1      31.861 -12.394 -19.184  0.00  0.00    -0.000 C 
ATOM     27  C   UNL     1      31.677 -11.249 -18.414  0.00  0.00    -0.000 C 
ENDBRANCH  17  18
ENDBRANCH   1  17
BRANCH   1  28
ATOM     28  C   UNL     1      34.316 -11.864 -25.346  0.00  0.00    +0.130 C 
BRANCH  28  30
ATOM     29  O   UNL     1      35.966 -10.417 -26.397  0.00  0.00    -0.250 OA
ATOM     30  C   UNL     1      35.330 -10.743 -25.406  0.00  0.00    +0.316 C 
BRANCH  30  31
ATOM     31  O   UNL     1      35.432 -10.095 -24.215  0.00  0.00    -0.480 OA
ATOM     32  H   UNL     1      36.218 -10.163 -23.712  0.00  0.00    +0.295 HD
ENDBRANCH  30  31
ENDBRANCH  28  30
ENDBRANCH   1  28
TORSDOF 8
ENDMDL
MODEL 4
REMARK VINA RESULT:     -10.7      7.748     12.238
REMARK  Name = 24764434
REMARK  8 active torsions:
REMARK  status: ('A' for Active; 'I' for Inactive)
REMARK    1  A    between atoms: C_1  and  N_4
REMARK    2  A    between atoms: C_1  and  C_17
REMARK    3  A    between atoms: C_1  and  C_28
REMARK    4  A    between atoms: C_11  and  C_14
REMARK    5  A    between atoms: C_14  and  O_15
REMARK    6  A    between atoms: C_17  and  C_18
REMARK    7  A    between atoms: C_28  and  C_30
REMARK    8  A    between atoms: C_30  and  O_31
REMARK                            x       y       z     vdW  Elec       q    Type
REMARK                         _______ _______ _______ _____ _____    ______ ____
ROOT
ATOM      1  C   UNL     1      34.683 -23.386 -16.709  0.00  0.00    +0.098 C 
ENDROOT
BRANCH   1   4
ATOM      2  O   UNL     1      37.158 -22.051 -17.704  0.00  0.00    -0.269 OA
ATOM      3  O   UNL     1      32.682 -22.590 -18.773  0.00  0.00    -0.269 OA
ATOM      4  N   UNL     1      34.864 -22.557 -17.884  0.00  0.00    -0.224 N 
ATOM      5  C   UNL     1      36.068 -21.987 -18.241  0.00  0.00    +0.255 C 
ATOM      6  C   UNL     1      33.851 -22.253 -18.769  0.00  0.00    +0.255 C 
ATOM      7  C   UNL     1      35.800 -21.236 -19.467  0.00  0.00    +0.059 C 
ATOM      8  C   UNL     1      34.461 -21.397 -19.787  0.00  0.00    +0.058 C 
ATOM      9  C   UNL     1      36.651 -20.476 -20.244  0.00  0.00    +0.011 C 
ATOM     10  C   UNL     1      33.900 -20.807 -20.902  0.00  0.00    +0.005 C 
ATOM     11  C   UNL     1      36.104 -19.868 -21.378  0.00  0.00    +0.076 C 
ATOM     12  C   UNL     1      34.742 -20.031 -21.703  0.00  0.00    +0.007 C 
BRANCH  11  14
ATOM     13  O   UNL     1      38.124 -18.744 -21.998  0.00  0.00    -0.245 OA
ATOM     14  C   UNL     1      36.952 -19.055 -22.237  0.00  0.00    +0.338 C 
BRANCH  14  15
ATOM     15  O   UNL     1      36.313 -18.654 -23.369  0.00  0.00    -0.477 OA
ATOM     16  H   UNL     1      36.205 -19.250 -24.083  0.00  0.00    +0.295 HD
ENDBRANCH  14  15
ENDBRANCH  11  14
ENDBRANCH   1   4
BRANCH   1  17
ATOM     17  C   UNL     1      33.693 -22.735 -15.719  0.00  0.00    +0.047 C 
BRANCH  17  18
ATOM     18  C   UNL     1      32.653 -23.659 -15.130  0.00  0.00    -0.020 C 
ATOM     19  C   UNL     1      31.318 -23.651 -15.567  0.00  0.00    -0.004 C 
ATOM     20  C   UNL     1      33.068 -24.532 -14.125  0.00  0.00    -0.004 C 
ATOM     21  C   UNL     1      30.390 -24.541 -14.975  0.00  0.00    -0.000 C 
ATOM     22  C   UNL     1      30.883 -22.778 -16.578  0.00  0.00    -0.000 C 
ATOM     23  C   UNL     1      32.156 -25.409 -13.543  0.00  0.00    -0.000 C 
ATOM     24  C   UNL     1      30.825 -25.414 -13.964  0.00  0.00    -0.000 C 
ATOM     25  C   UNL     1      29.056 -24.533 -15.411  0.00  0.00    -0.000 C 
ATOM     26  C   UNL     1      29.553 -22.783 -16.999  0.00  0.00    -0.000 C 
ATOM     27  C   UNL     1      28.641 -23.660 -16.417  0.00  0.00    -0.000 C 
ENDBRANCH  17  18
ENDBRANCH   1  17
BRANCH   1  28
ATOM     28  C   UNL     1      36.048 -23.748 -16.106  0.00  0.00    +0.130 C 
BRANCH  28  30
ATOM     29  O   UNL     1      35.798 -26.167 -16.011  0.00  0.00    -0.250 OA
ATOM     30  C   UNL     1      36.073 -25.113 -15.455  0.00  0.00    +0.316 C 
BRANCH  30  31
ATOM     31  O   UNL     1      36.484 -25.045 -14.161  0.00  0.00    -0.480 OA
ATOM     32  H   UNL     1      35.870 -25.186 -13.468  0.00  0.00    +0.295 HD
ENDBRANCH  30  31
ENDBRANCH  28  30
ENDBRANCH   1  28
TORSDOF 8
ENDMDL
MODEL 5
REMARK VINA RESULT:     -10.6      1.785      3.041
REMARK  Name = 24764434
REMARK  8 active torsions:
REMARK  status: ('A' for Active; 'I' for Inactive)
REMARK    1  A    between atoms: C_1  and  N_4
REMARK    2  A    between atoms: C_1  and  C_17
REMARK    3  A    between atoms: C_1  and  C_28
REMARK    4  A    between atoms: C_11  and  C_14
REMARK    5  A    between atoms: C_14  and  O_15
REMARK    6  A    between atoms: C_17  and  C_18
REMARK    7  A    between atoms: C_28  and  C_30
REMARK    8  A    between atoms: C_30  and  O_31
REMARK                            x       y       z     vdW  Elec       q    Type
REMARK                         _______ _______ _______ _____ _____    ______ ____
ROOT
ATOM      1  C   UNL     1      34.003 -13.754 -25.131  0.00  0.00    +0.098 C 
ENDROOT
BRANCH   1   4
ATOM      2  O   UNL     1      34.993 -14.288 -22.369  0.00  0.00    -0.269 OA
ATOM      3  O   UNL     1      34.148 -16.463 -26.371  0.00  0.00    -0.269 OA
ATOM      4  N   UNL     1      34.449 -15.003 -24.547  0.00  0.00    -0.224 N 
ATOM      5  C   UNL     1      34.892 -15.124 -23.247  0.00  0.00    +0.255 C 
ATOM      6  C   UNL     1      34.475 -16.201 -25.229  0.00  0.00    +0.255 C 
ATOM      7  C   UNL     1      35.246 -16.534 -23.081  0.00  0.00    +0.059 C 
ATOM      8  C   UNL     1      34.994 -17.185 -24.279  0.00  0.00    +0.058 C 
ATOM      9  C   UNL     1      35.747 -17.199 -21.980  0.00  0.00    +0.011 C 
ATOM     10  C   UNL     1      35.227 -18.536 -24.440  0.00  0.00    +0.005 C 
ATOM     11  C   UNL     1      35.991 -18.568 -22.119  0.00  0.00    +0.076 C 
ATOM     12  C   UNL     1      35.734 -19.229 -23.338  0.00  0.00    +0.007 C 
BRANCH  11  14
ATOM     13  O   UNL     1      37.622 -19.149 -20.469  0.00  0.00    -0.245 OA
ATOM     14  C   UNL     1      36.517 -19.323 -20.993  0.00  0.00    +0.338 C 
BRANCH  14  15
ATOM     15  O   UNL     1      35.647 -20.272 -20.551  0.00  0.00    -0.477 OA
ATOM     16  H   UNL     1      35.719 -21.153 -20.859  0.00  0.00    +0.295 HD
ENDBRANCH  14  15
ENDBRANCH  11  14
ENDBRANCH   1   4
BRANCH   1  17
ATOM     17  C   UNL     1      33.441 -12.806 -24.050  0.00  0.00    +0.047 C 
BRANCH  17  18
ATOM     18  C   UNL     1      33.931 -11.378 -24.110  0.00  0.00    -0.020 C 
ATOM     19  C   UNL     1      33.346 -10.358 -23.343  0.00  0.00    -0.004 C 
ATOM     20  C   UNL     1      35.000 -11.104 -24.964  0.00  0.00    -0.004 C 
ATOM     21  C   UNL     1      33.851  -9.040 -23.444  0.00  0.00    -0.000 C 
ATOM     22  C   UNL     1      32.269 -10.616 -22.479  0.00  0.00    -0.000 C 
ATOM     23  C   UNL     1      35.498  -9.808 -25.063  0.00  0.00    -0.000 C 
ATOM     24  C   UNL     1      34.928  -8.781 -24.309  0.00  0.00    -0.000 C 
ATOM     25  C   UNL     1      33.267  -8.019 -22.678  0.00  0.00    -0.000 C 
ATOM     26  C   UNL     1      31.700  -9.590 -21.725  0.00  0.00    -0.000 C 
ATOM     27  C   UNL     1      32.198  -8.293 -21.824  0.00  0.00    -0.000 C 
ENDBRANCH  17  18
ENDBRANCH   1  17
BRANCH   1  28
ATOM     28  C   UNL     1      33.047 -14.031 -26.301  0.00  0.00    +0.130 C 
BRANCH  28  30
ATOM     29  O   UNL     1      34.534 -13.546 -28.165  0.00  0.00    -0.250 OA
ATOM     30  C   UNL     1      33.469 -13.366 -27.592  0.00  0.00    +0.316 C 
BRANCH  30  31
ATOM     31  O   UNL     1      32.495 -12.554 -28.080  0.00  0.00    -0.480 OA
ATOM     32  H   UNL     1      32.343 -11.718 -27.688  0.00  0.00    +0.295 HD
ENDBRANCH  30  31
ENDBRANCH  28  30
ENDBRANCH   1  28
TORSDOF 8
ENDMDL
MODEL 6
REMARK VINA RESULT:     -10.5     11.695     14.573
REMARK  Name = 24764434
REMARK  8 active torsions:
REMARK  status: ('A' for Active; 'I' for Inactive)
REMARK    1  A    between atoms: C_1  and  N_4
REMARK    2  A    between atoms: C_1  and  C_17
REMARK    3  A    between atoms: C_1  and  C_28
REMARK    4  A    between atoms: C_11  and  C_14
REMARK    5  A    between atoms: C_14  and  O_15
REMARK    6  A    between atoms: C_17  and  C_18
REMARK    7  A    between atoms: C_28  and  C_30
REMARK    8  A    between atoms: C_30  and  O_31
REMARK                            x       y       z     vdW  Elec       q    Type
REMARK                         _______ _______ _______ _____ _____    ______ ____
ROOT
ATOM      1  C   UNL     1      35.012 -24.045 -15.718  0.00  0.00    +0.098 C 
ENDROOT
BRANCH   1   4
ATOM      2  O   UNL     1      33.274 -23.374 -18.047  0.00  0.00    -0.269 OA
ATOM      3  O   UNL     1      33.039 -24.135 -13.483  0.00  0.00    -0.269 OA
ATOM      4  N   UNL     1      33.582 -23.813 -15.753  0.00  0.00    -0.224 N 
ATOM      5  C   UNL     1      32.885 -23.502 -16.902  0.00  0.00    +0.255 C 
ATOM      6  C   UNL     1      32.769 -23.878 -14.642  0.00  0.00    +0.255 C 
ATOM      7  C   UNL     1      31.492 -23.344 -16.486  0.00  0.00    +0.059 C 
ATOM      8  C   UNL     1      31.421 -23.571 -15.120  0.00  0.00    +0.058 C 
ATOM      9  C   UNL     1      30.374 -23.029 -17.233  0.00  0.00    +0.011 C 
ATOM     10  C   UNL     1      30.230 -23.497 -14.427  0.00  0.00    +0.005 C 
ATOM     11  C   UNL     1      29.156 -22.948 -16.552  0.00  0.00    +0.076 C 
ATOM     12  C   UNL     1      29.085 -23.179 -15.163  0.00  0.00    +0.007 C 
BRANCH  11  14
ATOM     13  O   UNL     1      27.359 -21.532 -17.255  0.00  0.00    -0.245 OA
ATOM     14  C   UNL     1      27.943 -22.621 -17.286  0.00  0.00    +0.338 C 
BRANCH  14  15
ATOM     15  O   UNL     1      27.495 -23.662 -18.040  0.00  0.00    -0.477 OA
ATOM     16  H   UNL     1      27.594 -23.643 -18.971  0.00  0.00    +0.295 HD
ENDBRANCH  14  15
ENDBRANCH  11  14
ENDBRANCH   1   4
BRANCH   1  17
ATOM     17  C   UNL     1      35.378 -25.086 -14.638  0.00  0.00    +0.047 C 
BRANCH  17  18
ATOM     18  C   UNL     1      36.532 -24.717 -13.736  0.00  0.00    -0.020 C 
ATOM     19  C   UNL     1      37.845 -25.144 -13.993  0.00  0.00    -0.004 C 
ATOM     20  C   UNL     1      36.246 -23.926 -12.622  0.00  0.00    -0.004 C 
ATOM     21  C   UNL     1      38.883 -24.764 -13.109  0.00  0.00    -0.000 C 
ATOM     22  C   UNL     1      38.150 -25.941 -15.109  0.00  0.00    -0.000 C 
ATOM     23  C   UNL     1      37.266 -23.551 -11.753  0.00  0.00    -0.000 C 
ATOM     24  C   UNL     1      38.577 -23.967 -11.993  0.00  0.00    -0.000 C 
ATOM     25  C   UNL     1      40.195 -25.191 -13.366  0.00  0.00    -0.000 C 
ATOM     26  C   UNL     1      39.460 -26.356 -15.349  0.00  0.00    -0.000 C 
ATOM     27  C   UNL     1      40.481 -25.981 -14.480  0.00  0.00    -0.000 C 
ENDBRANCH  17  18
ENDBRANCH   1  17
BRANCH   1  28
ATOM     28  C   UNL     1      35.760 -22.709 -15.600  0.00  0.00    +0.130 C 
BRANCH  28  30
ATOM     29  O   UNL     1      37.956 -22.372 -16.593  0.00  0.00    -0.250 OA
ATOM     30  C   UNL     1      36.745 -22.471 -16.723  0.00  0.00    +0.316 C 
BRANCH  30  31
ATOM     31  O   UNL     1      36.124 -22.414 -17.931  0.00  0.00    -0.480 OA
ATOM     32  H   UNL     1      36.620 -22.229 -18.704  0.00  0.00    +0.295 HD
ENDBRANCH  30  31
ENDBRANCH  28  30
ENDBRANCH   1  28
TORSDOF 8
ENDMDL
MODEL 7
REMARK VINA RESULT:     -10.4      7.718     12.422
REMARK  Name = 24764434
REMARK  8 active torsions:
REMARK  status: ('A' for Active; 'I' for Inactive)
REMARK    1  A    between atoms: C_1  and  N_4
REMARK    2  A    between atoms: C_1  and  C_17
REMARK    3  A    between atoms: C_1  and  C_28
REMARK    4  A    between atoms: C_11  and  C_14
REMARK    5  A    between atoms: C_14  and  O_15
REMARK    6  A    between atoms: C_17  and  C_18
REMARK    7  A    between atoms: C_28  and  C_30
REMARK    8  A    between atoms: C_30  and  O_31
REMARK                            x       y       z     vdW  Elec       q    Type
REMARK                         _______ _______ _______ _____ _____    ______ ____
ROOT
ATOM      1  C   UNL     1      34.697 -23.516 -16.489  0.00  0.00    +0.098 C 
ENDROOT
BRANCH   1   4
ATOM      2  O   UNL     1      33.057 -22.709 -18.845  0.00  0.00    -0.269 OA
ATOM      3  O   UNL     1      37.286 -22.141 -17.040  0.00  0.00    -0.269 OA
ATOM      4  N   UNL     1      35.066 -22.682 -17.614  0.00  0.00    -0.224 N 
ATOM      5  C   UNL     1      34.213 -22.380 -18.656  0.00  0.00    +0.255 C 
ATOM      6  C   UNL     1      36.307 -22.100 -17.762  0.00  0.00    +0.255 C 
ATOM      7  C   UNL     1      34.984 -21.532 -19.564  0.00  0.00    +0.059 C 
ATOM      8  C   UNL     1      36.250 -21.362 -19.024  0.00  0.00    +0.058 C 
ATOM      9  C   UNL     1      34.618 -20.953 -20.762  0.00  0.00    +0.011 C 
ATOM     10  C   UNL     1      37.217 -20.603 -19.652  0.00  0.00    +0.005 C 
ATOM     11  C   UNL     1      35.581 -20.180 -21.417  0.00  0.00    +0.076 C 
ATOM     12  C   UNL     1      36.868 -20.008 -20.867  0.00  0.00    +0.007 C 
BRANCH  11  14
ATOM     13  O   UNL     1      34.160 -19.611 -23.256  0.00  0.00    -0.245 OA
ATOM     14  C   UNL     1      35.253 -19.543 -22.682  0.00  0.00    +0.338 C 
BRANCH  14  15
ATOM     15  O   UNL     1      36.297 -18.838 -23.196  0.00  0.00    -0.477 OA
ATOM     16  H   UNL     1      36.845 -19.222 -23.850  0.00  0.00    +0.295 HD
ENDBRANCH  14  15
ENDBRANCH  11  14
ENDBRANCH   1   4
BRANCH   1  17
ATOM     17  C   UNL     1      33.639 -22.820 -15.606  0.00  0.00    +0.047 C 
BRANCH  17  18
ATOM     18  C   UNL     1      32.540 -23.710 -15.075  0.00  0.00    -0.020 C 
ATOM     19  C   UNL     1      31.234 -23.668 -15.590  0.00  0.00    -0.004 C 
ATOM     20  C   UNL     1      32.870 -24.587 -14.041  0.00  0.00    -0.004 C 
ATOM     21  C   UNL     1      30.248 -24.528 -15.049  0.00  0.00    -0.000 C 
ATOM     22  C   UNL     1      30.884 -22.791 -16.630  0.00  0.00    -0.000 C 
ATOM     23  C   UNL     1      31.901 -25.433 -13.509  0.00  0.00    -0.000 C 
ATOM     24  C   UNL     1      30.598 -25.405 -14.008  0.00  0.00    -0.000 C 
ATOM     25  C   UNL     1      28.943 -24.486 -15.564  0.00  0.00    -0.000 C 
ATOM     26  C   UNL     1      29.582 -22.763 -17.129  0.00  0.00    -0.000 C 
ATOM     27  C   UNL     1      28.613 -23.609 -16.597  0.00  0.00    -0.000 C 
ENDBRANCH  17  18
ENDBRANCH   1  17
BRANCH   1  28
ATOM     28  C   UNL     1      35.956 -23.975 -15.738  0.00  0.00    +0.130 C 
BRANCH  28  30
ATOM     29  O   UNL     1      35.856 -26.369 -16.162  0.00  0.00    -0.250 OA
ATOM     30  C   UNL     1      35.934 -25.442 -15.369  0.00  0.00    +0.316 C 
BRANCH  30  31
ATOM     31  O   UNL     1      36.053 -25.623 -14.028  0.00  0.00    -0.480 OA
ATOM     32  H   UNL     1      36.766 -26.125 -13.685  0.00  0.00    +0.295 HD
ENDBRANCH  30  31
ENDBRANCH  28  30
ENDBRANCH   1  28
TORSDOF 8
ENDMDL
MODEL 8
REMARK VINA RESULT:     -10.2      4.334      9.064
REMARK  Name = 24764434
REMARK  8 active torsions:
REMARK  status: ('A' for Active; 'I' for Inactive)
REMARK    1  A    between atoms: C_1  and  N_4
REMARK    2  A    between atoms: C_1  and  C_17
REMARK    3  A    between atoms: C_1  and  C_28
REMARK    4  A    between atoms: C_11  and  C_14
REMARK    5  A    between atoms: C_14  and  O_15
REMARK    6  A    between atoms: C_17  and  C_18
REMARK    7  A    between atoms: C_28  and  C_30
REMARK    8  A    between atoms: C_30  and  O_31
REMARK                            x       y       z     vdW  Elec       q    Type
REMARK                         _______ _______ _______ _____ _____    ______ ____
ROOT
ATOM      1  C   UNL     1      32.801  -8.489 -22.580  0.00  0.00    +0.098 C 
ENDROOT
BRANCH   1   4
ATOM      2  O   UNL     1      35.424  -8.207 -23.970  0.00  0.00    -0.269 OA
ATOM      3  O   UNL     1      31.266  -6.184 -23.688  0.00  0.00    -0.269 OA
ATOM      4  N   UNL     1      33.224  -7.486 -23.537  0.00  0.00    -0.224 N 
ATOM      5  C   UNL     1      34.477  -7.458 -24.113  0.00  0.00    +0.255 C 
ATOM      6  C   UNL     1      32.418  -6.456 -23.973  0.00  0.00    +0.255 C 
ATOM      7  C   UNL     1      34.478  -6.292 -24.996  0.00  0.00    +0.059 C 
ATOM      8  C   UNL     1      33.234  -5.686 -24.912  0.00  0.00    +0.058 C 
ATOM      9  C   UNL     1      35.478  -5.797 -25.809  0.00  0.00    +0.011 C 
ATOM     10  C   UNL     1      32.922  -4.554 -25.636  0.00  0.00    +0.005 C 
ATOM     11  C   UNL     1      35.185  -4.649 -26.552  0.00  0.00    +0.076 C 
ATOM     12  C   UNL     1      33.920  -4.034 -26.465  0.00  0.00    +0.007 C 
BRANCH  11  14
ATOM     13  O   UNL     1      35.975  -3.423 -28.448  0.00  0.00    -0.245 OA
ATOM     14  C   UNL     1      36.199  -4.082 -27.427  0.00  0.00    +0.338 C 
BRANCH  14  15
ATOM     15  O   UNL     1      37.463  -4.351 -27.001  0.00  0.00    -0.477 OA
ATOM     16  H   UNL     1      38.041  -4.856 -27.538  0.00  0.00    +0.295 HD
ENDBRANCH  14  15
ENDBRANCH  11  14
ENDBRANCH   1   4
BRANCH   1  17
ATOM     17  C   UNL     1      32.072  -9.654 -23.284  0.00  0.00    +0.047 C 
BRANCH  17  18
ATOM     18  C   UNL     1      32.843 -10.950 -23.376  0.00  0.00    -0.020 C 
ATOM     19  C   UNL     1      32.749 -11.943 -22.387  0.00  0.00    -0.004 C 
ATOM     20  C   UNL     1      33.662 -11.130 -24.490  0.00  0.00    -0.004 C 
ATOM     21  C   UNL     1      33.497 -13.136 -22.531  0.00  0.00    -0.000 C 
ATOM     22  C   UNL     1      31.929 -11.778 -21.258  0.00  0.00    -0.000 C 
ATOM     23  C   UNL     1      34.398 -12.303 -24.633  0.00  0.00    -0.000 C 
ATOM     24  C   UNL     1      34.317 -13.300 -23.660  0.00  0.00    -0.000 C 
ATOM     25  C   UNL     1      33.404 -14.129 -21.543  0.00  0.00    -0.000 C 
ATOM     26  C   UNL     1      31.848 -12.776 -20.286  0.00  0.00    -0.000 C 
ATOM     27  C   UNL     1      32.584 -13.949 -20.428  0.00  0.00    -0.000 C 
ENDBRANCH  17  18
ENDBRANCH   1  17
BRANCH   1  28
ATOM     28  C   UNL     1      32.007  -7.830 -21.443  0.00  0.00    +0.130 C 
BRANCH  28  30
ATOM     29  O   UNL     1      32.188  -8.818 -19.227  0.00  0.00    -0.250 OA
ATOM     30  C   UNL     1      32.617  -8.052 -20.077  0.00  0.00    +0.316 C 
BRANCH  30  31
ATOM     31  O   UNL     1      33.747  -7.316 -19.907  0.00  0.00    -0.480 OA
ATOM     32  H   UNL     1      34.552  -7.598 -20.294  0.00  0.00    +0.295 HD
ENDBRANCH  30  31
ENDBRANCH  28  30
ENDBRANCH   1  28
TORSDOF 8
ENDMDL
MODEL 9
REMARK VINA RESULT:     -10.1      3.371      6.027
REMARK  Name = 24764434
REMARK  8 active torsions:
REMARK  status: ('A' for Active; 'I' for Inactive)
REMARK    1  A    between atoms: C_1  and  N_4
REMARK    2  A    between atoms: C_1  and  C_17
REMARK    3  A    between atoms: C_1  and  C_28
REMARK    4  A    between atoms: C_11  and  C_14
REMARK    5  A    between atoms: C_14  and  O_15
REMARK    6  A    between atoms: C_17  and  C_18
REMARK    7  A    between atoms: C_28  and  C_30
REMARK    8  A    between atoms: C_30  and  O_31
REMARK                            x       y       z     vdW  Elec       q    Type
REMARK                         _______ _______ _______ _____ _____    ______ ____
ROOT
ATOM      1  C   UNL     1      32.210  -8.240 -22.401  0.00  0.00    +0.098 C 
ENDROOT
BRANCH   1   4
ATOM      2  O   UNL     1      34.108  -9.499 -24.326  0.00  0.00    -0.269 OA
ATOM      3  O   UNL     1      31.168 -10.613 -20.924  0.00  0.00    -0.269 OA
ATOM      4  N   UNL     1      32.534  -9.641 -22.580  0.00  0.00    -0.224 N 
ATOM      5  C   UNL     1      33.434 -10.105 -23.516  0.00  0.00    +0.255 C 
ATOM      6  C   UNL     1      31.977 -10.657 -21.832  0.00  0.00    +0.255 C 
ATOM      7  C   UNL     1      33.449 -11.559 -23.360  0.00  0.00    +0.059 C 
ATOM      8  C   UNL     1      32.569 -11.893 -22.342  0.00  0.00    +0.058 C 
ATOM      9  C   UNL     1      34.170 -12.516 -24.046  0.00  0.00    +0.011 C 
ATOM     10  C   UNL     1      32.363 -13.202 -21.954  0.00  0.00    +0.005 C 
ATOM     11  C   UNL     1      33.977 -13.849 -23.671  0.00  0.00    +0.076 C 
ATOM     12  C   UNL     1      33.081 -14.188 -22.636  0.00  0.00    +0.007 C 
BRANCH  11  14
ATOM     13  O   UNL     1      35.709 -15.481 -23.918  0.00  0.00    -0.245 OA
ATOM     14  C   UNL     1      34.709 -14.903 -24.356  0.00  0.00    +0.338 C 
BRANCH  14  15
ATOM     15  O   UNL     1      34.172 -15.204 -25.570  0.00  0.00    -0.477 OA
ATOM     16  H   UNL     1      34.672 -15.685 -26.198  0.00  0.00    +0.295 HD
ENDBRANCH  14  15
ENDBRANCH  11  14
ENDBRANCH   1   4
BRANCH   1  17
ATOM     17  C   UNL     1      31.775  -7.598 -23.736  0.00  0.00    +0.047 C 
BRANCH  17  18
ATOM     18  C   UNL     1      31.677  -6.090 -23.737  0.00  0.00    -0.020 C 
ATOM     19  C   UNL     1      32.362  -5.301 -24.675  0.00  0.00    -0.004 C 
ATOM     20  C   UNL     1      30.871  -5.500 -22.763  0.00  0.00    -0.004 C 
ATOM     21  C   UNL     1      32.230  -3.893 -24.623  0.00  0.00    -0.000 C 
ATOM     22  C   UNL     1      33.178  -5.878 -25.662  0.00  0.00    -0.000 C 
ATOM     23  C   UNL     1      30.740  -4.116 -22.711  0.00  0.00    -0.000 C 
ATOM     24  C   UNL     1      31.415  -3.315 -23.635  0.00  0.00    -0.000 C 
ATOM     25  C   UNL     1      32.915  -3.103 -25.560  0.00  0.00    -0.000 C 
ATOM     26  C   UNL     1      33.851  -5.078 -26.586  0.00  0.00    -0.000 C 
ATOM     27  C   UNL     1      33.720  -3.693 -26.534  0.00  0.00    -0.000 C 
ENDBRANCH  17  18
ENDBRANCH   1  17
BRANCH   1  28
ATOM     28  C   UNL     1      33.363  -7.519 -21.689  0.00  0.00    +0.130 C 
BRANCH  28  30
ATOM     29  O   UNL     1      33.469  -6.245 -19.619  0.00  0.00    -0.250 OA
ATOM     30  C   UNL     1      33.082  -7.230 -20.231  0.00  0.00    +0.316 C 
BRANCH  30  31
ATOM     31  O   UNL     1      32.300  -8.189 -19.671  0.00  0.00    -0.480 OA
ATOM     32  H   UNL     1      31.828  -8.786 -20.217  0.00  0.00    +0.295 HD
ENDBRANCH  30  31
ENDBRANCH  28  30
ENDBRANCH   1  28
TORSDOF 8
ENDMDL
