MODEL 1
REMARK VINA RESULT:     -11.7      0.000      0.000
REMARK  Name = 11978813
REMARK  7 active torsions:
REMARK  status: ('A' for Active; 'I' for Inactive)
REMARK    1  A    between atoms: C_1  and  N_2
REMARK    2  A    between atoms: C_1  and  C_18
REMARK    3  A    between atoms: N_3  and  C_10
REMARK    4  A    between atoms: C_18  and  C_19
REMARK    5  A    between atoms: C_19  and  C_20
REMARK    6  A    between atoms: C_20  and  O_21
REMARK    7  A    between atoms: O_21  and  C_24
REMARK                            x       y       z     vdW  Elec       q    Type
REMARK                         _______ _______ _______ _____ _____    ______ ____
ROOT
ATOM      1  C   UNL     1      36.149 -21.772 -19.227  0.00  0.00    -0.077 C 
ENDROOT
BRANCH   1   2
ATOM      2  N   UNL     1      36.080 -20.989 -20.460  0.00  0.00    +0.389 N 
ATOM      3  N   UNL     1      35.554 -18.681 -22.058  0.00  0.00    -0.312 N 
ATOM      4  C   UNL     1      34.699 -20.572 -20.729  0.00  0.00    -0.055 C 
ATOM      5  C   UNL     1      36.950 -19.810 -20.371  0.00  0.00    -0.055 C 
ATOM      6  C   UNL     1      34.605 -19.801 -22.047  0.00  0.00    +0.068 C 
ATOM      7  C   UNL     1      36.931 -19.012 -21.677  0.00  0.00    +0.068 C 
ATOM      8  H   UNL     1      36.402 -21.578 -21.228  0.00  0.00    -0.080 HD
BRANCH   3  10
ATOM      9  S   UNL     1      34.483 -13.774 -22.662  0.00  0.00    -0.086 S 
ATOM     10  C   UNL     1      35.314 -17.623 -22.943  0.00  0.00    +0.048 C 
ATOM     11  C   UNL     1      35.032 -16.294 -22.488  0.00  0.00    +0.020 C 
ATOM     12  C   UNL     1      35.349 -17.860 -24.334  0.00  0.00    +0.015 C 
ATOM     13  C   UNL     1      34.801 -15.285 -23.428  0.00  0.00    +0.031 C 
ATOM     14  C   UNL     1      34.938 -15.787 -21.149  0.00  0.00    +0.009 C 
ATOM     15  C   UNL     1      35.117 -16.842 -25.249  0.00  0.00    +0.002 C 
ATOM     16  C   UNL     1      34.841 -15.544 -24.812  0.00  0.00    +0.007 C 
ATOM     17  C   UNL     1      34.647 -14.445 -21.104  0.00  0.00    +0.035 C 
ENDBRANCH   3  10
ENDBRANCH   1   2
BRANCH   1  18
ATOM     18  C   UNL     1      37.152 -21.149 -18.257  0.00  0.00    -0.019 C 
BRANCH  18  19
ATOM     19  C   UNL     1      37.609 -22.162 -17.208  0.00  0.00    +0.045 C 
BRANCH  19  20
ATOM     20  C   UNL     1      36.529 -22.415 -16.165  0.00  0.00    +0.205 C 
BRANCH  20  21
ATOM     21  O   UNL     1      35.830 -23.613 -16.476  0.00  0.00    -0.475 OA
BRANCH  21  24
ATOM     22  O   UNL     1      28.862 -22.512 -17.397  0.00  0.00    -0.270 OA
ATOM     23  N   UNL     1      31.121 -22.859 -17.115  0.00  0.00    -0.280 N 
ATOM     24  C   UNL     1      34.541 -23.713 -16.022  0.00  0.00    +0.140 C 
ATOM     25  C   UNL     1      33.498 -23.232 -16.805  0.00  0.00    +0.052 C 
ATOM     26  C   UNL     1      32.187 -23.339 -16.334  0.00  0.00    +0.054 C 
ATOM     27  C   UNL     1      34.293 -24.293 -14.782  0.00  0.00    +0.037 C 
ATOM     28  C   UNL     1      31.922 -23.920 -15.089  0.00  0.00    +0.014 C 
ATOM     29  C   UNL     1      32.981 -24.399 -14.313  0.00  0.00    +0.004 C 
ATOM     30  C   UNL     1      30.537 -24.013 -14.633  0.00  0.00    +0.006 C 
ATOM     31  C   UNL     1      29.799 -22.928 -16.720  0.00  0.00    +0.250 C 
ATOM     32  C   UNL     1      29.537 -23.549 -15.393  0.00  0.00    +0.058 C 
ATOM     33  H   UNL     1      31.326 -22.452 -17.988  0.00  0.00    +0.155 HD
ENDBRANCH  21  24
ENDBRANCH  20  21
ENDBRANCH  19  20
ENDBRANCH  18  19
ENDBRANCH   1  18
TORSDOF 7
ENDMDL
MODEL 2
REMARK VINA RESULT:     -11.3      3.269      5.907
REMARK  Name = 11978813
REMARK  7 active torsions:
REMARK  status: ('A' for Active; 'I' for Inactive)
REMARK    1  A    between atoms: C_1  and  N_2
REMARK    2  A    between atoms: C_1  and  C_18
REMARK    3  A    between atoms: N_3  and  C_10
REMARK    4  A    between atoms: C_18  and  C_19
REMARK    5  A    between atoms: C_19  and  C_20
REMARK    6  A    between atoms: C_20  and  O_21
REMARK    7  A    between atoms: O_21  and  C_24
REMARK                            x       y       z     vdW  Elec       q    Type
REMARK                         _______ _______ _______ _____ _____    ______ ____
ROOT
ATOM      1  C   UNL     1      34.936 -16.888 -25.215  0.00  0.00    -0.077 C 
ENDROOT
BRANCH   1   2
ATOM      2  N   UNL     1      34.848 -15.467 -24.883  0.00  0.00    +0.389 N 
ATOM      3  N   UNL     1      33.677 -13.120 -23.751  0.00  0.00    -0.312 N 
ATOM      4  C   UNL     1      33.651 -14.870 -25.487  0.00  0.00    -0.055 C 
ATOM      5  C   UNL     1      34.821 -15.278 -23.428  0.00  0.00    -0.055 C 
ATOM      6  C   UNL     1      33.578 -13.369 -25.194  0.00  0.00    +0.068 C 
ATOM      7  C   UNL     1      34.787 -13.791 -23.066  0.00  0.00    +0.068 C 
ATOM      8  H   UNL     1      35.674 -15.001 -25.260  0.00  0.00    -0.080 HD
BRANCH   3  10
ATOM      9  S   UNL     1      31.301 -10.664 -20.021  0.00  0.00    -0.086 S 
ATOM     10  C   UNL     1      33.191 -11.904 -23.258  0.00  0.00    +0.048 C 
ATOM     11  C   UNL     1      32.527 -11.801 -21.993  0.00  0.00    +0.020 C 
ATOM     12  C   UNL     1      33.356 -10.729 -24.024  0.00  0.00    +0.015 C 
ATOM     13  C   UNL     1      32.066 -10.553 -21.562  0.00  0.00    +0.031 C 
ATOM     14  C   UNL     1      32.232 -12.823 -21.031  0.00  0.00    +0.009 C 
ATOM     15  C   UNL     1      32.889  -9.501 -23.575  0.00  0.00    +0.002 C 
ATOM     16  C   UNL     1      32.240  -9.394 -22.343  0.00  0.00    +0.007 C 
ATOM     17  C   UNL     1      31.575 -12.343 -19.924  0.00  0.00    +0.035 C 
ENDBRANCH   3  10
ENDBRANCH   1   2
BRANCH   1  18
ATOM     18  C   UNL     1      35.521 -17.673 -24.042  0.00  0.00    -0.019 C 
BRANCH  18  19
ATOM     19  C   UNL     1      34.855 -19.041 -23.906  0.00  0.00    +0.045 C 
BRANCH  19  20
ATOM     20  C   UNL     1      35.295 -19.756 -22.635  0.00  0.00    +0.205 C 
BRANCH  20  21
ATOM     21  O   UNL     1      34.167 -20.007 -21.808  0.00  0.00    -0.475 OA
BRANCH  21  24
ATOM     22  O   UNL     1      31.618 -23.856 -16.395  0.00  0.00    -0.270 OA
ATOM     23  N   UNL     1      32.426 -22.606 -18.151  0.00  0.00    -0.280 N 
ATOM     24  C   UNL     1      34.378 -20.771 -20.689  0.00  0.00    +0.140 C 
ATOM     25  C   UNL     1      33.290 -21.292 -19.999  0.00  0.00    +0.052 C 
ATOM     26  C   UNL     1      33.515 -22.070 -18.861  0.00  0.00    +0.054 C 
ATOM     27  C   UNL     1      35.678 -21.014 -20.260  0.00  0.00    +0.037 C 
ATOM     28  C   UNL     1      34.817 -22.324 -18.416  0.00  0.00    +0.014 C 
ATOM     29  C   UNL     1      35.901 -21.793 -19.121  0.00  0.00    +0.004 C 
ATOM     30  C   UNL     1      35.010 -23.142 -17.221  0.00  0.00    +0.006 C 
ATOM     31  C   UNL     1      32.566 -23.384 -17.019  0.00  0.00    +0.250 C 
ATOM     32  C   UNL     1      33.958 -23.642 -16.561  0.00  0.00    +0.058 C 
ATOM     33  H   UNL     1      31.516 -22.416 -18.478  0.00  0.00    +0.155 HD
ENDBRANCH  21  24
ENDBRANCH  20  21
ENDBRANCH  19  20
ENDBRANCH  18  19
ENDBRANCH   1  18
TORSDOF 7
ENDMDL
MODEL 3
REMARK VINA RESULT:     -11.2      3.302      6.267
REMARK  Name = 11978813
REMARK  7 active torsions:
REMARK  status: ('A' for Active; 'I' for Inactive)
REMARK    1  A    between atoms: C_1  and  N_2
REMARK    2  A    between atoms: C_1  and  C_18
REMARK    3  A    between atoms: N_3  and  C_10
REMARK    4  A    between atoms: C_18  and  C_19
REMARK    5  A    between atoms: C_19  and  C_20
REMARK    6  A    between atoms: C_20  and  O_21
REMARK    7  A    between atoms: O_21  and  C_24
REMARK                            x       y       z     vdW  Elec       q    Type
REMARK                         _______ _______ _______ _____ _____    ______ ____
ROOT
ATOM      1  C   UNL     1      35.327 -16.660 -25.186  0.00  0.00    -0.077 C 
ENDROOT
BRANCH   1   2
ATOM      2  N   UNL     1      34.985 -15.387 -24.554  0.00  0.00    +0.389 N 
ATOM      3  N   UNL     1      33.446 -13.612 -22.928  0.00  0.00    -0.312 N 
ATOM      4  C   UNL     1      33.664 -14.928 -25.001  0.00  0.00    -0.055 C 
ATOM      5  C   UNL     1      35.000 -15.517 -23.092  0.00  0.00    -0.055 C 
ATOM      6  C   UNL     1      33.320 -13.568 -24.390  0.00  0.00    +0.068 C 
ATOM      7  C   UNL     1      34.699 -14.177 -22.417  0.00  0.00    +0.068 C 
ATOM      8  H   UNL     1      35.684 -14.697 -24.830  0.00  0.00    -0.080 HD
BRANCH   3  10
ATOM      9  S   UNL     1      32.106  -8.762 -22.411  0.00  0.00    -0.086 S 
ATOM     10  C   UNL     1      32.762 -12.648 -22.179  0.00  0.00    +0.048 C 
ATOM     11  C   UNL     1      32.723 -11.268 -22.562  0.00  0.00    +0.020 C 
ATOM     12  C   UNL     1      32.084 -13.036 -21.003  0.00  0.00    +0.015 C 
ATOM     13  C   UNL     1      32.021 -10.358 -21.765  0.00  0.00    +0.031 C 
ATOM     14  C   UNL     1      33.318 -10.617 -23.693  0.00  0.00    +0.009 C 
ATOM     15  C   UNL     1      31.393 -12.113 -20.228  0.00  0.00    +0.002 C 
ATOM     16  C   UNL     1      31.351 -10.766 -20.595  0.00  0.00    +0.007 C 
ATOM     17  C   UNL     1      33.061  -9.267 -23.729  0.00  0.00    +0.035 C 
ENDBRANCH   3  10
ENDBRANCH   1   2
BRANCH   1  18
ATOM     18  C   UNL     1      34.188 -17.664 -25.011  0.00  0.00    -0.019 C 
BRANCH  18  19
ATOM     19  C   UNL     1      34.726 -19.067 -24.735  0.00  0.00    +0.045 C 
BRANCH  19  20
ATOM     20  C   UNL     1      35.257 -19.195 -23.313  0.00  0.00    +0.205 C 
BRANCH  20  21
ATOM     21  O   UNL     1      34.184 -19.459 -22.419  0.00  0.00    -0.475 OA
BRANCH  21  24
ATOM     22  O   UNL     1      31.989 -23.490 -16.984  0.00  0.00    -0.270 OA
ATOM     23  N   UNL     1      32.682 -22.181 -18.746  0.00  0.00    -0.280 N 
ATOM     24  C   UNL     1      34.466 -20.238 -21.327  0.00  0.00    +0.140 C 
ATOM     25  C   UNL     1      33.426 -20.805 -20.602  0.00  0.00    +0.052 C 
ATOM     26  C   UNL     1      33.724 -21.599 -19.492  0.00  0.00    +0.054 C 
ATOM     27  C   UNL     1      35.791 -20.452 -20.961  0.00  0.00    +0.037 C 
ATOM     28  C   UNL     1      35.051 -21.823 -19.109  0.00  0.00    +0.014 C 
ATOM     29  C   UNL     1      36.086 -21.246 -19.850  0.00  0.00    +0.004 C 
ATOM     30  C   UNL     1      35.319 -22.660 -17.942  0.00  0.00    +0.006 C 
ATOM     31  C   UNL     1      32.894 -22.978 -17.639  0.00  0.00    +0.250 C 
ATOM     32  C   UNL     1      34.312 -23.204 -17.248  0.00  0.00    +0.058 C 
ATOM     33  H   UNL     1      31.753 -22.012 -19.029  0.00  0.00    +0.155 HD
ENDBRANCH  21  24
ENDBRANCH  20  21
ENDBRANCH  19  20
ENDBRANCH  18  19
ENDBRANCH   1  18
TORSDOF 7
ENDMDL
MODEL 4
REMARK VINA RESULT:     -11.1      7.236     11.422
REMARK  Name = 11978813
REMARK  7 active torsions:
REMARK  status: ('A' for Active; 'I' for Inactive)
REMARK    1  A    between atoms: C_1  and  N_2
REMARK    2  A    between atoms: C_1  and  C_18
REMARK    3  A    between atoms: N_3  and  C_10
REMARK    4  A    between atoms: C_18  and  C_19
REMARK    5  A    between atoms: C_19  and  C_20
REMARK    6  A    between atoms: C_20  and  O_21
REMARK    7  A    between atoms: O_21  and  C_24
REMARK                            x       y       z     vdW  Elec       q    Type
REMARK                         _______ _______ _______ _____ _____    ______ ____
ROOT
ATOM      1  C   UNL     1      31.550 -10.193 -20.141  0.00  0.00    -0.077 C 
ENDROOT
BRANCH   1   2
ATOM      2  N   UNL     1      32.355  -9.471 -21.124  0.00  0.00    +0.389 N 
ATOM      3  N   UNL     1      32.945  -7.388 -22.988  0.00  0.00    -0.312 N 
ATOM      4  C   UNL     1      31.659  -9.411 -22.415  0.00  0.00    -0.055 C 
ATOM      5  C   UNL     1      32.650  -8.113 -20.652  0.00  0.00    -0.055 C 
ATOM      6  C   UNL     1      32.517  -8.707 -23.469  0.00  0.00    +0.068 C 
ATOM      7  C   UNL     1      33.539  -7.364 -21.647  0.00  0.00    +0.068 C 
ATOM      8  H   UNL     1      33.234  -9.974 -21.247  0.00  0.00    -0.080 HD
BRANCH   3  10
ATOM      9  S   UNL     1      32.058  -2.904 -25.155  0.00  0.00    -0.086 S 
ATOM     10  C   UNL     1      33.335  -6.435 -23.936  0.00  0.00    +0.048 C 
ATOM     11  C   UNL     1      32.619  -5.209 -24.129  0.00  0.00    +0.020 C 
ATOM     12  C   UNL     1      34.471  -6.679 -24.739  0.00  0.00    +0.015 C 
ATOM     13  C   UNL     1      33.064  -4.302 -25.096  0.00  0.00    +0.031 C 
ATOM     14  C   UNL     1      31.449  -4.720 -23.459  0.00  0.00    +0.009 C 
ATOM     15  C   UNL     1      34.894  -5.763 -25.693  0.00  0.00    +0.002 C 
ATOM     16  C   UNL     1      34.201  -4.566 -25.885  0.00  0.00    +0.007 C 
ATOM     17  C   UNL     1      31.044  -3.490 -23.917  0.00  0.00    +0.035 C 
ENDBRANCH   3  10
ENDBRANCH   1   2
BRANCH   1  18
ATOM     18  C   UNL     1      31.038 -11.505 -20.734  0.00  0.00    -0.019 C 
BRANCH  18  19
ATOM     19  C   UNL     1      32.137 -12.566 -20.762  0.00  0.00    +0.045 C 
BRANCH  19  20
ATOM     20  C   UNL     1      32.453 -13.009 -22.184  0.00  0.00    +0.205 C 
BRANCH  20  21
ATOM     21  O   UNL     1      33.860 -13.131 -22.350  0.00  0.00    -0.475 OA
BRANCH  21  24
ATOM     22  O   UNL     1      36.550 -19.523 -20.760  0.00  0.00    -0.270 OA
ATOM     23  N   UNL     1      35.681 -17.449 -21.257  0.00  0.00    -0.280 N 
ATOM     24  C   UNL     1      34.332 -14.355 -22.748  0.00  0.00    +0.140 C 
ATOM     25  C   UNL     1      34.763 -15.268 -21.794  0.00  0.00    +0.052 C 
ATOM     26  C   UNL     1      35.241 -16.513 -22.210  0.00  0.00    +0.054 C 
ATOM     27  C   UNL     1      34.374 -14.666 -24.103  0.00  0.00    +0.037 C 
ATOM     28  C   UNL     1      35.290 -16.841 -23.569  0.00  0.00    +0.014 C 
ATOM     29  C   UNL     1      34.852 -15.912 -24.517  0.00  0.00    +0.004 C 
ATOM     30  C   UNL     1      35.797 -18.154 -23.962  0.00  0.00    +0.006 C 
ATOM     31  C   UNL     1      36.166 -18.699 -21.588  0.00  0.00    +0.250 C 
ATOM     32  C   UNL     1      36.209 -19.030 -23.038  0.00  0.00    +0.058 C 
ATOM     33  H   UNL     1      35.640 -17.201 -20.304  0.00  0.00    +0.155 HD
ENDBRANCH  21  24
ENDBRANCH  20  21
ENDBRANCH  19  20
ENDBRANCH  18  19
ENDBRANCH   1  18
TORSDOF 7
ENDMDL
MODEL 5
REMARK VINA RESULT:     -11.1      8.166     12.513
REMARK  Name = 11978813
REMARK  7 active torsions:
REMARK  status: ('A' for Active; 'I' for Inactive)
REMARK    1  A    between atoms: C_1  and  N_2
REMARK    2  A    between atoms: C_1  and  C_18
REMARK    3  A    between atoms: N_3  and  C_10
REMARK    4  A    between atoms: C_18  and  C_19
REMARK    5  A    between atoms: C_19  and  C_20
REMARK    6  A    between atoms: C_20  and  O_21
REMARK    7  A    between atoms: O_21  and  C_24
REMARK                            x       y       z     vdW  Elec       q    Type
REMARK                         _______ _______ _______ _____ _____    ______ ____
ROOT
ATOM      1  C   UNL     1      32.646  -9.476 -20.406  0.00  0.00    -0.077 C 
ENDROOT
BRANCH   1   2
ATOM      2  N   UNL     1      32.196  -8.295 -21.141  0.00  0.00    +0.389 N 
ATOM      3  N   UNL     1      32.387  -6.185 -23.058  0.00  0.00    -0.312 N 
ATOM      4  C   UNL     1      33.109  -7.169 -20.916  0.00  0.00    -0.055 C 
ATOM      5  C   UNL     1      32.104  -8.585 -22.577  0.00  0.00    -0.055 C 
ATOM      6  C   UNL     1      32.617  -5.910 -21.634  0.00  0.00    +0.068 C 
ATOM      7  C   UNL     1      31.579  -7.374 -23.351  0.00  0.00    +0.068 C 
ATOM      8  H   UNL     1      31.269  -8.041 -20.797  0.00  0.00    -0.080 HD
BRANCH   3  10
ATOM      9  S   UNL     1      34.593  -3.830 -26.953  0.00  0.00    -0.086 S 
ATOM     10  C   UNL     1      32.376  -5.103 -23.944  0.00  0.00    +0.048 C 
ATOM     11  C   UNL     1      33.372  -4.936 -24.961  0.00  0.00    +0.020 C 
ATOM     12  C   UNL     1      31.354  -4.133 -23.844  0.00  0.00    +0.015 C 
ATOM     13  C   UNL     1      33.300  -3.829 -25.813  0.00  0.00    +0.031 C 
ATOM     14  C   UNL     1      34.503  -5.761 -25.276  0.00  0.00    +0.009 C 
ATOM     15  C   UNL     1      31.304  -3.043 -24.702  0.00  0.00    +0.002 C 
ATOM     16  C   UNL     1      32.272  -2.874 -25.695  0.00  0.00    +0.007 C 
ATOM     17  C   UNL     1      35.242  -5.277 -26.328  0.00  0.00    +0.035 C 
ENDBRANCH   3  10
ENDBRANCH   1   2
BRANCH   1  18
ATOM     18  C   UNL     1      31.528  -9.999 -19.505  0.00  0.00    -0.019 C 
BRANCH  18  19
ATOM     19  C   UNL     1      30.938 -11.297 -20.054  0.00  0.00    +0.045 C 
BRANCH  19  20
ATOM     20  C   UNL     1      31.807 -11.886 -21.158  0.00  0.00    +0.205 C 
BRANCH  20  21
ATOM     21  O   UNL     1      32.754 -12.786 -20.597  0.00  0.00    -0.475 OA
BRANCH  21  24
ATOM     22  O   UNL     1      33.705 -15.294 -27.186  0.00  0.00    -0.270 OA
ATOM     23  N   UNL     1      33.383 -14.472 -25.060  0.00  0.00    -0.280 N 
ATOM     24  C   UNL     1      33.381 -13.643 -21.464  0.00  0.00    +0.140 C 
ATOM     25  C   UNL     1      33.055 -13.613 -22.814  0.00  0.00    +0.052 C 
ATOM     26  C   UNL     1      33.700 -14.490 -23.690  0.00  0.00    +0.054 C 
ATOM     27  C   UNL     1      34.334 -14.532 -20.979  0.00  0.00    +0.037 C 
ATOM     28  C   UNL     1      34.661 -15.391 -23.218  0.00  0.00    +0.014 C 
ATOM     29  C   UNL     1      34.978 -15.409 -21.857  0.00  0.00    +0.004 C 
ATOM     30  C   UNL     1      35.313 -16.291 -24.167  0.00  0.00    +0.006 C 
ATOM     31  C   UNL     1      33.976 -15.306 -25.987  0.00  0.00    +0.250 C 
ATOM     32  C   UNL     1      34.996 -16.256 -25.467  0.00  0.00    +0.058 C 
ATOM     33  H   UNL     1      32.703 -13.832 -25.374  0.00  0.00    +0.155 HD
ENDBRANCH  21  24
ENDBRANCH  20  21
ENDBRANCH  19  20
ENDBRANCH  18  19
ENDBRANCH   1  18
TORSDOF 7
ENDMDL
MODEL 6
REMARK VINA RESULT:     -11.1      8.249     12.201
REMARK  Name = 11978813
REMARK  7 active torsions:
REMARK  status: ('A' for Active; 'I' for Inactive)
REMARK    1  A    between atoms: C_1  and  N_2
REMARK    2  A    between atoms: C_1  and  C_18
REMARK    3  A    between atoms: N_3  and  C_10
REMARK    4  A    between atoms: C_18  and  C_19
REMARK    5  A    between atoms: C_19  and  C_20
REMARK    6  A    between atoms: C_20  and  O_21
REMARK    7  A    between atoms: O_21  and  C_24
REMARK                            x       y       z     vdW  Elec       q    Type
REMARK                         _______ _______ _______ _____ _____    ______ ____
ROOT
ATOM      1  C   UNL     1      32.305  -9.467 -19.789  0.00  0.00    -0.077 C 
ENDROOT
BRANCH   1   2
ATOM      2  N   UNL     1      32.190  -8.460 -20.842  0.00  0.00    +0.389 N 
ATOM      3  N   UNL     1      33.096  -6.846 -23.018  0.00  0.00    -0.312 N 
ATOM      4  C   UNL     1      33.134  -7.361 -20.608  0.00  0.00    -0.055 C 
ATOM      5  C   UNL     1      32.437  -9.059 -22.159  0.00  0.00    -0.055 C 
ATOM      6  C   UNL     1      32.983  -6.271 -21.672  0.00  0.00    +0.068 C 
ATOM      7  C   UNL     1      32.265  -8.027 -23.275  0.00  0.00    +0.068 C 
ATOM      8  H   UNL     1      31.240  -8.087 -20.823  0.00  0.00    -0.080 HD
BRANCH   3  10
ATOM      9  S   UNL     1      32.004  -2.657 -25.635  0.00  0.00    -0.086 S 
ATOM     10  C   UNL     1      33.432  -5.991 -24.074  0.00  0.00    +0.048 C 
ATOM     11  C   UNL     1      32.669  -4.817 -24.380  0.00  0.00    +0.020 C 
ATOM     12  C   UNL     1      34.559  -6.282 -24.873  0.00  0.00    +0.015 C 
ATOM     13  C   UNL     1      33.061  -4.007 -25.450  0.00  0.00    +0.031 C 
ATOM     14  C   UNL     1      31.496  -4.297 -23.737  0.00  0.00    +0.009 C 
ATOM     15  C   UNL     1      34.929  -5.462 -25.930  0.00  0.00    +0.002 C 
ATOM     16  C   UNL     1      34.189  -4.317 -26.234  0.00  0.00    +0.007 C 
ATOM     17  C   UNL     1      31.039  -3.138 -24.316  0.00  0.00    +0.035 C 
ENDBRANCH   3  10
ENDBRANCH   1   2
BRANCH   1  18
ATOM     18  C   UNL     1      31.287 -10.586 -20.011  0.00  0.00    -0.019 C 
BRANCH  18  19
ATOM     19  C   UNL     1      31.555 -11.769 -19.082  0.00  0.00    +0.045 C 
BRANCH  19  20
ATOM     20  C   UNL     1      32.114 -12.964 -19.842  0.00  0.00    +0.205 C 
BRANCH  20  21
ATOM     21  O   UNL     1      33.053 -12.522 -20.813  0.00  0.00    -0.475 OA
BRANCH  21  24
ATOM     22  O   UNL     1      33.755 -15.414 -27.276  0.00  0.00    -0.270 OA
ATOM     23  N   UNL     1      33.515 -14.466 -25.191  0.00  0.00    -0.280 N 
ATOM     24  C   UNL     1      33.589 -13.479 -21.636  0.00  0.00    +0.140 C 
ATOM     25  C   UNL     1      33.272 -13.477 -22.988  0.00  0.00    +0.052 C 
ATOM     26  C   UNL     1      33.825 -14.455 -23.819  0.00  0.00    +0.054 C 
ATOM     27  C   UNL     1      34.443 -14.440 -21.104  0.00  0.00    +0.037 C 
ATOM     28  C   UNL     1      34.685 -15.429 -23.300  0.00  0.00    +0.014 C 
ATOM     29  C   UNL     1      34.994 -15.418 -21.936  0.00  0.00    +0.004 C 
ATOM     30  C   UNL     1      35.242 -16.434 -24.202  0.00  0.00    +0.006 C 
ATOM     31  C   UNL     1      34.020 -15.399 -26.075  0.00  0.00    +0.250 C 
ATOM     32  C   UNL     1      34.933 -16.426 -25.505  0.00  0.00    +0.058 C 
ATOM     33  H   UNL     1      32.906 -13.774 -25.539  0.00  0.00    +0.155 HD
ENDBRANCH  21  24
ENDBRANCH  20  21
ENDBRANCH  19  20
ENDBRANCH  18  19
ENDBRANCH   1  18
TORSDOF 7
ENDMDL
MODEL 7
REMARK VINA RESULT:     -11.0      3.050      5.848
REMARK  Name = 11978813
REMARK  7 active torsions:
REMARK  status: ('A' for Active; 'I' for Inactive)
REMARK    1  A    between atoms: C_1  and  N_2
REMARK    2  A    between atoms: C_1  and  C_18
REMARK    3  A    between atoms: N_3  and  C_10
REMARK    4  A    between atoms: C_18  and  C_19
REMARK    5  A    between atoms: C_19  and  C_20
REMARK    6  A    between atoms: C_20  and  O_21
REMARK    7  A    between atoms: O_21  and  C_24
REMARK                            x       y       z     vdW  Elec       q    Type
REMARK                         _______ _______ _______ _____ _____    ______ ____
ROOT
ATOM      1  C   UNL     1      35.283 -17.536 -24.530  0.00  0.00    -0.077 C 
ENDROOT
BRANCH   1   2
ATOM      2  N   UNL     1      35.187 -16.090 -24.338  0.00  0.00    +0.389 N 
ATOM      3  N   UNL     1      33.933 -13.636 -23.586  0.00  0.00    -0.312 N 
ATOM      4  C   UNL     1      34.099 -15.533 -25.150  0.00  0.00    -0.055 C 
ATOM      5  C   UNL     1      34.967 -15.771 -22.922  0.00  0.00    -0.055 C 
ATOM      6  C   UNL     1      34.026 -14.012 -25.002  0.00  0.00    +0.068 C 
ATOM      7  C   UNL     1      34.921 -14.258 -22.699  0.00  0.00    +0.068 C 
ATOM      8  H   UNL     1      36.068 -15.671 -24.636  0.00  0.00    -0.080 HD
BRANCH   3  10
ATOM      9  S   UNL     1      31.262 -10.792 -20.365  0.00  0.00    -0.086 S 
ATOM     10  C   UNL     1      33.416 -12.374 -23.272  0.00  0.00    +0.048 C 
ATOM     11  C   UNL     1      32.645 -12.136 -22.088  0.00  0.00    +0.020 C 
ATOM     12  C   UNL     1      33.655 -11.289 -24.144  0.00  0.00    +0.015 C 
ATOM     13  C   UNL     1      32.158 -10.849 -21.837  0.00  0.00    +0.031 C 
ATOM     14  C   UNL     1      32.261 -13.047 -21.049  0.00  0.00    +0.009 C 
ATOM     15  C   UNL     1      33.161 -10.020 -23.874  0.00  0.00    +0.002 C 
ATOM     16  C   UNL     1      32.408  -9.781 -22.721  0.00  0.00    +0.007 C 
ATOM     17  C   UNL     1      31.514 -12.450 -20.063  0.00  0.00    +0.035 C 
ENDBRANCH   3  10
ENDBRANCH   1   2
BRANCH   1  18
ATOM     18  C   UNL     1      35.730 -18.216 -23.236  0.00  0.00    -0.019 C 
BRANCH  18  19
ATOM     19  C   UNL     1      34.963 -19.516 -23.001  0.00  0.00    +0.045 C 
BRANCH  19  20
ATOM     20  C   UNL     1      34.784 -19.801 -21.516  0.00  0.00    +0.205 C 
BRANCH  20  21
ATOM     21  O   UNL     1      35.783 -20.712 -21.077  0.00  0.00    -0.475 OA
BRANCH  21  24
ATOM     22  O   UNL     1      37.989 -23.189 -14.782  0.00  0.00    -0.270 OA
ATOM     23  N   UNL     1      37.292 -22.382 -16.823  0.00  0.00    -0.280 N 
ATOM     24  C   UNL     1      35.533 -21.390 -19.912  0.00  0.00    +0.140 C 
ATOM     25  C   UNL     1      36.545 -21.535 -18.971  0.00  0.00    +0.052 C 
ATOM     26  C   UNL     1      36.279 -22.227 -17.786  0.00  0.00    +0.054 C 
ATOM     27  C   UNL     1      34.269 -21.925 -19.688  0.00  0.00    +0.037 C 
ATOM     28  C   UNL     1      35.013 -22.771 -17.547  0.00  0.00    +0.014 C 
ATOM     29  C   UNL     1      34.005 -22.617 -18.503  0.00  0.00    +0.004 C 
ATOM     30  C   UNL     1      34.776 -23.488 -16.296  0.00  0.00    +0.006 C 
ATOM     31  C   UNL     1      37.108 -23.051 -15.629  0.00  0.00    +0.250 C 
ATOM     32  C   UNL     1      35.755 -23.623 -15.392  0.00  0.00    +0.058 C 
ATOM     33  H   UNL     1      38.178 -21.993 -17.009  0.00  0.00    +0.155 HD
ENDBRANCH  21  24
ENDBRANCH  20  21
ENDBRANCH  19  20
ENDBRANCH  18  19
ENDBRANCH   1  18
TORSDOF 7
ENDMDL
MODEL 8
REMARK VINA RESULT:     -10.9      0.806      1.816
REMARK  Name = 11978813
REMARK  7 active torsions:
REMARK  status: ('A' for Active; 'I' for Inactive)
REMARK    1  A    between atoms: C_1  and  N_2
REMARK    2  A    between atoms: C_1  and  C_18
REMARK    3  A    between atoms: N_3  and  C_10
REMARK    4  A    between atoms: C_18  and  C_19
REMARK    5  A    between atoms: C_19  and  C_20
REMARK    6  A    between atoms: C_20  and  O_21
REMARK    7  A    between atoms: O_21  and  C_24
REMARK                            x       y       z     vdW  Elec       q    Type
REMARK                         _______ _______ _______ _____ _____    ______ ____
ROOT
ATOM      1  C   UNL     1      36.774 -21.843 -20.159  0.00  0.00    -0.077 C 
ENDROOT
BRANCH   1   2
ATOM      2  N   UNL     1      36.428 -20.709 -21.016  0.00  0.00    +0.389 N 
ATOM      3  N   UNL     1      35.606 -18.037 -21.600  0.00  0.00    -0.312 N 
ATOM      4  C   UNL     1      35.041 -20.291 -20.781  0.00  0.00    -0.055 C 
ATOM      5  C   UNL     1      37.337 -19.583 -20.774  0.00  0.00    -0.055 C 
ATOM      6  C   UNL     1      34.648 -19.143 -21.713  0.00  0.00    +0.068 C 
ATOM      7  C   UNL     1      37.021 -18.410 -21.704  0.00  0.00    +0.068 C 
ATOM      8  H   UNL     1      36.522 -21.006 -21.988  0.00  0.00    -0.080 HD
BRANCH   3  10
ATOM      9  S   UNL     1      34.341 -14.974 -25.422  0.00  0.00    -0.086 S 
ATOM     10  C   UNL     1      35.193 -16.763 -22.007  0.00  0.00    +0.048 C 
ATOM     11  C   UNL     1      34.965 -16.437 -23.383  0.00  0.00    +0.020 C 
ATOM     12  C   UNL     1      34.990 -15.756 -21.039  0.00  0.00    +0.015 C 
ATOM     13  C   UNL     1      34.554 -15.143 -23.720  0.00  0.00    +0.031 C 
ATOM     14  C   UNL     1      35.096 -17.259 -24.551  0.00  0.00    +0.009 C 
ATOM     15  C   UNL     1      34.581 -14.479 -21.397  0.00  0.00    +0.002 C 
ATOM     16  C   UNL     1      34.357 -14.153 -22.737  0.00  0.00    +0.007 C 
ATOM     17  C   UNL     1      34.789 -16.593 -25.713  0.00  0.00    +0.035 C 
ENDBRANCH   3  10
ENDBRANCH   1   2
BRANCH   1  18
ATOM     18  C   UNL     1      36.056 -21.732 -18.815  0.00  0.00    -0.019 C 
BRANCH  18  19
ATOM     19  C   UNL     1      37.023 -21.945 -17.652  0.00  0.00    +0.045 C 
BRANCH  19  20
ATOM     20  C   UNL     1      36.327 -22.568 -16.449  0.00  0.00    +0.205 C 
BRANCH  20  21
ATOM     21  O   UNL     1      35.491 -23.635 -16.876  0.00  0.00    -0.475 OA
BRANCH  21  24
ATOM     22  O   UNL     1      28.524 -22.279 -17.370  0.00  0.00    -0.270 OA
ATOM     23  N   UNL     1      30.781 -22.709 -17.226  0.00  0.00    -0.280 N 
ATOM     24  C   UNL     1      34.229 -23.684 -16.342  0.00  0.00    +0.140 C 
ATOM     25  C   UNL     1      33.158 -23.169 -17.062  0.00  0.00    +0.052 C 
ATOM     26  C   UNL     1      31.876 -23.225 -16.509  0.00  0.00    +0.054 C 
ATOM     27  C   UNL     1      34.038 -24.248 -15.085  0.00  0.00    +0.037 C 
ATOM     28  C   UNL     1      31.668 -23.788 -15.246  0.00  0.00    +0.014 C 
ATOM     29  C   UNL     1      32.756 -24.302 -14.534  0.00  0.00    +0.004 C 
ATOM     30  C   UNL     1      30.312 -23.827 -14.704  0.00  0.00    +0.006 C 
ATOM     31  C   UNL     1      29.486 -22.727 -16.748  0.00  0.00    +0.250 C 
ATOM     32  C   UNL     1      29.284 -23.330 -15.404  0.00  0.00    +0.058 C 
ATOM     33  H   UNL     1      30.947 -22.314 -18.113  0.00  0.00    +0.155 HD
ENDBRANCH  21  24
ENDBRANCH  20  21
ENDBRANCH  19  20
ENDBRANCH  18  19
ENDBRANCH   1  18
TORSDOF 7
ENDMDL
MODEL 9
REMARK VINA RESULT:     -10.8      7.334     11.601
REMARK  Name = 11978813
REMARK  7 active torsions:
REMARK  status: ('A' for Active; 'I' for Inactive)
REMARK    1  A    between atoms: C_1  and  N_2
REMARK    2  A    between atoms: C_1  and  C_18
REMARK    3  A    between atoms: N_3  and  C_10
REMARK    4  A    between atoms: C_18  and  C_19
REMARK    5  A    between atoms: C_19  and  C_20
REMARK    6  A    between atoms: C_20  and  O_21
REMARK    7  A    between atoms: O_21  and  C_24
REMARK                            x       y       z     vdW  Elec       q    Type
REMARK                         _______ _______ _______ _____ _____    ______ ____
ROOT
ATOM      1  C   UNL     1      32.338 -10.547 -20.548  0.00  0.00    -0.077 C 
ENDROOT
BRANCH   1   2
ATOM      2  N   UNL     1      31.902  -9.310 -21.193  0.00  0.00    +0.389 N 
ATOM      3  N   UNL     1      32.186  -6.966 -22.802  0.00  0.00    -0.312 N 
ATOM      4  C   UNL     1      32.693  -8.171 -20.712  0.00  0.00    -0.055 C 
ATOM      5  C   UNL     1      32.020  -9.420 -22.652  0.00  0.00    -0.055 C 
ATOM      6  C   UNL     1      32.207  -6.861 -21.338  0.00  0.00    +0.068 C 
ATOM      7  C   UNL     1      31.513  -8.152 -23.343  0.00  0.00    +0.068 C 
ATOM      8  H   UNL     1      30.922  -9.155 -20.954  0.00  0.00    -0.080 HD
BRANCH   3  10
ATOM      9  S   UNL     1      34.461  -4.227 -26.396  0.00  0.00    -0.086 S 
ATOM     10  C   UNL     1      32.211  -5.782 -23.547  0.00  0.00    +0.048 C 
ATOM     11  C   UNL     1      33.208  -5.527 -24.544  0.00  0.00    +0.020 C 
ATOM     12  C   UNL     1      31.227  -4.796 -23.318  0.00  0.00    +0.015 C 
ATOM     13  C   UNL     1      33.174  -4.321 -25.252  0.00  0.00    +0.031 C 
ATOM     14  C   UNL     1      34.306  -6.347 -24.970  0.00  0.00    +0.009 C 
ATOM     15  C   UNL     1      31.214  -3.606 -24.033  0.00  0.00    +0.002 C 
ATOM     16  C   UNL     1      32.182  -3.351 -25.007  0.00  0.00    +0.007 C 
ATOM     17  C   UNL     1      35.057  -5.763 -25.961  0.00  0.00    +0.035 C 
ENDBRANCH   3  10
ENDBRANCH   1   2
BRANCH   1  18
ATOM     18  C   UNL     1      31.365 -11.682 -20.863  0.00  0.00    -0.019 C 
BRANCH  18  19
ATOM     19  C   UNL     1      32.113 -12.968 -21.215  0.00  0.00    +0.045 C 
BRANCH  19  20
ATOM     20  C   UNL     1      32.624 -12.946 -22.649  0.00  0.00    +0.205 C 
BRANCH  20  21
ATOM     21  O   UNL     1      34.025 -13.181 -22.665  0.00  0.00    -0.475 OA
BRANCH  21  24
ATOM     22  O   UNL     1      36.528 -19.558 -20.745  0.00  0.00    -0.270 OA
ATOM     23  N   UNL     1      35.720 -17.489 -21.349  0.00  0.00    -0.280 N 
ATOM     24  C   UNL     1      34.436 -14.446 -22.997  0.00  0.00    +0.140 C 
ATOM     25  C   UNL     1      34.867 -15.312 -21.999  0.00  0.00    +0.052 C 
ATOM     26  C   UNL     1      35.282 -16.600 -22.347  0.00  0.00    +0.054 C 
ATOM     27  C   UNL     1      34.416 -14.846 -24.329  0.00  0.00    +0.037 C 
ATOM     28  C   UNL     1      35.269 -17.017 -23.682  0.00  0.00    +0.014 C 
ATOM     29  C   UNL     1      34.832 -16.135 -24.675  0.00  0.00    +0.004 C 
ATOM     30  C   UNL     1      35.711 -18.372 -24.004  0.00  0.00    +0.006 C 
ATOM     31  C   UNL     1      36.145 -18.776 -21.612  0.00  0.00    +0.250 C 
ATOM     32  C   UNL     1      36.124 -19.202 -23.038  0.00  0.00    +0.058 C 
ATOM     33  H   UNL     1      35.724 -17.177 -20.414  0.00  0.00    +0.155 HD
ENDBRANCH  21  24
ENDBRANCH  20  21
ENDBRANCH  19  20
ENDBRANCH  18  19
ENDBRANCH   1  18
TORSDOF 7
ENDMDL
