MODEL 1
REMARK VINA RESULT:     -12.4      0.000      0.000
REMARK  Name = 24882195
REMARK  2 active torsions:
REMARK  status: ('A' for Active; 'I' for Inactive)
REMARK    1  A    between atoms: C_5  and  N_15
REMARK    2  A    between atoms: N_15  and  C_21
REMARK                            x       y       z     vdW  Elec       q    Type
REMARK                         _______ _______ _______ _____ _____    ______ ____
ROOT
ATOM      1  C   UNL     1      35.281 -22.092 -18.418  0.00  0.00    +0.001 C 
ATOM      2  C   UNL     1      33.992 -21.986 -18.986  0.00  0.00    +0.000 C 
ATOM      3  C   UNL     1      36.173 -20.628 -20.169  0.00  0.00    +0.000 C 
ATOM      4  C   UNL     1      34.885 -20.522 -20.737  0.00  0.00    +0.000 C 
ATOM      5  C   UNL     1      34.385 -23.545 -16.684  0.00  0.00    +0.049 C 
ATOM      6  C   UNL     1      36.354 -21.412 -19.018  0.00  0.00    +0.000 C 
ATOM      7  C   UNL     1      35.461 -22.876 -17.267  0.00  0.00    +0.015 C 
ATOM      8  C   UNL     1      33.810 -21.202 -20.138  0.00  0.00    +0.000 C 
ATOM      9  C   UNL     1      32.919 -22.665 -18.387  0.00  0.00    +0.001 C 
ATOM     10  C   UNL     1      33.115 -23.440 -17.243  0.00  0.00    +0.015 C 
ATOM     11  C   UNL     1      37.246 -19.949 -20.769  0.00  0.00    +0.000 C 
ATOM     12  C   UNL     1      34.703 -19.738 -21.889  0.00  0.00    +0.000 C 
ATOM     13  C   UNL     1      37.050 -19.174 -21.912  0.00  0.00    +0.000 C 
ATOM     14  C   UNL     1      35.780 -19.069 -22.471  0.00  0.00    +0.000 C 
ENDROOT
BRANCH   5  15
ATOM     15  N   UNL     1      34.584 -24.328 -15.527  0.00  0.00    -0.299 N 
ATOM     16  H   UNL     1      33.803 -24.844 -15.221  0.00  0.00    +0.153 HD
BRANCH  15  21
ATOM     17  N   UNL     1      36.516 -25.576 -15.031  0.00  0.00    -0.106 N 
ATOM     18  N   UNL     1      38.107 -24.951 -13.340  0.00  0.00    -0.340 NA
ATOM     19  N   UNL     1      36.345 -26.574 -15.937  0.00  0.00    -0.139 NA
ATOM     20  N   UNL     1      38.259 -26.917 -14.753  0.00  0.00    -0.145 NA
ATOM     21  C   UNL     1      35.703 -24.463 -14.783  0.00  0.00    +0.138 C 
ATOM     22  C   UNL     1      36.080 -23.600 -13.826  0.00  0.00    +0.061 C 
ATOM     23  C   UNL     1      37.696 -25.807 -14.317  0.00  0.00    +0.174 C 
ATOM     24  C   UNL     1      37.352 -23.918 -13.109  0.00  0.00    +0.125 C 
ATOM     25  C   UNL     1      37.786 -22.958 -12.031  0.00  0.00    +0.068 C 
ATOM     26  C   UNL     1      37.411 -27.338 -15.724  0.00  0.00    +0.230 C 
ENDBRANCH  15  21
ENDBRANCH   5  15
TORSDOF 2
ENDMDL
MODEL 2
REMARK VINA RESULT:     -12.1      1.254      2.248
REMARK  Name = 24882195
REMARK  2 active torsions:
REMARK  status: ('A' for Active; 'I' for Inactive)
REMARK    1  A    between atoms: C_5  and  N_15
REMARK    2  A    between atoms: N_15  and  C_21
REMARK                            x       y       z     vdW  Elec       q    Type
REMARK                         _______ _______ _______ _____ _____    ______ ____
ROOT
ATOM      1  C   UNL     1      35.379 -22.391 -18.000  0.00  0.00    +0.001 C 
ATOM      2  C   UNL     1      34.028 -22.420 -18.406  0.00  0.00    +0.000 C 
ATOM      3  C   UNL     1      35.914 -20.918 -19.883  0.00  0.00    +0.000 C 
ATOM      4  C   UNL     1      34.562 -20.947 -20.290  0.00  0.00    +0.000 C 
ATOM      5  C   UNL     1      34.839 -23.854 -16.132  0.00  0.00    +0.049 C 
ATOM      6  C   UNL     1      36.305 -21.641 -18.744  0.00  0.00    +0.000 C 
ATOM      7  C   UNL     1      35.770 -23.114 -16.861  0.00  0.00    +0.015 C 
ATOM      8  C   UNL     1      33.635 -21.698 -19.546  0.00  0.00    +0.000 C 
ATOM      9  C   UNL     1      33.102 -23.171 -17.662  0.00  0.00    +0.001 C 
ATOM     10  C   UNL     1      33.506 -23.883 -16.532  0.00  0.00    +0.015 C 
ATOM     11  C   UNL     1      36.838 -20.168 -20.629  0.00  0.00    +0.000 C 
ATOM     12  C   UNL     1      34.171 -20.225 -21.430  0.00  0.00    +0.000 C 
ATOM     13  C   UNL     1      36.434 -19.456 -21.758  0.00  0.00    +0.000 C 
ATOM     14  C   UNL     1      35.102 -19.484 -22.158  0.00  0.00    +0.000 C 
ENDROOT
BRANCH   5  15
ATOM     15  N   UNL     1      35.248 -24.574 -14.990  0.00  0.00    -0.299 N 
ATOM     16  H   UNL     1      34.535 -25.054 -14.509  0.00  0.00    +0.153 HD
BRANCH  15  21
ATOM     17  N   UNL     1      36.633 -24.477 -13.090  0.00  0.00    -0.106 N 
ATOM     18  N   UNL     1      39.003 -24.883 -13.148  0.00  0.00    -0.340 NA
ATOM     19  N   UNL     1      35.685 -24.161 -12.169  0.00  0.00    -0.139 NA
ATOM     20  N   UNL     1      37.721 -24.327 -11.164  0.00  0.00    -0.145 NA
ATOM     21  C   UNL     1      36.488 -24.691 -14.466  0.00  0.00    +0.138 C 
ATOM     22  C   UNL     1      37.581 -24.997 -15.182  0.00  0.00    +0.061 C 
ATOM     23  C   UNL     1      37.873 -24.575 -12.450  0.00  0.00    +0.174 C 
ATOM     24  C   UNL     1      38.867 -25.082 -14.425  0.00  0.00    +0.125 C 
ATOM     25  C   UNL     1      40.104 -25.423 -15.217  0.00  0.00    +0.068 C 
ATOM     26  C   UNL     1      36.391 -24.086 -11.046  0.00  0.00    +0.230 C 
ENDBRANCH  15  21
ENDBRANCH   5  15
TORSDOF 2
ENDMDL
MODEL 3
REMARK VINA RESULT:     -12.0      6.523     10.584
REMARK  Name = 24882195
REMARK  2 active torsions:
REMARK  status: ('A' for Active; 'I' for Inactive)
REMARK    1  A    between atoms: C_5  and  N_15
REMARK    2  A    between atoms: N_15  and  C_21
REMARK                            x       y       z     vdW  Elec       q    Type
REMARK                         _______ _______ _______ _____ _____    ______ ____
ROOT
ATOM      1  C   UNL     1      34.986 -19.727 -21.269  0.00  0.00    +0.001 C 
ATOM      2  C   UNL     1      36.300 -20.008 -20.834  0.00  0.00    +0.000 C 
ATOM      3  C   UNL     1      34.108 -21.371 -19.679  0.00  0.00    +0.000 C 
ATOM      4  C   UNL     1      35.422 -21.653 -19.244  0.00  0.00    +0.000 C 
ATOM      5  C   UNL     1      35.868 -18.096 -22.845  0.00  0.00    +0.049 C 
ATOM      6  C   UNL     1      33.908 -20.412 -20.685  0.00  0.00    +0.000 C 
ATOM      7  C   UNL     1      34.787 -18.768 -22.276  0.00  0.00    +0.015 C 
ATOM      8  C   UNL     1      36.501 -20.967 -19.827  0.00  0.00    +0.000 C 
ATOM      9  C   UNL     1      37.379 -19.322 -21.417  0.00  0.00    +0.001 C 
ATOM     10  C   UNL     1      37.163 -18.372 -22.417  0.00  0.00    +0.015 C 
ATOM     11  C   UNL     1      33.031 -22.057 -19.095  0.00  0.00    +0.000 C 
ATOM     12  C   UNL     1      35.622 -22.611 -18.237  0.00  0.00    +0.000 C 
ATOM     13  C   UNL     1      33.246 -23.007 -18.097  0.00  0.00    +0.000 C 
ATOM     14  C   UNL     1      34.540 -23.283 -17.668  0.00  0.00    +0.000 C 
ENDROOT
BRANCH   5  15
ATOM     15  N   UNL     1      35.650 -17.135 -23.855  0.00  0.00    -0.299 N 
ATOM     16  H   UNL     1      36.065 -17.330 -24.726  0.00  0.00    +0.153 HD
BRANCH  15  21
ATOM     17  N   UNL     1      34.443 -15.458 -24.981  0.00  0.00    -0.106 N 
ATOM     18  N   UNL     1      33.441 -13.571 -23.879  0.00  0.00    -0.340 NA
ATOM     19  N   UNL     1      34.555 -15.947 -26.244  0.00  0.00    -0.139 NA
ATOM     20  N   UNL     1      33.356 -14.013 -26.262  0.00  0.00    -0.145 NA
ATOM     21  C   UNL     1      34.948 -15.983 -23.785  0.00  0.00    +0.138 C 
ATOM     22  C   UNL     1      34.707 -15.317 -22.646  0.00  0.00    +0.061 C 
ATOM     23  C   UNL     1      33.703 -14.272 -25.018  0.00  0.00    +0.174 C 
ATOM     24  C   UNL     1      33.909 -14.059 -22.768  0.00  0.00    +0.125 C 
ATOM     25  C   UNL     1      33.632 -13.299 -21.496  0.00  0.00    +0.068 C 
ATOM     26  C   UNL     1      33.890 -15.047 -26.959  0.00  0.00    +0.230 C 
ENDBRANCH  15  21
ENDBRANCH   5  15
TORSDOF 2
ENDMDL
MODEL 4
REMARK VINA RESULT:     -12.0      5.959     10.275
REMARK  Name = 24882195
REMARK  2 active torsions:
REMARK  status: ('A' for Active; 'I' for Inactive)
REMARK    1  A    between atoms: C_5  and  N_15
REMARK    2  A    between atoms: N_15  and  C_21
REMARK                            x       y       z     vdW  Elec       q    Type
REMARK                         _______ _______ _______ _____ _____    ______ ____
ROOT
ATOM      1  C   UNL     1      35.134 -19.997 -21.387  0.00  0.00    +0.001 C 
ATOM      2  C   UNL     1      36.412 -20.112 -20.796  0.00  0.00    +0.000 C 
ATOM      3  C   UNL     1      34.215 -21.508 -19.692  0.00  0.00    +0.000 C 
ATOM      4  C   UNL     1      35.492 -21.624 -19.101  0.00  0.00    +0.000 C 
ATOM      5  C   UNL     1      36.057 -18.497 -23.066  0.00  0.00    +0.049 C 
ATOM      6  C   UNL     1      34.053 -20.698 -20.827  0.00  0.00    +0.000 C 
ATOM      7  C   UNL     1      34.973 -19.186 -22.522  0.00  0.00    +0.015 C 
ATOM      8  C   UNL     1      36.575 -20.923 -19.661  0.00  0.00    +0.000 C 
ATOM      9  C   UNL     1      37.493 -19.411 -21.356  0.00  0.00    +0.001 C 
ATOM     10  C   UNL     1      37.316 -18.609 -22.484  0.00  0.00    +0.015 C 
ATOM     11  C   UNL     1      33.134 -22.210 -19.132  0.00  0.00    +0.000 C 
ATOM     12  C   UNL     1      35.654 -22.434 -17.966  0.00  0.00    +0.000 C 
ATOM     13  C   UNL     1      33.311 -23.011 -18.005  0.00  0.00    +0.000 C 
ATOM     14  C   UNL     1      34.569 -23.123 -17.422  0.00  0.00    +0.000 C 
ENDROOT
BRANCH   5  15
ATOM     15  N   UNL     1      35.877 -17.686 -24.207  0.00  0.00    -0.299 N 
ATOM     16  H   UNL     1      36.347 -17.982 -25.020  0.00  0.00    +0.153 HD
BRANCH  15  21
ATOM     17  N   UNL     1      34.891 -15.819 -23.167  0.00  0.00    -0.106 N 
ATOM     18  N   UNL     1      33.636 -14.145 -24.351  0.00  0.00    -0.340 NA
ATOM     19  N   UNL     1      35.276 -16.078 -21.890  0.00  0.00    -0.139 NA
ATOM     20  N   UNL     1      34.060 -14.155 -21.963  0.00  0.00    -0.145 NA
ATOM     21  C   UNL     1      35.148 -16.556 -24.331  0.00  0.00    +0.138 C 
ATOM     22  C   UNL     1      34.659 -16.099 -25.494  0.00  0.00    +0.061 C 
ATOM     23  C   UNL     1      34.147 -14.635 -23.187  0.00  0.00    +0.174 C 
ATOM     24  C   UNL     1      33.875 -14.828 -25.431  0.00  0.00    +0.125 C 
ATOM     25  C   UNL     1      33.318 -14.304 -26.730  0.00  0.00    +0.068 C 
ATOM     26  C   UNL     1      34.754 -15.055 -21.222  0.00  0.00    +0.230 C 
ENDBRANCH  15  21
ENDBRANCH   5  15
TORSDOF 2
ENDMDL
MODEL 5
REMARK VINA RESULT:     -11.9      2.489      4.381
REMARK  Name = 24882195
REMARK  2 active torsions:
REMARK  status: ('A' for Active; 'I' for Inactive)
REMARK    1  A    between atoms: C_5  and  N_15
REMARK    2  A    between atoms: N_15  and  C_21
REMARK                            x       y       z     vdW  Elec       q    Type
REMARK                         _______ _______ _______ _____ _____    ______ ____
ROOT
ATOM      1  C   UNL     1      34.595 -21.400 -20.052  0.00  0.00    +0.001 C 
ATOM      2  C   UNL     1      35.901 -21.189 -19.560  0.00  0.00    +0.000 C 
ATOM      3  C   UNL     1      35.021 -19.811 -21.868  0.00  0.00    +0.000 C 
ATOM      4  C   UNL     1      36.328 -19.599 -21.376  0.00  0.00    +0.000 C 
ATOM      5  C   UNL     1      34.181 -22.977 -18.245  0.00  0.00    +0.049 C 
ATOM      6  C   UNL     1      34.172 -20.708 -21.199  0.00  0.00    +0.000 C 
ATOM      7  C   UNL     1      33.746 -22.297 -19.383  0.00  0.00    +0.015 C 
ATOM      8  C   UNL     1      36.751 -20.291 -20.228  0.00  0.00    +0.000 C 
ATOM      9  C   UNL     1      36.324 -21.881 -18.413  0.00  0.00    +0.001 C 
ATOM     10  C   UNL     1      35.469 -22.770 -17.760  0.00  0.00    +0.015 C 
ATOM     11  C   UNL     1      34.599 -19.119 -23.014  0.00  0.00    +0.000 C 
ATOM     12  C   UNL     1      37.177 -18.702 -22.044  0.00  0.00    +0.000 C 
ATOM     13  C   UNL     1      35.454 -18.231 -23.667  0.00  0.00    +0.000 C 
ATOM     14  C   UNL     1      36.741 -18.023 -23.183  0.00  0.00    +0.000 C 
ENDROOT
BRANCH   5  15
ATOM     15  N   UNL     1      33.316 -23.875 -17.586  0.00  0.00    -0.299 N 
ATOM     16  H   UNL     1      33.337 -24.805 -17.909  0.00  0.00    +0.153 HD
BRANCH  15  21
ATOM     17  N   UNL     1      32.921 -23.849 -15.266  0.00  0.00    -0.106 N 
ATOM     18  N   UNL     1      30.835 -23.177 -14.277  0.00  0.00    -0.340 NA
ATOM     19  N   UNL     1      34.140 -24.288 -14.853  0.00  0.00    -0.139 NA
ATOM     20  N   UNL     1      32.797 -23.910 -13.054  0.00  0.00    -0.145 NA
ATOM     21  C   UNL     1      32.460 -23.629 -16.570  0.00  0.00    +0.138 C 
ATOM     22  C   UNL     1      31.203 -23.188 -16.734  0.00  0.00    +0.061 C 
ATOM     23  C   UNL     1      32.116 -23.624 -14.145  0.00  0.00    +0.174 C 
ATOM     24  C   UNL     1      30.407 -22.972 -15.488  0.00  0.00    +0.125 C 
ATOM     25  C   UNL     1      28.993 -22.479 -15.658  0.00  0.00    +0.068 C 
ATOM     26  C   UNL     1      34.005 -24.303 -13.532  0.00  0.00    +0.230 C 
ENDBRANCH  15  21
ENDBRANCH   5  15
TORSDOF 2
ENDMDL
MODEL 6
REMARK VINA RESULT:     -11.6      1.783      2.722
REMARK  Name = 24882195
REMARK  2 active torsions:
REMARK  status: ('A' for Active; 'I' for Inactive)
REMARK    1  A    between atoms: C_5  and  N_15
REMARK    2  A    between atoms: N_15  and  C_21
REMARK                            x       y       z     vdW  Elec       q    Type
REMARK                         _______ _______ _______ _____ _____    ______ ____
ROOT
ATOM      1  C   UNL     1      36.094 -21.330 -19.172  0.00  0.00    +0.001 C 
ATOM      2  C   UNL     1      34.761 -21.545 -19.583  0.00  0.00    +0.000 C 
ATOM      3  C   UNL     1      36.451 -19.857 -21.097  0.00  0.00    +0.000 C 
ATOM      4  C   UNL     1      35.117 -20.072 -21.510  0.00  0.00    +0.000 C 
ATOM      5  C   UNL     1      35.730 -22.794 -17.263  0.00  0.00    +0.049 C 
ATOM      6  C   UNL     1      36.922 -20.489 -19.935  0.00  0.00    +0.000 C 
ATOM      7  C   UNL     1      36.564 -21.962 -18.010  0.00  0.00    +0.015 C 
ATOM      8  C   UNL     1      34.289 -20.914 -20.747  0.00  0.00    +0.000 C 
ATOM      9  C   UNL     1      33.933 -22.386 -18.821  0.00  0.00    +0.001 C 
ATOM     10  C   UNL     1      34.416 -23.006 -17.667  0.00  0.00    +0.015 C 
ATOM     11  C   UNL     1      37.277 -19.017 -21.861  0.00  0.00    +0.000 C 
ATOM     12  C   UNL     1      34.646 -19.440 -22.672  0.00  0.00    +0.000 C 
ATOM     13  C   UNL     1      36.795 -18.397 -23.013  0.00  0.00    +0.000 C 
ATOM     14  C   UNL     1      35.481 -18.608 -23.418  0.00  0.00    +0.000 C 
ENDROOT
BRANCH   5  15
ATOM     15  N   UNL     1      36.219 -23.421 -16.097  0.00  0.00    -0.299 N 
ATOM     16  H   UNL     1      37.177 -23.647 -16.103  0.00  0.00    +0.153 HD
BRANCH  15  21
ATOM     17  N   UNL     1      36.221 -23.631 -13.753  0.00  0.00    -0.106 N 
ATOM     18  N   UNL     1      34.328 -24.397 -12.483  0.00  0.00    -0.340 NA
ATOM     19  N   UNL     1      37.492 -23.213 -13.518  0.00  0.00    -0.139 NA
ATOM     20  N   UNL     1      36.471 -23.741 -11.553  0.00  0.00    -0.145 NA
ATOM     21  C   UNL     1      35.546 -23.754 -14.974  0.00  0.00    +0.138 C 
ATOM     22  C   UNL     1      34.277 -24.193 -14.958  0.00  0.00    +0.061 C 
ATOM     23  C   UNL     1      35.614 -23.948 -12.534  0.00  0.00    +0.174 C 
ATOM     24  C   UNL     1      33.702 -24.511 -13.616  0.00  0.00    +0.125 C 
ATOM     25  C   UNL     1      32.278 -25.006 -13.584  0.00  0.00    +0.068 C 
ATOM     26  C   UNL     1      37.581 -23.300 -12.195  0.00  0.00    +0.230 C 
ENDBRANCH  15  21
ENDBRANCH   5  15
TORSDOF 2
ENDMDL
MODEL 7
REMARK VINA RESULT:     -11.6      1.165      2.071
REMARK  Name = 24882195
REMARK  2 active torsions:
REMARK  status: ('A' for Active; 'I' for Inactive)
REMARK    1  A    between atoms: C_5  and  N_15
REMARK    2  A    between atoms: N_15  and  C_21
REMARK                            x       y       z     vdW  Elec       q    Type
REMARK                         _______ _______ _______ _____ _____    ______ ____
ROOT
ATOM      1  C   UNL     1      35.310 -21.964 -18.512  0.00  0.00    +0.001 C 
ATOM      2  C   UNL     1      36.642 -21.517 -18.375  0.00  0.00    +0.000 C 
ATOM      3  C   UNL     1      35.101 -20.698 -20.599  0.00  0.00    +0.000 C 
ATOM      4  C   UNL     1      36.434 -20.251 -20.463  0.00  0.00    +0.000 C 
ATOM      5  C   UNL     1      35.527 -23.218 -16.438  0.00  0.00    +0.049 C 
ATOM      6  C   UNL     1      34.557 -21.548 -19.622  0.00  0.00    +0.000 C 
ATOM      7  C   UNL     1      34.766 -22.813 -17.535  0.00  0.00    +0.015 C 
ATOM      8  C   UNL     1      37.188 -20.667 -19.352  0.00  0.00    +0.000 C 
ATOM      9  C   UNL     1      37.396 -21.934 -17.265  0.00  0.00    +0.001 C 
ATOM     10  C   UNL     1      36.841 -22.779 -16.302  0.00  0.00    +0.015 C 
ATOM     11  C   UNL     1      34.348 -20.281 -21.710  0.00  0.00    +0.000 C 
ATOM     12  C   UNL     1      36.978 -19.401 -21.440  0.00  0.00    +0.000 C 
ATOM     13  C   UNL     1      34.903 -19.436 -22.671  0.00  0.00    +0.000 C 
ATOM     14  C   UNL     1      36.216 -18.997 -22.536  0.00  0.00    +0.000 C 
ENDROOT
BRANCH   5  15
ATOM     15  N   UNL     1      34.966 -24.072 -15.466  0.00  0.00    -0.299 N 
ATOM     16  H   UNL     1      34.023 -24.317 -15.606  0.00  0.00    +0.153 HD
BRANCH  15  21
ATOM     17  N   UNL     1      36.460 -25.645 -14.555  0.00  0.00    -0.106 N 
ATOM     18  N   UNL     1      36.900 -25.855 -12.200  0.00  0.00    -0.340 NA
ATOM     19  N   UNL     1      36.859 -26.233 -15.713  0.00  0.00    -0.139 NA
ATOM     20  N   UNL     1      37.912 -27.204 -13.944  0.00  0.00    -0.145 NA
ATOM     21  C   UNL     1      35.550 -24.597 -14.367  0.00  0.00    +0.138 C 
ATOM     22  C   UNL     1      35.312 -24.178 -13.114  0.00  0.00    +0.061 C 
ATOM     23  C   UNL     1      37.120 -26.256 -13.484  0.00  0.00    +0.174 C 
ATOM     24  C   UNL     1      36.056 -24.882 -12.026  0.00  0.00    +0.125 C 
ATOM     25  C   UNL     1      35.797 -24.423 -10.614  0.00  0.00    +0.068 C 
ATOM     26  C   UNL     1      37.720 -27.150 -15.286  0.00  0.00    +0.230 C 
ENDBRANCH  15  21
ENDBRANCH   5  15
TORSDOF 2
ENDMDL
MODEL 8
REMARK VINA RESULT:     -11.5     10.106     13.796
REMARK  Name = 24882195
REMARK  2 active torsions:
REMARK  status: ('A' for Active; 'I' for Inactive)
REMARK    1  A    between atoms: C_5  and  N_15
REMARK    2  A    between atoms: N_15  and  C_21
REMARK                            x       y       z     vdW  Elec       q    Type
REMARK                         _______ _______ _______ _____ _____    ______ ____
ROOT
ATOM      1  C   UNL     1      34.622 -14.723 -24.080  0.00  0.00    +0.001 C 
ATOM      2  C   UNL     1      34.174 -15.210 -25.327  0.00  0.00    +0.000 C 
ATOM      3  C   UNL     1      35.212 -17.003 -23.402  0.00  0.00    +0.000 C 
ATOM      4  C   UNL     1      34.764 -17.490 -24.650  0.00  0.00    +0.000 C 
ATOM      5  C   UNL     1      34.032 -12.463 -24.761  0.00  0.00    +0.049 C 
ATOM      6  C   UNL     1      35.134 -15.626 -23.133  0.00  0.00    +0.000 C 
ATOM      7  C   UNL     1      34.543 -13.347 -23.811  0.00  0.00    +0.015 C 
ATOM      8  C   UNL     1      34.251 -16.587 -25.597  0.00  0.00    +0.000 C 
ATOM      9  C   UNL     1      33.661 -14.307 -26.273  0.00  0.00    +0.001 C 
ATOM     10  C   UNL     1      33.591 -12.942 -25.991  0.00  0.00    +0.015 C 
ATOM     11  C   UNL     1      35.724 -17.906 -22.457  0.00  0.00    +0.000 C 
ATOM     12  C   UNL     1      34.842 -18.866 -24.919  0.00  0.00    +0.000 C 
ATOM     13  C   UNL     1      35.794 -19.271 -22.739  0.00  0.00    +0.000 C 
ATOM     14  C   UNL     1      35.354 -19.750 -23.968  0.00  0.00    +0.000 C 
ENDROOT
BRANCH   5  15
ATOM     15  N   UNL     1      33.961 -11.083 -24.476  0.00  0.00    -0.299 N 
ATOM     16  H   UNL     1      34.426 -10.491 -25.110  0.00  0.00    +0.153 HD
BRANCH  15  21
ATOM     17  N   UNL     1      33.645  -9.118 -23.220  0.00  0.00    -0.106 N 
ATOM     18  N   UNL     1      32.156  -8.966 -21.338  0.00  0.00    -0.340 NA
ATOM     19  N   UNL     1      34.498  -8.309 -23.901  0.00  0.00    -0.139 NA
ATOM     20  N   UNL     1      33.521  -7.154 -22.199  0.00  0.00    -0.145 NA
ATOM     21  C   UNL     1      33.340 -10.466 -23.446  0.00  0.00    +0.138 C 
ATOM     22  C   UNL     1      32.456 -11.064 -22.633  0.00  0.00    +0.061 C 
ATOM     23  C   UNL     1      33.057  -8.388 -22.182  0.00  0.00    +0.174 C 
ATOM     24  C   UNL     1      31.873 -10.217 -21.549  0.00  0.00    +0.125 C 
ATOM     25  C   UNL     1      30.879 -10.876 -20.627  0.00  0.00    +0.068 C 
ATOM     26  C   UNL     1      34.380  -7.157 -23.249  0.00  0.00    +0.230 C 
ENDBRANCH  15  21
ENDBRANCH   5  15
TORSDOF 2
ENDMDL
MODEL 9
REMARK VINA RESULT:     -11.5      5.363      9.604
REMARK  Name = 24882195
REMARK  2 active torsions:
REMARK  status: ('A' for Active; 'I' for Inactive)
REMARK    1  A    between atoms: C_5  and  N_15
REMARK    2  A    between atoms: N_15  and  C_21
REMARK                            x       y       z     vdW  Elec       q    Type
REMARK                         _______ _______ _______ _____ _____    ______ ____
ROOT
ATOM      1  C   UNL     1      35.904 -20.682 -20.093  0.00  0.00    +0.001 C 
ATOM      2  C   UNL     1      34.557 -21.103 -20.054  0.00  0.00    +0.000 C 
ATOM      3  C   UNL     1      36.375 -21.995 -18.079  0.00  0.00    +0.000 C 
ATOM      4  C   UNL     1      35.027 -22.417 -18.039  0.00  0.00    +0.000 C 
ATOM      5  C   UNL     1      35.427 -19.380 -22.094  0.00  0.00    +0.049 C 
ATOM      6  C   UNL     1      36.795 -21.133 -19.105  0.00  0.00    +0.000 C 
ATOM      7  C   UNL     1      36.323 -19.820 -21.119  0.00  0.00    +0.015 C 
ATOM      8  C   UNL     1      34.136 -21.966 -19.027  0.00  0.00    +0.000 C 
ATOM      9  C   UNL     1      33.666 -20.653 -21.042  0.00  0.00    +0.001 C 
ATOM     10  C   UNL     1      34.099 -19.796 -22.055  0.00  0.00    +0.015 C 
ATOM     11  C   UNL     1      37.264 -22.446 -17.091  0.00  0.00    +0.000 C 
ATOM     12  C   UNL     1      34.607 -23.279 -17.013  0.00  0.00    +0.000 C 
ATOM     13  C   UNL     1      36.832 -23.302 -16.078  0.00  0.00    +0.000 C 
ATOM     14  C   UNL     1      35.505 -23.718 -16.039  0.00  0.00    +0.000 C 
ENDROOT
BRANCH   5  15
ATOM     15  N   UNL     1      35.865 -18.515 -23.118  0.00  0.00    -0.299 N 
ATOM     16  H   UNL     1      36.670 -18.803 -23.605  0.00  0.00    +0.153 HD
BRANCH  15  21
ATOM     17  N   UNL     1      35.086 -16.371 -22.537  0.00  0.00    -0.106 N 
ATOM     18  N   UNL     1      34.201 -14.800 -24.128  0.00  0.00    -0.340 NA
ATOM     19  N   UNL     1      35.321 -16.431 -21.200  0.00  0.00    -0.139 NA
ATOM     20  N   UNL     1      34.418 -14.413 -21.743  0.00  0.00    -0.145 NA
ATOM     21  C   UNL     1      35.327 -17.342 -23.518  0.00  0.00    +0.138 C 
ATOM     22  C   UNL     1      35.010 -17.054 -24.790  0.00  0.00    +0.061 C 
ATOM     23  C   UNL     1      34.534 -15.125 -22.846  0.00  0.00    +0.174 C 
ATOM     24  C   UNL     1      34.424 -15.702 -25.038  0.00  0.00    +0.125 C 
ATOM     25  C   UNL     1      34.063 -15.365 -26.462  0.00  0.00    +0.068 C 
ATOM     26  C   UNL     1      34.904 -15.240 -20.784  0.00  0.00    +0.230 C 
ENDBRANCH  15  21
ENDBRANCH   5  15
TORSDOF 2
ENDMDL
