MODEL 1
REMARK VINA RESULT:     -11.1      0.000      0.000
REMARK  Name = 10274777
REMARK  10 active torsions:
REMARK  status: ('A' for Active; 'I' for Inactive)
REMARK    1  A    between atoms: C_2  and  C_25
REMARK    2  A    between atoms: C_5  and  O_10
REMARK    3  A    between atoms: O_10  and  C_11
REMARK    4  A    between atoms: C_11  and  C_12
REMARK    5  A    between atoms: C_12  and  C_15
REMARK    6  A    between atoms: C_17  and  C_19
REMARK    7  A    between atoms: C_25  and  C_26
REMARK    8  A    between atoms: C_26  and  O_27
REMARK    9  A    between atoms: C_26  and  C_30
REMARK   10  A    between atoms: C_30  and  O_31
REMARK                            x       y       z     vdW  Elec       q    Type
REMARK                         _______ _______ _______ _____ _____    ______ ____
ROOT
ATOM      1  S   UNL     1      32.479 -24.218 -14.467  0.00  0.00    -0.087 S 
ATOM      2  C   UNL     1      35.260 -23.960 -14.173  0.00  0.00    -0.013 C 
ATOM      3  C   UNL     1      34.093 -23.859 -14.956  0.00  0.00    +0.029 C 
ATOM      4  C   UNL     1      34.139 -23.431 -16.286  0.00  0.00    +0.040 C 
ATOM      5  C   UNL     1      35.399 -23.096 -16.837  0.00  0.00    +0.139 C 
ATOM      6  C   UNL     1      36.488 -23.623 -14.747  0.00  0.00    -0.001 C 
ATOM      7  C   UNL     1      36.559 -23.195 -16.065  0.00  0.00    +0.037 C 
ATOM      8  C   UNL     1      32.828 -23.411 -16.870  0.00  0.00    +0.010 C 
ATOM      9  C   UNL     1      31.846 -23.813 -15.997  0.00  0.00    +0.036 C 
ENDROOT
BRANCH   5  10
ATOM     10  O   UNL     1      35.511 -22.669 -18.138  0.00  0.00    -0.475 OA
BRANCH  10  11
ATOM     11  C   UNL     1      36.455 -21.637 -18.391  0.00  0.00    +0.213 C 
BRANCH  11  12
ATOM     12  C   UNL     1      36.731 -21.548 -19.889  0.00  0.00    +0.105 C 
BRANCH  12  15
ATOM     13  O   UNL     1      34.158 -19.445 -21.400  0.00  0.00    -0.449 OA
ATOM     14  N   UNL     1      36.413 -19.488 -21.218  0.00  0.00    -0.373 NA
ATOM     15  C   UNL     1      35.854 -20.548 -20.585  0.00  0.00    +0.134 C 
ATOM     16  C   UNL     1      34.504 -20.547 -20.677  0.00  0.00    +0.216 C 
ATOM     17  C   UNL     1      35.356 -18.863 -21.687  0.00  0.00    +0.277 C 
ATOM     18  C   UNL     1      33.413 -21.406 -20.208  0.00  0.00    +0.055 C 
BRANCH  17  19
ATOM     19  C   UNL     1      35.279 -17.654 -22.459  0.00  0.00    +0.066 C 
ATOM     20  C   UNL     1      35.089 -16.424 -21.822  0.00  0.00    +0.006 C 
ATOM     21  C   UNL     1      35.392 -17.700 -23.851  0.00  0.00    +0.006 C 
ATOM     22  C   UNL     1      35.013 -15.250 -22.570  0.00  0.00    +0.000 C 
ATOM     23  C   UNL     1      35.317 -16.525 -24.600  0.00  0.00    +0.000 C 
ATOM     24  C   UNL     1      35.127 -15.300 -23.960  0.00  0.00    +0.000 C 
ENDBRANCH  17  19
ENDBRANCH  12  15
ENDBRANCH  11  12
ENDBRANCH  10  11
ENDBRANCH   5  10
BRANCH   2  25
ATOM     25  C   UNL     1      35.242 -24.414 -12.748  0.00  0.00    +0.068 C 
BRANCH  25  26
ATOM     26  C   UNL     1      36.652 -24.631 -12.183  0.00  0.00    +0.218 C 
BRANCH  26  27
ATOM     27  O   UNL     1      36.832 -26.021 -11.933  0.00  0.00    -0.342 OA
ATOM     28  C   UNL     1      37.569 -26.645 -12.975  0.00  0.00    +0.175 C 
ENDBRANCH  26  27
BRANCH  26  30
ATOM     29  O   UNL     1      36.390 -24.286  -9.789  0.00  0.00    -0.248 OA
ATOM     30  C   UNL     1      36.833 -23.905 -10.865  0.00  0.00    +0.342 C 
BRANCH  30  31
ATOM     31  O   UNL     1      37.569 -22.772 -11.001  0.00  0.00    -0.479 OA
ATOM     32  H   UNL     1      38.494 -22.793 -10.849  0.00  0.00    +0.295 HD
ENDBRANCH  30  31
ENDBRANCH  26  30
ENDBRANCH  25  26
ENDBRANCH   2  25
TORSDOF 10
ENDMDL
MODEL 2
REMARK VINA RESULT:     -10.6      2.993      4.775
REMARK  Name = 10274777
REMARK  10 active torsions:
REMARK  status: ('A' for Active; 'I' for Inactive)
REMARK    1  A    between atoms: C_2  and  C_25
REMARK    2  A    between atoms: C_5  and  O_10
REMARK    3  A    between atoms: O_10  and  C_11
REMARK    4  A    between atoms: C_11  and  C_12
REMARK    5  A    between atoms: C_12  and  C_15
REMARK    6  A    between atoms: C_17  and  C_19
REMARK    7  A    between atoms: C_25  and  C_26
REMARK    8  A    between atoms: C_26  and  O_27
REMARK    9  A    between atoms: C_26  and  C_30
REMARK   10  A    between atoms: C_30  and  O_31
REMARK                            x       y       z     vdW  Elec       q    Type
REMARK                         _______ _______ _______ _____ _____    ______ ____
ROOT
ATOM      1  S   UNL     1      36.133 -23.192 -15.668  0.00  0.00    -0.087 S 
ATOM      2  C   UNL     1      33.913 -23.112 -17.386  0.00  0.00    -0.013 C 
ATOM      3  C   UNL     1      35.256 -22.796 -17.098  0.00  0.00    +0.029 C 
ATOM      4  C   UNL     1      36.051 -22.088 -18.004  0.00  0.00    +0.040 C 
ATOM      5  C   UNL     1      35.472 -21.689 -19.233  0.00  0.00    +0.139 C 
ATOM      6  C   UNL     1      33.372 -22.704 -18.607  0.00  0.00    -0.001 C 
ATOM      7  C   UNL     1      34.142 -22.000 -19.522  0.00  0.00    +0.037 C 
ATOM      8  C   UNL     1      37.375 -21.889 -17.487  0.00  0.00    +0.010 C 
ATOM      9  C   UNL     1      37.550 -22.435 -16.237  0.00  0.00    +0.036 C 
ENDROOT
BRANCH   5  10
ATOM     10  O   UNL     1      36.201 -20.991 -20.164  0.00  0.00    -0.475 OA
BRANCH  10  11
ATOM     11  C   UNL     1      35.478 -20.099 -21.001  0.00  0.00    +0.213 C 
BRANCH  11  12
ATOM     12  C   UNL     1      36.447 -19.157 -21.709  0.00  0.00    +0.105 C 
BRANCH  12  15
ATOM     13  O   UNL     1      34.773 -17.662 -24.588  0.00  0.00    -0.449 OA
ATOM     14  N   UNL     1      35.664 -16.995 -22.619  0.00  0.00    -0.373 NA
ATOM     15  C   UNL     1      35.786 -18.336 -22.778  0.00  0.00    +0.134 C 
ATOM     16  C   UNL     1      35.260 -18.763 -23.949  0.00  0.00    +0.216 C 
ATOM     17  C   UNL     1      35.053 -16.644 -23.728  0.00  0.00    +0.277 C 
ATOM     18  C   UNL     1      35.111 -20.052 -24.632  0.00  0.00    +0.055 C 
BRANCH  17  19
ATOM     19  C   UNL     1      34.636 -15.341 -24.166  0.00  0.00    +0.066 C 
ATOM     20  C   UNL     1      34.090 -15.171 -25.442  0.00  0.00    +0.006 C 
ATOM     21  C   UNL     1      34.774 -14.237 -23.322  0.00  0.00    +0.006 C 
ATOM     22  C   UNL     1      33.685 -13.907 -25.869  0.00  0.00    +0.000 C 
ATOM     23  C   UNL     1      34.369 -12.972 -23.749  0.00  0.00    +0.000 C 
ATOM     24  C   UNL     1      33.825 -12.807 -25.022  0.00  0.00    +0.000 C 
ENDBRANCH  17  19
ENDBRANCH  12  15
ENDBRANCH  11  12
ENDBRANCH  10  11
ENDBRANCH   5  10
BRANCH   2  25
ATOM     25  C   UNL     1      33.039 -23.869 -16.438  0.00  0.00    +0.068 C 
BRANCH  25  26
ATOM     26  C   UNL     1      31.928 -22.996 -15.838  0.00  0.00    +0.218 C 
BRANCH  26  27
ATOM     27  O   UNL     1      31.906 -23.196 -14.429  0.00  0.00    -0.342 OA
ATOM     28  C   UNL     1      32.861 -24.167 -14.026  0.00  0.00    +0.175 C 
ENDBRANCH  26  27
BRANCH  26  30
ATOM     29  O   UNL     1      29.963 -24.411 -16.068  0.00  0.00    -0.248 OA
ATOM     30  C   UNL     1      30.568 -23.392 -16.376  0.00  0.00    +0.342 C 
BRANCH  30  31
ATOM     31  O   UNL     1      30.070 -22.471 -17.241  0.00  0.00    -0.479 OA
ATOM     32  H   UNL     1      29.772 -21.641 -16.920  0.00  0.00    +0.295 HD
ENDBRANCH  30  31
ENDBRANCH  26  30
ENDBRANCH  25  26
ENDBRANCH   2  25
TORSDOF 10
ENDMDL
MODEL 3
REMARK VINA RESULT:     -10.5      6.131     12.410
REMARK  Name = 10274777
REMARK  10 active torsions:
REMARK  status: ('A' for Active; 'I' for Inactive)
REMARK    1  A    between atoms: C_2  and  C_25
REMARK    2  A    between atoms: C_5  and  O_10
REMARK    3  A    between atoms: O_10  and  C_11
REMARK    4  A    between atoms: C_11  and  C_12
REMARK    5  A    between atoms: C_12  and  C_15
REMARK    6  A    between atoms: C_17  and  C_19
REMARK    7  A    between atoms: C_25  and  C_26
REMARK    8  A    between atoms: C_26  and  O_27
REMARK    9  A    between atoms: C_26  and  C_30
REMARK   10  A    between atoms: C_30  and  O_31
REMARK                            x       y       z     vdW  Elec       q    Type
REMARK                         _______ _______ _______ _____ _____    ______ ____
ROOT
ATOM      1  S   UNL     1      33.528  -9.882 -24.010  0.00  0.00    -0.087 S 
ATOM      2  C   UNL     1      32.218 -11.312 -21.979  0.00  0.00    -0.013 C 
ATOM      3  C   UNL     1      33.081 -11.271 -23.091  0.00  0.00    +0.029 C 
ATOM      4  C   UNL     1      33.694 -12.426 -23.584  0.00  0.00    +0.040 C 
ATOM      5  C   UNL     1      33.427 -13.655 -22.934  0.00  0.00    +0.139 C 
ATOM      6  C   UNL     1      31.974 -12.540 -21.360  0.00  0.00    -0.001 C 
ATOM      7  C   UNL     1      32.571 -13.700 -21.831  0.00  0.00    +0.037 C 
ATOM      8  C   UNL     1      34.524 -12.130 -24.717  0.00  0.00    +0.010 C 
ATOM      9  C   UNL     1      34.522 -10.796 -25.049  0.00  0.00    +0.036 C 
ENDROOT
BRANCH   5  10
ATOM     10  O   UNL     1      33.999 -14.824 -23.370  0.00  0.00    -0.475 OA
BRANCH  10  11
ATOM     11  C   UNL     1      34.916 -15.454 -22.485  0.00  0.00    +0.213 C 
BRANCH  11  12
ATOM     12  C   UNL     1      35.724 -16.504 -23.243  0.00  0.00    +0.105 C 
BRANCH  12  15
ATOM     13  O   UNL     1      34.675 -19.982 -22.883  0.00  0.00    -0.449 OA
ATOM     14  N   UNL     1      35.503 -18.325 -21.585  0.00  0.00    -0.373 NA
ATOM     15  C   UNL     1      35.351 -17.909 -22.866  0.00  0.00    +0.134 C 
ATOM     16  C   UNL     1      34.858 -18.882 -23.666  0.00  0.00    +0.216 C 
ATOM     17  C   UNL     1      35.084 -19.569 -21.651  0.00  0.00    +0.277 C 
ATOM     18  C   UNL     1      34.500 -19.004 -25.083  0.00  0.00    +0.055 C 
BRANCH  17  19
ATOM     19  C   UNL     1      34.995 -20.558 -20.614  0.00  0.00    +0.066 C 
ATOM     20  C   UNL     1      36.152 -21.010 -19.973  0.00  0.00    +0.006 C 
ATOM     21  C   UNL     1      33.752 -21.075 -20.239  0.00  0.00    +0.006 C 
ATOM     22  C   UNL     1      36.067 -21.971 -18.965  0.00  0.00    +0.000 C 
ATOM     23  C   UNL     1      33.667 -22.036 -19.231  0.00  0.00    +0.000 C 
ATOM     24  C   UNL     1      34.824 -22.484 -18.595  0.00  0.00    +0.000 C 
ENDBRANCH  17  19
ENDBRANCH  12  15
ENDBRANCH  11  12
ENDBRANCH  10  11
ENDBRANCH   5  10
BRANCH   2  25
ATOM     25  C   UNL     1      31.549 -10.093 -21.428  0.00  0.00    +0.068 C 
BRANCH  25  26
ATOM     26  C   UNL     1      32.390  -9.398 -20.348  0.00  0.00    +0.218 C 
BRANCH  26  27
ATOM     27  O   UNL     1      31.683  -9.460 -19.114  0.00  0.00    -0.342 OA
ATOM     28  C   UNL     1      31.991 -10.646 -18.396  0.00  0.00    +0.175 C 
ENDBRANCH  26  27
BRANCH  26  30
ATOM     29  O   UNL     1      31.975  -7.305 -21.515  0.00  0.00    -0.248 OA
ATOM     30  C   UNL     1      32.606  -7.935 -20.677  0.00  0.00    +0.342 C 
BRANCH  30  31
ATOM     31  O   UNL     1      33.583  -7.378 -19.915  0.00  0.00    -0.479 OA
ATOM     32  H   UNL     1      33.755  -7.712 -19.056  0.00  0.00    +0.295 HD
ENDBRANCH  30  31
ENDBRANCH  26  30
ENDBRANCH  25  26
ENDBRANCH   2  25
TORSDOF 10
ENDMDL
MODEL 4
REMARK VINA RESULT:     -10.5      6.235     13.121
REMARK  Name = 10274777
REMARK  10 active torsions:
REMARK  status: ('A' for Active; 'I' for Inactive)
REMARK    1  A    between atoms: C_2  and  C_25
REMARK    2  A    between atoms: C_5  and  O_10
REMARK    3  A    between atoms: O_10  and  C_11
REMARK    4  A    between atoms: C_11  and  C_12
REMARK    5  A    between atoms: C_12  and  C_15
REMARK    6  A    between atoms: C_17  and  C_19
REMARK    7  A    between atoms: C_25  and  C_26
REMARK    8  A    between atoms: C_26  and  O_27
REMARK    9  A    between atoms: C_26  and  C_30
REMARK   10  A    between atoms: C_30  and  O_31
REMARK                            x       y       z     vdW  Elec       q    Type
REMARK                         _______ _______ _______ _____ _____    ______ ____
ROOT
ATOM      1  S   UNL     1      31.450 -10.785 -20.579  0.00  0.00    -0.087 S 
ATOM      2  C   UNL     1      32.734 -10.579 -23.068  0.00  0.00    -0.013 C 
ATOM      3  C   UNL     1      32.384 -11.323 -21.924  0.00  0.00    +0.029 C 
ATOM      4  C   UNL     1      32.788 -12.652 -21.764  0.00  0.00    +0.040 C 
ATOM      5  C   UNL     1      33.566 -13.243 -22.789  0.00  0.00    +0.139 C 
ATOM      6  C   UNL     1      33.502 -11.190 -24.061  0.00  0.00    -0.001 C 
ATOM      7  C   UNL     1      33.915 -12.508 -23.925  0.00  0.00    +0.037 C 
ATOM      8  C   UNL     1      32.311 -13.194 -20.523  0.00  0.00    +0.010 C 
ATOM      9  C   UNL     1      31.577 -12.291 -19.791  0.00  0.00    +0.036 C 
ENDROOT
BRANCH   5  10
ATOM     10  O   UNL     1      33.994 -14.544 -22.691  0.00  0.00    -0.475 OA
BRANCH  10  11
ATOM     11  C   UNL     1      34.469 -15.150 -23.886  0.00  0.00    +0.213 C 
BRANCH  11  12
ATOM     12  C   UNL     1      35.689 -16.012 -23.576  0.00  0.00    +0.105 C 
BRANCH  12  15
ATOM     13  O   UNL     1      34.647 -19.499 -23.288  0.00  0.00    -0.449 OA
ATOM     14  N   UNL     1      35.536 -17.888 -21.973  0.00  0.00    -0.373 NA
ATOM     15  C   UNL     1      35.330 -17.428 -23.231  0.00  0.00    +0.134 C 
ATOM     16  C   UNL     1      34.798 -18.373 -24.040  0.00  0.00    +0.216 C 
ATOM     17  C   UNL     1      35.112 -19.128 -22.063  0.00  0.00    +0.277 C 
ATOM     18  C   UNL     1      34.378 -18.446 -25.443  0.00  0.00    +0.055 C 
BRANCH  17  19
ATOM     19  C   UNL     1      35.065 -20.152 -21.056  0.00  0.00    +0.066 C 
ATOM     20  C   UNL     1      36.251 -20.665 -20.521  0.00  0.00    +0.006 C 
ATOM     21  C   UNL     1      33.837 -20.642 -20.607  0.00  0.00    +0.006 C 
ATOM     22  C   UNL     1      36.208 -21.660 -19.545  0.00  0.00    +0.000 C 
ATOM     23  C   UNL     1      33.793 -21.637 -19.629  0.00  0.00    +0.000 C 
ATOM     24  C   UNL     1      34.978 -22.146 -19.098  0.00  0.00    +0.000 C 
ENDBRANCH  17  19
ENDBRANCH  12  15
ENDBRANCH  11  12
ENDBRANCH  10  11
ENDBRANCH   5  10
BRANCH   2  25
ATOM     25  C   UNL     1      32.315  -9.157 -23.267  0.00  0.00    +0.068 C 
BRANCH  25  26
ATOM     26  C   UNL     1      33.498  -8.182 -23.203  0.00  0.00    +0.218 C 
BRANCH  26  27
ATOM     27  O   UNL     1      33.665  -7.758 -21.855  0.00  0.00    -0.342 OA
ATOM     28  C   UNL     1      32.452  -7.254 -21.314  0.00  0.00    +0.175 C 
ENDBRANCH  26  27
BRANCH  26  30
ATOM     29  O   UNL     1      32.198  -6.719 -24.648  0.00  0.00    -0.248 OA
ATOM     30  C   UNL     1      33.236  -6.945 -24.040  0.00  0.00    +0.342 C 
BRANCH  30  31
ATOM     31  O   UNL     1      34.289  -6.087 -24.031  0.00  0.00    -0.479 OA
ATOM     32  H   UNL     1      34.665  -5.817 -23.216  0.00  0.00    +0.295 HD
ENDBRANCH  30  31
ENDBRANCH  26  30
ENDBRANCH  25  26
ENDBRANCH   2  25
TORSDOF 10
ENDMDL
MODEL 5
REMARK VINA RESULT:     -10.4      2.931      4.338
REMARK  Name = 10274777
REMARK  10 active torsions:
REMARK  status: ('A' for Active; 'I' for Inactive)
REMARK    1  A    between atoms: C_2  and  C_25
REMARK    2  A    between atoms: C_5  and  O_10
REMARK    3  A    between atoms: O_10  and  C_11
REMARK    4  A    between atoms: C_11  and  C_12
REMARK    5  A    between atoms: C_12  and  C_15
REMARK    6  A    between atoms: C_17  and  C_19
REMARK    7  A    between atoms: C_25  and  C_26
REMARK    8  A    between atoms: C_26  and  O_27
REMARK    9  A    between atoms: C_26  and  C_30
REMARK   10  A    between atoms: C_30  and  O_31
REMARK                            x       y       z     vdW  Elec       q    Type
REMARK                         _______ _______ _______ _____ _____    ______ ____
ROOT
ATOM      1  S   UNL     1      36.178 -23.149 -14.910  0.00  0.00    -0.087 S 
ATOM      2  C   UNL     1      33.734 -23.308 -16.283  0.00  0.00    -0.013 C 
ATOM      3  C   UNL     1      35.113 -23.027 -16.261  0.00  0.00    +0.029 C 
ATOM      4  C   UNL     1      35.790 -22.594 -17.404  0.00  0.00    +0.040 C 
ATOM      5  C   UNL     1      35.051 -22.442 -18.602  0.00  0.00    +0.139 C 
ATOM      6  C   UNL     1      33.033 -23.149 -17.480  0.00  0.00    -0.001 C 
ATOM      7  C   UNL     1      33.682 -22.721 -18.629  0.00  0.00    +0.037 C 
ATOM      8  C   UNL     1      37.182 -22.372 -17.132  0.00  0.00    +0.010 C 
ATOM      9  C   UNL     1      37.520 -22.635 -15.825  0.00  0.00    +0.036 C 
ENDROOT
BRANCH   5  10
ATOM     10  O   UNL     1      35.658 -22.021 -19.759  0.00  0.00    -0.475 OA
BRANCH  10  11
ATOM     11  C   UNL     1      35.161 -20.822 -20.339  0.00  0.00    +0.213 C 
BRANCH  11  12
ATOM     12  C   UNL     1      36.307 -20.050 -20.988  0.00  0.00    +0.105 C 
BRANCH  12  15
ATOM     13  O   UNL     1      35.140 -17.760 -23.580  0.00  0.00    -0.449 OA
ATOM     14  N   UNL     1      35.662 -17.696 -21.380  0.00  0.00    -0.373 NA
ATOM     15  C   UNL     1      35.831 -18.943 -21.883  0.00  0.00    +0.134 C 
ATOM     16  C   UNL     1      35.525 -19.011 -23.199  0.00  0.00    +0.216 C 
ATOM     17  C   UNL     1      35.249 -17.030 -22.435  0.00  0.00    +0.277 C 
ATOM     18  C   UNL     1      35.518 -20.054 -24.230  0.00  0.00    +0.055 C 
BRANCH  17  19
ATOM     19  C   UNL     1      34.895 -15.644 -22.558  0.00  0.00    +0.066 C 
ATOM     20  C   UNL     1      34.571 -14.898 -21.421  0.00  0.00    +0.006 C 
ATOM     21  C   UNL     1      34.870 -15.032 -23.815  0.00  0.00    +0.006 C 
ATOM     22  C   UNL     1      34.226 -13.552 -21.539  0.00  0.00    +0.000 C 
ATOM     23  C   UNL     1      34.526 -13.685 -23.933  0.00  0.00    +0.000 C 
ATOM     24  C   UNL     1      34.204 -12.945 -22.796  0.00  0.00    +0.000 C 
ENDBRANCH  17  19
ENDBRANCH  12  15
ENDBRANCH  11  12
ENDBRANCH  10  11
ENDBRANCH   5  10
BRANCH   2  25
ATOM     25  C   UNL     1      32.983 -23.774 -15.076  0.00  0.00    +0.068 C 
BRANCH  25  26
ATOM     26  C   UNL     1      31.490 -23.990 -15.359  0.00  0.00    +0.218 C 
BRANCH  26  27
ATOM     27  O   UNL     1      30.775 -22.837 -14.931  0.00  0.00    -0.342 OA
ATOM     28  C   UNL     1      29.496 -22.760 -15.544  0.00  0.00    +0.175 C 
ENDBRANCH  26  27
BRANCH  26  30
ATOM     29  O   UNL     1      30.406 -26.150 -15.085  0.00  0.00    -0.248 OA
ATOM     30  C   UNL     1      30.950 -25.175 -14.584  0.00  0.00    +0.342 C 
BRANCH  30  31
ATOM     31  O   UNL     1      31.154 -25.048 -13.247  0.00  0.00    -0.479 OA
ATOM     32  H   UNL     1      31.697 -24.358 -12.920  0.00  0.00    +0.295 HD
ENDBRANCH  30  31
ENDBRANCH  26  30
ENDBRANCH  25  26
ENDBRANCH   2  25
TORSDOF 10
ENDMDL
MODEL 6
REMARK VINA RESULT:     -10.4      7.376     11.648
REMARK  Name = 10274777
REMARK  10 active torsions:
REMARK  status: ('A' for Active; 'I' for Inactive)
REMARK    1  A    between atoms: C_2  and  C_25
REMARK    2  A    between atoms: C_5  and  O_10
REMARK    3  A    between atoms: O_10  and  C_11
REMARK    4  A    between atoms: C_11  and  C_12
REMARK    5  A    between atoms: C_12  and  C_15
REMARK    6  A    between atoms: C_17  and  C_19
REMARK    7  A    between atoms: C_25  and  C_26
REMARK    8  A    between atoms: C_26  and  O_27
REMARK    9  A    between atoms: C_26  and  C_30
REMARK   10  A    between atoms: C_30  and  O_31
REMARK                            x       y       z     vdW  Elec       q    Type
REMARK                         _______ _______ _______ _____ _____    ______ ____
ROOT
ATOM      1  S   UNL     1      34.654 -16.222 -25.607  0.00  0.00    -0.087 S 
ATOM      2  C   UNL     1      35.107 -16.197 -22.836  0.00  0.00    -0.013 C 
ATOM      3  C   UNL     1      34.586 -15.601 -24.000  0.00  0.00    +0.029 C 
ATOM      4  C   UNL     1      33.922 -14.371 -23.958  0.00  0.00    +0.040 C 
ATOM      5  C   UNL     1      33.783 -13.729 -22.704  0.00  0.00    +0.139 C 
ATOM      6  C   UNL     1      34.954 -15.539 -21.614  0.00  0.00    -0.001 C 
ATOM      7  C   UNL     1      34.299 -14.317 -21.546  0.00  0.00    +0.037 C 
ATOM      8  C   UNL     1      33.485 -13.972 -25.265  0.00  0.00    +0.010 C 
ATOM      9  C   UNL     1      33.816 -14.881 -26.242  0.00  0.00    +0.036 C 
ENDROOT
BRANCH   5  10
ATOM     10  O   UNL     1      33.142 -12.520 -22.596  0.00  0.00    -0.475 OA
BRANCH  10  11
ATOM     11  C   UNL     1      32.131 -12.421 -21.601  0.00  0.00    +0.213 C 
BRANCH  11  12
ATOM     12  C   UNL     1      31.147 -11.315 -21.975  0.00  0.00    +0.105 C 
BRANCH  12  15
ATOM     13  O   UNL     1      32.745  -8.068 -21.496  0.00  0.00    -0.449 OA
ATOM     14  N   UNL     1      31.943  -9.321 -23.200  0.00  0.00    -0.373 NA
ATOM     15  C   UNL     1      31.786  -9.956 -22.014  0.00  0.00    +0.134 C 
ATOM     16  C   UNL     1      32.258  -9.229 -20.976  0.00  0.00    +0.216 C 
ATOM     17  C   UNL     1      32.520  -8.198 -22.833  0.00  0.00    +0.277 C 
ATOM     18  C   UNL     1      32.354  -9.401 -19.523  0.00  0.00    +0.055 C 
BRANCH  17  19
ATOM     19  C   UNL     1      32.948  -7.087 -23.637  0.00  0.00    +0.066 C 
ATOM     20  C   UNL     1      34.281  -6.992 -24.050  0.00  0.00    +0.006 C 
ATOM     21  C   UNL     1      32.038  -6.095 -24.009  0.00  0.00    +0.006 C 
ATOM     22  C   UNL     1      34.698  -5.914 -24.830  0.00  0.00    +0.000 C 
ATOM     23  C   UNL     1      32.455  -5.016 -24.789  0.00  0.00    +0.000 C 
ATOM     24  C   UNL     1      33.785  -4.925 -25.199  0.00  0.00    +0.000 C 
ENDBRANCH  17  19
ENDBRANCH  12  15
ENDBRANCH  11  12
ENDBRANCH  10  11
ENDBRANCH   5  10
BRANCH   2  25
ATOM     25  C   UNL     1      35.820 -17.512 -22.850  0.00  0.00    +0.068 C 
BRANCH  25  26
ATOM     26  C   UNL     1      35.677 -18.272 -21.524  0.00  0.00    +0.218 C 
BRANCH  26  27
ATOM     27  O   UNL     1      36.976 -18.606 -21.049  0.00  0.00    -0.342 OA
ATOM     28  C   UNL     1      37.920 -18.659 -22.110  0.00  0.00    +0.175 C 
ENDBRANCH  26  27
BRANCH  26  30
ATOM     29  O   UNL     1      34.645 -20.360 -20.821  0.00  0.00    -0.248 OA
ATOM     30  C   UNL     1      34.915 -19.569 -21.715  0.00  0.00    +0.342 C 
BRANCH  30  31
ATOM     31  O   UNL     1      34.538 -19.756 -23.006  0.00  0.00    -0.479 OA
ATOM     32  H   UNL     1      33.854 -20.364 -23.211  0.00  0.00    +0.295 HD
ENDBRANCH  30  31
ENDBRANCH  26  30
ENDBRANCH  25  26
ENDBRANCH   2  25
TORSDOF 10
ENDMDL
MODEL 7
REMARK VINA RESULT:     -10.4      1.212      1.996
REMARK  Name = 10274777
REMARK  10 active torsions:
REMARK  status: ('A' for Active; 'I' for Inactive)
REMARK    1  A    between atoms: C_2  and  C_25
REMARK    2  A    between atoms: C_5  and  O_10
REMARK    3  A    between atoms: O_10  and  C_11
REMARK    4  A    between atoms: C_11  and  C_12
REMARK    5  A    between atoms: C_12  and  C_15
REMARK    6  A    between atoms: C_17  and  C_19
REMARK    7  A    between atoms: C_25  and  C_26
REMARK    8  A    between atoms: C_26  and  O_27
REMARK    9  A    between atoms: C_26  and  C_30
REMARK   10  A    between atoms: C_30  and  O_31
REMARK                            x       y       z     vdW  Elec       q    Type
REMARK                         _______ _______ _______ _____ _____    ______ ____
ROOT
ATOM      1  S   UNL     1      31.751 -24.715 -13.544  0.00  0.00    -0.087 S 
ATOM      2  C   UNL     1      34.400 -24.080 -14.226  0.00  0.00    -0.013 C 
ATOM      3  C   UNL     1      33.052 -24.271 -14.585  0.00  0.00    +0.029 C 
ATOM      4  C   UNL     1      32.616 -24.108 -15.903  0.00  0.00    +0.040 C 
ATOM      5  C   UNL     1      33.570 -23.741 -16.882  0.00  0.00    +0.139 C 
ATOM      6  C   UNL     1      35.317 -23.718 -15.215  0.00  0.00    -0.001 C 
ATOM      7  C   UNL     1      34.908 -23.550 -16.531  0.00  0.00    +0.037 C 
ATOM      8  C   UNL     1      31.207 -24.357 -16.018  0.00  0.00    +0.010 C 
ATOM      9  C   UNL     1      30.623 -24.694 -14.821  0.00  0.00    +0.036 C 
ENDROOT
BRANCH   5  10
ATOM     10  O   UNL     1      33.204 -23.566 -18.194  0.00  0.00    -0.475 OA
BRANCH  10  11
ATOM     11  C   UNL     1      34.112 -22.845 -19.018  0.00  0.00    +0.213 C 
BRANCH  11  12
ATOM     12  C   UNL     1      33.456 -21.555 -19.501  0.00  0.00    +0.105 C 
BRANCH  12  15
ATOM     13  O   UNL     1      36.060 -19.812 -21.374  0.00  0.00    -0.449 OA
ATOM     14  N   UNL     1      33.806 -20.001 -21.392  0.00  0.00    -0.373 NA
ATOM     15  C   UNL     1      34.348 -20.749 -20.401  0.00  0.00    +0.134 C 
ATOM     16  C   UNL     1      35.697 -20.655 -20.367  0.00  0.00    +0.216 C 
ATOM     17  C   UNL     1      34.872 -19.462 -21.941  0.00  0.00    +0.277 C 
ATOM     18  C   UNL     1      36.775 -21.217 -19.547  0.00  0.00    +0.055 C 
BRANCH  17  19
ATOM     19  C   UNL     1      34.967 -18.558 -23.053  0.00  0.00    +0.066 C 
ATOM     20  C   UNL     1      34.438 -18.917 -24.297  0.00  0.00    +0.006 C 
ATOM     21  C   UNL     1      35.590 -17.317 -22.900  0.00  0.00    +0.006 C 
ATOM     22  C   UNL     1      34.530 -18.040 -25.377  0.00  0.00    +0.000 C 
ATOM     23  C   UNL     1      35.683 -16.440 -23.981  0.00  0.00    +0.000 C 
ATOM     24  C   UNL     1      35.153 -16.801 -25.220  0.00  0.00    +0.000 C 
ENDBRANCH  17  19
ENDBRANCH  12  15
ENDBRANCH  11  12
ENDBRANCH  10  11
ENDBRANCH   5  10
BRANCH   2  25
ATOM     25  C   UNL     1      34.896 -24.245 -12.824  0.00  0.00    +0.068 C 
BRANCH  25  26
ATOM     26  C   UNL     1      36.427 -24.324 -12.747  0.00  0.00    +0.218 C 
BRANCH  26  27
ATOM     27  O   UNL     1      36.812 -25.694 -12.770  0.00  0.00    -0.342 OA
ATOM     28  C   UNL     1      38.220 -25.836 -12.899  0.00  0.00    +0.175 C 
ENDBRANCH  26  27
BRANCH  26  30
ATOM     29  O   UNL     1      37.714 -22.779 -11.379  0.00  0.00    -0.248 OA
ATOM     30  C   UNL     1      36.943 -23.727 -11.454  0.00  0.00    +0.342 C 
BRANCH  30  31
ATOM     31  O   UNL     1      36.436 -24.354 -10.361  0.00  0.00    -0.479 OA
ATOM     32  H   UNL     1      35.859 -23.894  -9.782  0.00  0.00    +0.295 HD
ENDBRANCH  30  31
ENDBRANCH  26  30
ENDBRANCH  25  26
ENDBRANCH   2  25
TORSDOF 10
ENDMDL
MODEL 8
REMARK VINA RESULT:     -10.1     10.701     14.777
REMARK  Name = 10274777
REMARK  10 active torsions:
REMARK  status: ('A' for Active; 'I' for Inactive)
REMARK    1  A    between atoms: C_2  and  C_25
REMARK    2  A    between atoms: C_5  and  O_10
REMARK    3  A    between atoms: O_10  and  C_11
REMARK    4  A    between atoms: C_11  and  C_12
REMARK    5  A    between atoms: C_12  and  C_15
REMARK    6  A    between atoms: C_17  and  C_19
REMARK    7  A    between atoms: C_25  and  C_26
REMARK    8  A    between atoms: C_26  and  O_27
REMARK    9  A    between atoms: C_26  and  C_30
REMARK   10  A    between atoms: C_30  and  O_31
REMARK                            x       y       z     vdW  Elec       q    Type
REMARK                         _______ _______ _______ _____ _____    ______ ____
ROOT
ATOM      1  S   UNL     1      32.837 -13.782 -21.574  0.00  0.00    -0.087 S 
ATOM      2  C   UNL     1      33.765 -12.222 -23.717  0.00  0.00    -0.013 C 
ATOM      3  C   UNL     1      33.039 -12.353 -22.518  0.00  0.00    +0.029 C 
ATOM      4  C   UNL     1      32.370 -11.267 -21.945  0.00  0.00    +0.040 C 
ATOM      5  C   UNL     1      32.440 -10.015 -22.604  0.00  0.00    +0.139 C 
ATOM      6  C   UNL     1      33.815 -10.974 -24.342  0.00  0.00    -0.001 C 
ATOM      7  C   UNL     1      33.160  -9.881 -23.794  0.00  0.00    +0.037 C 
ATOM      8  C   UNL     1      31.704 -11.647 -20.732  0.00  0.00    +0.010 C 
ATOM      9  C   UNL     1      31.876 -12.975 -20.421  0.00  0.00    +0.036 C 
ENDROOT
BRANCH   5  10
ATOM     10  O   UNL     1      31.806  -8.911 -22.092  0.00  0.00    -0.475 OA
BRANCH  10  11
ATOM     11  C   UNL     1      32.161  -8.527 -20.770  0.00  0.00    +0.213 C 
BRANCH  11  12
ATOM     12  C   UNL     1      33.075  -7.306 -20.816  0.00  0.00    +0.105 C 
BRANCH  12  15
ATOM     13  O   UNL     1      32.123  -5.162 -23.614  0.00  0.00    -0.449 OA
ATOM     14  N   UNL     1      33.857  -6.486 -23.014  0.00  0.00    -0.373 NA
ATOM     15  C   UNL     1      32.892  -6.488 -22.062  0.00  0.00    +0.134 C 
ATOM     16  C   UNL     1      31.842  -5.702 -22.395  0.00  0.00    +0.216 C 
ATOM     17  C   UNL     1      33.346  -5.679 -23.917  0.00  0.00    +0.277 C 
ATOM     18  C   UNL     1      30.563  -5.333 -21.780  0.00  0.00    +0.055 C 
BRANCH  17  19
ATOM     19  C   UNL     1      33.890  -5.262 -25.180  0.00  0.00    +0.066 C 
ATOM     20  C   UNL     1      35.190  -5.630 -25.541  0.00  0.00    +0.006 C 
ATOM     21  C   UNL     1      33.125  -4.486 -26.054  0.00  0.00    +0.006 C 
ATOM     22  C   UNL     1      35.719  -5.226 -26.766  0.00  0.00    +0.000 C 
ATOM     23  C   UNL     1      33.655  -4.081 -27.280  0.00  0.00    +0.000 C 
ATOM     24  C   UNL     1      34.951  -4.451 -27.636  0.00  0.00    +0.000 C 
ENDBRANCH  17  19
ENDBRANCH  12  15
ENDBRANCH  11  12
ENDBRANCH  10  11
ENDBRANCH   5  10
BRANCH   2  25
ATOM     25  C   UNL     1      34.491 -13.365 -24.352  0.00  0.00    +0.068 C 
BRANCH  25  26
ATOM     26  C   UNL     1      33.542 -14.345 -25.057  0.00  0.00    +0.218 C 
BRANCH  26  27
ATOM     27  O   UNL     1      33.967 -15.673 -24.772  0.00  0.00    -0.342 OA
ATOM     28  C   UNL     1      35.167 -15.683 -24.011  0.00  0.00    +0.175 C 
ENDBRANCH  26  27
BRANCH  26  30
ATOM     29  O   UNL     1      33.516 -13.089 -27.140  0.00  0.00    -0.248 OA
ATOM     30  C   UNL     1      33.586 -14.165 -26.561  0.00  0.00    +0.342 C 
BRANCH  30  31
ATOM     31  O   UNL     1      33.732 -15.347 -27.214  0.00  0.00    -0.479 OA
ATOM     32  H   UNL     1      34.084 -15.362 -28.083  0.00  0.00    +0.295 HD
ENDBRANCH  30  31
ENDBRANCH  26  30
ENDBRANCH  25  26
ENDBRANCH   2  25
TORSDOF 10
ENDMDL
MODEL 9
REMARK VINA RESULT:     -10.1      1.734      2.809
REMARK  Name = 10274777
REMARK  10 active torsions:
REMARK  status: ('A' for Active; 'I' for Inactive)
REMARK    1  A    between atoms: C_2  and  C_25
REMARK    2  A    between atoms: C_5  and  O_10
REMARK    3  A    between atoms: O_10  and  C_11
REMARK    4  A    between atoms: C_11  and  C_12
REMARK    5  A    between atoms: C_12  and  C_15
REMARK    6  A    between atoms: C_17  and  C_19
REMARK    7  A    between atoms: C_25  and  C_26
REMARK    8  A    between atoms: C_26  and  O_27
REMARK    9  A    between atoms: C_26  and  C_30
REMARK   10  A    between atoms: C_30  and  O_31
REMARK                            x       y       z     vdW  Elec       q    Type
REMARK                         _______ _______ _______ _____ _____    ______ ____
ROOT
ATOM      1  S   UNL     1      33.630 -23.618 -15.802  0.00  0.00    -0.087 S 
ATOM      2  C   UNL     1      36.309 -22.791 -15.962  0.00  0.00    -0.013 C 
ATOM      3  C   UNL     1      35.051 -23.002 -16.560  0.00  0.00    +0.029 C 
ATOM      4  C   UNL     1      34.824 -22.712 -17.908  0.00  0.00    +0.040 C 
ATOM      5  C   UNL     1      35.898 -22.196 -18.672  0.00  0.00    +0.139 C 
ATOM      6  C   UNL     1      37.348 -22.280 -16.742  0.00  0.00    -0.001 C 
ATOM      7  C   UNL     1      37.147 -21.985 -18.083  0.00  0.00    +0.037 C 
ATOM      8  C   UNL     1      33.471 -23.011 -18.283  0.00  0.00    +0.010 C 
ATOM      9  C   UNL     1      32.723 -23.505 -17.240  0.00  0.00    +0.036 C 
ENDROOT
BRANCH   5  10
ATOM     10  O   UNL     1      35.739 -21.892 -20.001  0.00  0.00    -0.475 OA
BRANCH  10  11
ATOM     11  C   UNL     1      35.319 -20.568 -20.306  0.00  0.00    +0.213 C 
BRANCH  11  12
ATOM     12  C   UNL     1      36.396 -19.862 -21.126  0.00  0.00    +0.105 C 
BRANCH  12  15
ATOM     13  O   UNL     1      35.036 -17.620 -23.665  0.00  0.00    -0.449 OA
ATOM     14  N   UNL     1      35.657 -17.532 -21.492  0.00  0.00    -0.373 NA
ATOM     15  C   UNL     1      35.843 -18.774 -22.000  0.00  0.00    +0.134 C 
ATOM     16  C   UNL     1      35.478 -18.856 -23.300  0.00  0.00    +0.216 C 
ATOM     17  C   UNL     1      35.174 -16.883 -22.528  0.00  0.00    +0.277 C 
ATOM     18  C   UNL     1      35.458 -19.902 -24.328  0.00  0.00    +0.055 C 
BRANCH  17  19
ATOM     19  C   UNL     1      34.770 -15.509 -22.637  0.00  0.00    +0.066 C 
ATOM     20  C   UNL     1      34.273 -14.832 -21.519  0.00  0.00    +0.006 C 
ATOM     21  C   UNL     1      34.870 -14.841 -23.860  0.00  0.00    +0.006 C 
ATOM     22  C   UNL     1      33.880 -13.498 -21.623  0.00  0.00    +0.000 C 
ATOM     23  C   UNL     1      34.477 -13.506 -23.964  0.00  0.00    +0.000 C 
ATOM     24  C   UNL     1      33.982 -12.835 -22.847  0.00  0.00    +0.000 C 
ENDBRANCH  17  19
ENDBRANCH  12  15
ENDBRANCH  11  12
ENDBRANCH  10  11
ENDBRANCH   5  10
BRANCH   2  25
ATOM     25  C   UNL     1      36.581 -23.089 -14.522  0.00  0.00    +0.068 C 
BRANCH  25  26
ATOM     26  C   UNL     1      36.876 -24.575 -14.276  0.00  0.00    +0.218 C 
BRANCH  26  27
ATOM     27  O   UNL     1      36.498 -24.898 -12.942  0.00  0.00    -0.342 OA
ATOM     28  C   UNL     1      35.423 -24.084 -12.495  0.00  0.00    +0.175 C 
ENDBRANCH  26  27
BRANCH  26  30
ATOM     29  O   UNL     1      39.210 -24.568 -13.589  0.00  0.00    -0.248 OA
ATOM     30  C   UNL     1      38.357 -24.870 -14.413  0.00  0.00    +0.342 C 
BRANCH  30  31
ATOM     31  O   UNL     1      38.642 -25.536 -15.562  0.00  0.00    -0.479 OA
ATOM     32  H   UNL     1      39.449 -25.372 -16.010  0.00  0.00    +0.295 HD
ENDBRANCH  30  31
ENDBRANCH  26  30
ENDBRANCH  25  26
ENDBRANCH   2  25
TORSDOF 10
ENDMDL
