MODEL 1
REMARK VINA RESULT:     -11.2      0.000      0.000
REMARK  Name = 9823820
REMARK  6 active torsions:
REMARK  status: ('A' for Active; 'I' for Inactive)
REMARK    1  A    between atoms: O_1  and  C_4
REMARK    2  A    between atoms: O_1  and  C_23
REMARK    3  A    between atoms: C_7  and  C_14
REMARK    4  A    between atoms: C_8  and  O_17
REMARK    5  A    between atoms: C_20  and  N_28
REMARK    6  A    between atoms: N_27  and  C_32
REMARK                            x       y       z     vdW  Elec       q    Type
REMARK                         _______ _______ _______ _____ _____    ______ ____
ROOT
ATOM      1  O   UNL     1      34.104 -23.670 -18.486  0.00  0.00    -0.454 OA
ENDROOT
BRANCH   1   4
ATOM      2  N   UNL     1      32.373 -23.266 -14.739  0.00  0.00    -0.248 NA
ATOM      3  C   UNL     1      34.297 -23.814 -16.083  0.00  0.00    +0.031 C 
ATOM      4  C   UNL     1      33.556 -23.544 -17.242  0.00  0.00    +0.144 C 
ATOM      5  C   UNL     1      33.656 -23.660 -14.836  0.00  0.00    +0.066 C 
ATOM      6  C   UNL     1      35.638 -24.228 -16.146  0.00  0.00    +0.064 C 
ATOM      7  C   UNL     1      36.350 -24.490 -14.979  0.00  0.00    +0.065 C 
ATOM      8  C   UNL     1      35.726 -24.340 -13.747  0.00  0.00    +0.123 C 
ATOM      9  C   UNL     1      34.393 -23.929 -13.684  0.00  0.00    +0.109 C 
ATOM     10  C   UNL     1      32.234 -23.137 -17.146  0.00  0.00    +0.058 C 
ATOM     11  C   UNL     1      31.694 -23.015 -15.882  0.00  0.00    +0.102 C 
BRANCH   7  14
ATOM     12  O   UNL     1      38.673 -24.127 -14.848  0.00  0.00    -0.271 OA
ATOM     13  N   UNL     1      37.987 -26.245 -15.396  0.00  0.00    -0.325 N 
ATOM     14  C   UNL     1      37.739 -24.917 -15.070  0.00  0.00    +0.242 C 
ATOM     15  H   UNL     1      38.914 -26.571 -15.466  0.00  0.00    +0.145 HD
ATOM     16  H   UNL     1      37.236 -26.862 -15.556  0.00  0.00    +0.145 HD
ENDBRANCH   7  14
BRANCH   8  17
ATOM     17  O   UNL     1      36.397 -24.588 -12.587  0.00  0.00    -0.475 OA
ATOM     18  C   UNL     1      36.853 -23.455 -11.847  0.00  0.00    +0.252 C 
ENDBRANCH   8  17
ENDBRANCH   1   4
BRANCH   1  23
ATOM     19 CL   UNL     1      37.418 -20.289 -20.309  0.00  0.00    -0.081 Cl
ATOM     20  C   UNL     1      34.715 -20.196 -20.674  0.00  0.00    +0.062 C 
ATOM     21  C   UNL     1      35.802 -20.868 -20.114  0.00  0.00    +0.074 C 
ATOM     22  C   UNL     1      33.423 -20.692 -20.498  0.00  0.00    +0.019 C 
ATOM     23  C   UNL     1      34.308 -22.513 -19.215  0.00  0.00    +0.146 C 
ATOM     24  C   UNL     1      35.597 -22.036 -19.380  0.00  0.00    +0.050 C 
ATOM     25  C   UNL     1      33.218 -21.860 -19.763  0.00  0.00    +0.039 C 
BRANCH  20  28
ATOM     26  O   UNL     1      35.211 -19.807 -23.610  0.00  0.00    -0.252 OA
ATOM     27  N   UNL     1      35.231 -17.542 -23.155  0.00  0.00    -0.290 N 
ATOM     28  N   UNL     1      34.885 -19.024 -21.416  0.00  0.00    -0.268 N 
ATOM     29  C   UNL     1      35.117 -18.890 -22.797  0.00  0.00    +0.304 C 
ATOM     30  H   UNL     1      35.145 -16.858 -22.453  0.00  0.00    +0.151 HD
ATOM     31  H   UNL     1      34.836 -18.183 -20.906  0.00  0.00    +0.156 HD
BRANCH  27  32
ATOM     32  C   UNL     1      35.471 -17.115 -24.504  0.00  0.00    +0.073 C 
ATOM     33  C   UNL     1      34.827 -15.878 -25.041  0.00  0.00    +0.021 C 
ATOM     34  C   UNL     1      34.402 -17.227 -25.542  0.00  0.00    +0.021 C 
ENDBRANCH  27  32
ENDBRANCH  20  28
ENDBRANCH   1  23
TORSDOF 6
ENDMDL
MODEL 2
REMARK VINA RESULT:     -10.8      0.998      1.331
REMARK  Name = 9823820
REMARK  6 active torsions:
REMARK  status: ('A' for Active; 'I' for Inactive)
REMARK    1  A    between atoms: O_1  and  C_4
REMARK    2  A    between atoms: O_1  and  C_23
REMARK    3  A    between atoms: C_7  and  C_14
REMARK    4  A    between atoms: C_8  and  O_17
REMARK    5  A    between atoms: C_20  and  N_28
REMARK    6  A    between atoms: N_27  and  C_32
REMARK                            x       y       z     vdW  Elec       q    Type
REMARK                         _______ _______ _______ _____ _____    ______ ____
ROOT
ATOM      1  O   UNL     1      34.340 -23.734 -18.393  0.00  0.00    -0.454 OA
ENDROOT
BRANCH   1   4
ATOM      2  N   UNL     1      32.589 -23.321 -14.657  0.00  0.00    -0.248 NA
ATOM      3  C   UNL     1      34.534 -23.823 -15.987  0.00  0.00    +0.031 C 
ATOM      4  C   UNL     1      33.785 -23.604 -17.152  0.00  0.00    +0.144 C 
ATOM      5  C   UNL     1      33.886 -23.668 -14.744  0.00  0.00    +0.066 C 
ATOM      6  C   UNL     1      35.889 -24.186 -16.041  0.00  0.00    +0.064 C 
ATOM      7  C   UNL     1      36.609 -24.398 -14.869  0.00  0.00    +0.065 C 
ATOM      8  C   UNL     1      35.979 -24.247 -13.641  0.00  0.00    +0.123 C 
ATOM      9  C   UNL     1      34.630 -23.886 -13.587  0.00  0.00    +0.109 C 
ATOM     10  C   UNL     1      32.448 -23.246 -17.066  0.00  0.00    +0.058 C 
ATOM     11  C   UNL     1      31.902 -23.119 -15.805  0.00  0.00    +0.102 C 
BRANCH   7  14
ATOM     12  O   UNL     1      38.877 -23.966 -15.335  0.00  0.00    -0.271 OA
ATOM     13  N   UNL     1      38.362 -26.063 -14.565  0.00  0.00    -0.325 N 
ATOM     14  C   UNL     1      38.014 -24.773 -14.951  0.00  0.00    +0.242 C 
ATOM     15  H   UNL     1      39.302 -26.353 -14.606  0.00  0.00    +0.145 HD
ATOM     16  H   UNL     1      37.668 -26.687 -14.250  0.00  0.00    +0.145 HD
ENDBRANCH   7  14
BRANCH   8  17
ATOM     17  O   UNL     1      36.657 -24.446 -12.475  0.00  0.00    -0.475 OA
ATOM     18  C   UNL     1      37.153 -23.286 -11.808  0.00  0.00    +0.252 C 
ENDBRANCH   8  17
ENDBRANCH   1   4
BRANCH   1  23
ATOM     19 CL   UNL     1      32.346 -20.060 -21.267  0.00  0.00    -0.081 Cl
ATOM     20  C   UNL     1      34.980 -20.268 -20.586  0.00  0.00    +0.062 C 
ATOM     21  C   UNL     1      33.696 -20.805 -20.490  0.00  0.00    +0.074 C 
ATOM     22  C   UNL     1      36.048 -20.895 -19.944  0.00  0.00    +0.019 C 
ATOM     23  C   UNL     1      34.552 -22.578 -19.123  0.00  0.00    +0.146 C 
ATOM     24  C   UNL     1      33.481 -21.970 -19.753  0.00  0.00    +0.050 C 
ATOM     25  C   UNL     1      35.833 -22.060 -19.206  0.00  0.00    +0.039 C 
BRANCH  20  28
ATOM     26  O   UNL     1      35.082 -19.814 -23.553  0.00  0.00    -0.252 OA
ATOM     27  N   UNL     1      35.554 -17.610 -23.050  0.00  0.00    -0.290 N 
ATOM     28  N   UNL     1      35.231 -19.103 -21.316  0.00  0.00    -0.268 N 
ATOM     29  C   UNL     1      35.269 -18.937 -22.712  0.00  0.00    +0.304 C 
ATOM     30  H   UNL     1      35.693 -16.958 -22.325  0.00  0.00    +0.151 HD
ATOM     31  H   UNL     1      35.404 -18.293 -20.783  0.00  0.00    +0.156 HD
BRANCH  27  32
ATOM     32  C   UNL     1      35.654 -17.158 -24.408  0.00  0.00    +0.073 C 
ATOM     33  C   UNL     1      34.958 -15.913 -24.854  0.00  0.00    +0.021 C 
ATOM     34  C   UNL     1      34.485 -17.254 -25.333  0.00  0.00    +0.021 C 
ENDBRANCH  27  32
ENDBRANCH  20  28
ENDBRANCH   1  23
TORSDOF 6
ENDMDL
MODEL 3
REMARK VINA RESULT:     -10.7      2.260      3.797
REMARK  Name = 9823820
REMARK  6 active torsions:
REMARK  status: ('A' for Active; 'I' for Inactive)
REMARK    1  A    between atoms: O_1  and  C_4
REMARK    2  A    between atoms: O_1  and  C_23
REMARK    3  A    between atoms: C_7  and  C_14
REMARK    4  A    between atoms: C_8  and  O_17
REMARK    5  A    between atoms: C_20  and  N_28
REMARK    6  A    between atoms: N_27  and  C_32
REMARK                            x       y       z     vdW  Elec       q    Type
REMARK                         _______ _______ _______ _____ _____    ______ ____
ROOT
ATOM      1  O   UNL     1      34.597 -23.069 -19.043  0.00  0.00    -0.454 OA
ENDROOT
BRANCH   1   4
ATOM      2  N   UNL     1      35.367 -22.862 -14.973  0.00  0.00    -0.248 NA
ATOM      3  C   UNL     1      33.779 -23.100 -16.770  0.00  0.00    +0.031 C 
ATOM      4  C   UNL     1      34.826 -23.003 -17.698  0.00  0.00    +0.144 C 
ATOM      5  C   UNL     1      34.100 -23.023 -15.399  0.00  0.00    +0.066 C 
ATOM      6  C   UNL     1      32.446 -23.268 -17.179  0.00  0.00    +0.064 C 
ATOM      7  C   UNL     1      31.426 -23.361 -16.237  0.00  0.00    +0.065 C 
ATOM      8  C   UNL     1      31.734 -23.287 -14.884  0.00  0.00    +0.123 C 
ATOM      9  C   UNL     1      33.061 -23.119 -14.478  0.00  0.00    +0.109 C 
ATOM     10  C   UNL     1      36.132 -22.838 -17.263  0.00  0.00    +0.058 C 
ATOM     11  C   UNL     1      36.347 -22.774 -15.901  0.00  0.00    +0.102 C 
BRANCH   7  14
ATOM     12  O   UNL     1      29.460 -22.644 -17.316  0.00  0.00    -0.271 OA
ATOM     13  N   UNL     1      29.428 -24.745 -16.400  0.00  0.00    -0.325 N 
ATOM     14  C   UNL     1      30.052 -23.536 -16.685  0.00  0.00    +0.242 C 
ATOM     15  H   UNL     1      28.499 -24.901 -16.688  0.00  0.00    +0.145 HD
ATOM     16  H   UNL     1      29.915 -25.447 -15.910  0.00  0.00    +0.145 HD
ENDBRANCH   7  14
BRANCH   8  17
ATOM     17  O   UNL     1      30.758 -23.376 -13.937  0.00  0.00    -0.475 OA
ATOM     18  C   UNL     1      30.743 -24.553 -13.131  0.00  0.00    +0.252 C 
ENDBRANCH   8  17
ENDBRANCH   1   4
BRANCH   1  23
ATOM     19 CL   UNL     1      37.630 -19.496 -20.983  0.00  0.00    -0.081 Cl
ATOM     20  C   UNL     1      34.911 -19.547 -21.217  0.00  0.00    +0.062 C 
ATOM     21  C   UNL     1      36.059 -20.163 -20.718  0.00  0.00    +0.074 C 
ATOM     22  C   UNL     1      33.659 -20.115 -20.986  0.00  0.00    +0.019 C 
ATOM     23  C   UNL     1      34.702 -21.896 -19.768  0.00  0.00    +0.146 C 
ATOM     24  C   UNL     1      35.953 -21.347 -19.988  0.00  0.00    +0.050 C 
ATOM     25  C   UNL     1      33.553 -21.299 -20.256  0.00  0.00    +0.039 C 
BRANCH  20  28
ATOM     26  O   UNL     1      35.012 -19.102 -24.186  0.00  0.00    -0.252 OA
ATOM     27  N   UNL     1      35.094 -16.846 -23.695  0.00  0.00    -0.290 N 
ATOM     28  N   UNL     1      34.981 -18.361 -21.953  0.00  0.00    -0.268 N 
ATOM     29  C   UNL     1      35.028 -18.201 -23.350  0.00  0.00    +0.304 C 
ATOM     30  H   UNL     1      35.102 -16.176 -22.974  0.00  0.00    +0.151 HD
ATOM     31  H   UNL     1      35.002 -17.530 -21.426  0.00  0.00    +0.156 HD
BRANCH  27  32
ATOM     32  C   UNL     1      35.152 -16.394 -25.055  0.00  0.00    +0.073 C 
ATOM     33  C   UNL     1      34.433 -15.155 -25.481  0.00  0.00    +0.021 C 
ATOM     34  C   UNL     1      33.958 -16.500 -25.947  0.00  0.00    +0.021 C 
ENDBRANCH  27  32
ENDBRANCH  20  28
ENDBRANCH   1  23
TORSDOF 6
ENDMDL
MODEL 4
REMARK VINA RESULT:     -10.5      7.383     11.693
REMARK  Name = 9823820
REMARK  6 active torsions:
REMARK  status: ('A' for Active; 'I' for Inactive)
REMARK    1  A    between atoms: O_1  and  C_4
REMARK    2  A    between atoms: O_1  and  C_23
REMARK    3  A    between atoms: C_7  and  C_14
REMARK    4  A    between atoms: C_8  and  O_17
REMARK    5  A    between atoms: C_20  and  N_28
REMARK    6  A    between atoms: N_27  and  C_32
REMARK                            x       y       z     vdW  Elec       q    Type
REMARK                         _______ _______ _______ _____ _____    ______ ____
ROOT
ATOM      1  O   UNL     1      34.810 -13.667 -23.557  0.00  0.00    -0.454 OA
ENDROOT
BRANCH   1   4
ATOM      2  N   UNL     1      33.632 -16.286 -26.548  0.00  0.00    -0.248 NA
ATOM      3  C   UNL     1      34.696 -15.921 -24.417  0.00  0.00    +0.031 C 
ATOM      4  C   UNL     1      34.432 -14.548 -24.529  0.00  0.00    +0.144 C 
ATOM      5  C   UNL     1      34.272 -16.764 -25.465  0.00  0.00    +0.066 C 
ATOM      6  C   UNL     1      35.361 -16.454 -23.301  0.00  0.00    +0.064 C 
ATOM      7  C   UNL     1      35.610 -17.821 -23.216  0.00  0.00    +0.065 C 
ATOM      8  C   UNL     1      35.196 -18.658 -24.244  0.00  0.00    +0.123 C 
ATOM      9  C   UNL     1      34.534 -18.127 -25.354  0.00  0.00    +0.109 C 
ATOM     10  C   UNL     1      33.773 -14.052 -25.643  0.00  0.00    +0.058 C 
ATOM     11  C   UNL     1      33.397 -14.955 -26.617  0.00  0.00    +0.102 C 
BRANCH   7  14
ATOM     12  O   UNL     1      35.701 -18.549 -20.978  0.00  0.00    -0.271 OA
ATOM     13  N   UNL     1      37.653 -18.646 -22.177  0.00  0.00    -0.325 N 
ATOM     14  C   UNL     1      36.301 -18.350 -22.049  0.00  0.00    +0.242 C 
ATOM     15  H   UNL     1      38.154 -19.006 -21.409  0.00  0.00    +0.145 HD
ATOM     16  H   UNL     1      38.111 -18.495 -23.036  0.00  0.00    +0.145 HD
ENDBRANCH   7  14
BRANCH   8  17
ATOM     17  O   UNL     1      35.424 -20.001 -24.189  0.00  0.00    -0.475 OA
ATOM     18  C   UNL     1      35.363 -20.719 -25.421  0.00  0.00    +0.252 C 
ENDBRANCH   8  17
ENDBRANCH   1   4
BRANCH   1  23
ATOM     19 CL   UNL     1      30.967 -11.281 -21.260  0.00  0.00    -0.081 Cl
ATOM     20  C   UNL     1      32.590 -10.182 -23.159  0.00  0.00    +0.062 C 
ATOM     21  C   UNL     1      32.273 -11.302 -22.390  0.00  0.00    +0.074 C 
ATOM     22  C   UNL     1      33.653 -10.234 -24.060  0.00  0.00    +0.019 C 
ATOM     23  C   UNL     1      34.071 -12.506 -23.423  0.00  0.00    +0.146 C 
ATOM     24  C   UNL     1      33.020 -12.473 -22.523  0.00  0.00    +0.050 C 
ATOM     25  C   UNL     1      34.399 -11.405 -24.194  0.00  0.00    +0.039 C 
BRANCH  20  28
ATOM     26  O   UNL     1      33.432  -7.469 -22.182  0.00  0.00    -0.252 OA
ATOM     27  N   UNL     1      31.268  -6.800 -22.631  0.00  0.00    -0.290 N 
ATOM     28  N   UNL     1      31.864  -8.993 -23.050  0.00  0.00    -0.268 N 
ATOM     29  C   UNL     1      32.302  -7.741 -22.583  0.00  0.00    +0.304 C 
ATOM     30  H   UNL     1      30.386  -7.085 -22.965  0.00  0.00    +0.151 HD
ATOM     31  H   UNL     1      30.923  -9.038 -23.336  0.00  0.00    +0.156 HD
BRANCH  27  32
ATOM     32  C   UNL     1      31.437  -5.438 -22.213  0.00  0.00    +0.073 C 
ATOM     33  C   UNL     1      30.254  -4.553 -21.988  0.00  0.00    +0.021 C 
ATOM     34  C   UNL     1      31.165  -4.310 -23.155  0.00  0.00    +0.021 C 
ENDBRANCH  27  32
ENDBRANCH  20  28
ENDBRANCH   1  23
TORSDOF 6
ENDMDL
MODEL 5
REMARK VINA RESULT:     -10.4      1.897      3.122
REMARK  Name = 9823820
REMARK  6 active torsions:
REMARK  status: ('A' for Active; 'I' for Inactive)
REMARK    1  A    between atoms: O_1  and  C_4
REMARK    2  A    between atoms: O_1  and  C_23
REMARK    3  A    between atoms: C_7  and  C_14
REMARK    4  A    between atoms: C_8  and  O_17
REMARK    5  A    between atoms: C_20  and  N_28
REMARK    6  A    between atoms: N_27  and  C_32
REMARK                            x       y       z     vdW  Elec       q    Type
REMARK                         _______ _______ _______ _____ _____    ______ ____
ROOT
ATOM      1  O   UNL     1      34.714 -22.735 -18.383  0.00  0.00    -0.454 OA
ENDROOT
BRANCH   1   4
ATOM      2  N   UNL     1      37.634 -22.609 -15.441  0.00  0.00    -0.248 NA
ATOM      3  C   UNL     1      35.377 -23.141 -16.097  0.00  0.00    +0.031 C 
ATOM      4  C   UNL     1      35.659 -22.703 -17.398  0.00  0.00    +0.144 C 
ATOM      5  C   UNL     1      36.408 -23.075 -15.137  0.00  0.00    +0.066 C 
ATOM      6  C   UNL     1      34.110 -23.634 -15.744  0.00  0.00    +0.064 C 
ATOM      7  C   UNL     1      33.857 -24.063 -14.445  0.00  0.00    +0.065 C 
ATOM      8  C   UNL     1      34.868 -24.001 -13.494  0.00  0.00    +0.123 C 
ATOM      9  C   UNL     1      36.128 -23.511 -13.845  0.00  0.00    +0.109 C 
ATOM     10  C   UNL     1      36.920 -22.222 -17.715  0.00  0.00    +0.058 C 
ATOM     11  C   UNL     1      37.865 -22.196 -16.709  0.00  0.00    +0.102 C 
BRANCH   7  14
ATOM     12  O   UNL     1      32.190 -25.726 -14.404  0.00  0.00    -0.271 OA
ATOM     13  N   UNL     1      31.677 -23.723 -13.412  0.00  0.00    -0.325 N 
ATOM     14  C   UNL     1      32.536 -24.570 -14.104  0.00  0.00    +0.242 C 
ATOM     15  H   UNL     1      30.775 -24.031 -13.163  0.00  0.00    +0.145 HD
ATOM     16  H   UNL     1      31.970 -22.815 -13.170  0.00  0.00    +0.145 HD
ENDBRANCH   7  14
BRANCH   8  17
ATOM     17  O   UNL     1      34.652 -24.415 -12.213  0.00  0.00    -0.475 OA
ATOM     18  C   UNL     1      35.799 -24.561 -11.378  0.00  0.00    +0.252 C 
ENDBRANCH   8  17
ENDBRANCH   1   4
BRANCH   1  23
ATOM     19 CL   UNL     1      37.634 -19.651 -21.158  0.00  0.00    -0.081 Cl
ATOM     20  C   UNL     1      34.916 -19.823 -21.334  0.00  0.00    +0.062 C 
ATOM     21  C   UNL     1      36.084 -20.275 -20.720  0.00  0.00    +0.074 C 
ATOM     22  C   UNL     1      33.681 -20.350 -20.958  0.00  0.00    +0.019 C 
ATOM     23  C   UNL     1      34.782 -21.766 -19.367  0.00  0.00    +0.146 C 
ATOM     24  C   UNL     1      36.016 -21.254 -19.729  0.00  0.00    +0.050 C 
ATOM     25  C   UNL     1      33.613 -21.330 -19.966  0.00  0.00    +0.039 C 
BRANCH  20  28
ATOM     26  O   UNL     1      35.387 -16.863 -21.141  0.00  0.00    -0.252 OA
ATOM     27  N   UNL     1      35.125 -16.822 -23.436  0.00  0.00    -0.290 N 
ATOM     28  N   UNL     1      34.948 -18.844 -22.331  0.00  0.00    -0.268 N 
ATOM     29  C   UNL     1      35.173 -17.462 -22.193  0.00  0.00    +0.304 C 
ATOM     30  H   UNL     1      34.949 -17.363 -24.239  0.00  0.00    +0.151 HD
ATOM     31  H   UNL     1      34.792 -19.163 -23.250  0.00  0.00    +0.156 HD
BRANCH  27  32
ATOM     32  C   UNL     1      35.320 -15.409 -23.589  0.00  0.00    +0.073 C 
ATOM     33  C   UNL     1      34.411 -14.433 -22.915  0.00  0.00    +0.021 C 
ATOM     34  C   UNL     1      34.373 -14.591 -24.406  0.00  0.00    +0.021 C 
ENDBRANCH  27  32
ENDBRANCH  20  28
ENDBRANCH   1  23
TORSDOF 6
ENDMDL
MODEL 6
REMARK VINA RESULT:     -10.1      1.399      1.492
REMARK  Name = 9823820
REMARK  6 active torsions:
REMARK  status: ('A' for Active; 'I' for Inactive)
REMARK    1  A    between atoms: O_1  and  C_4
REMARK    2  A    between atoms: O_1  and  C_23
REMARK    3  A    between atoms: C_7  and  C_14
REMARK    4  A    between atoms: C_8  and  O_17
REMARK    5  A    between atoms: C_20  and  N_28
REMARK    6  A    between atoms: N_27  and  C_32
REMARK                            x       y       z     vdW  Elec       q    Type
REMARK                         _______ _______ _______ _____ _____    ______ ____
ROOT
ATOM      1  O   UNL     1      35.016 -23.042 -18.733  0.00  0.00    -0.454 OA
ENDROOT
BRANCH   1   4
ATOM      2  N   UNL     1      32.159 -23.148 -15.730  0.00  0.00    -0.248 NA
ATOM      3  C   UNL     1      34.432 -23.518 -16.439  0.00  0.00    +0.031 C 
ATOM      4  C   UNL     1      34.093 -23.086 -17.729  0.00  0.00    +0.144 C 
ATOM      5  C   UNL     1      33.419 -23.534 -15.458  0.00  0.00    +0.066 C 
ATOM      6  C   UNL     1      35.737 -23.928 -16.119  0.00  0.00    +0.064 C 
ATOM      7  C   UNL     1      36.046 -24.354 -14.831  0.00  0.00    +0.065 C 
ATOM      8  C   UNL     1      35.054 -24.371 -13.858  0.00  0.00    +0.123 C 
ATOM      9  C   UNL     1      33.756 -23.963 -14.176  0.00  0.00    +0.109 C 
ATOM     10  C   UNL     1      32.795 -22.688 -18.013  0.00  0.00    +0.058 C 
ATOM     11  C   UNL     1      31.874 -22.737 -16.987  0.00  0.00    +0.102 C 
BRANCH   7  14
ATOM     12  O   UNL     1      38.370 -24.001 -14.673  0.00  0.00    -0.271 OA
ATOM     13  N   UNL     1      37.591 -26.062 -14.037  0.00  0.00    -0.325 N 
ATOM     14  C   UNL     1      37.406 -24.773 -14.523  0.00  0.00    +0.242 C 
ATOM     15  H   UNL     1      38.496 -26.381 -13.817  0.00  0.00    +0.145 HD
ATOM     16  H   UNL     1      36.816 -26.657 -13.911  0.00  0.00    +0.145 HD
ENDBRANCH   7  14
BRANCH   8  17
ATOM     17  O   UNL     1      35.326 -24.781 -12.587  0.00  0.00    -0.475 OA
ATOM     18  C   UNL     1      35.707 -23.775 -11.649  0.00  0.00    +0.252 C 
ENDBRANCH   8  17
ENDBRANCH   1   4
BRANCH   1  23
ATOM     19 CL   UNL     1      37.599 -19.410 -21.156  0.00  0.00    -0.081 Cl
ATOM     20  C   UNL     1      34.900 -19.788 -21.306  0.00  0.00    +0.062 C 
ATOM     21  C   UNL     1      36.117 -20.211 -20.772  0.00  0.00    +0.074 C 
ATOM     22  C   UNL     1      33.723 -20.459 -20.977  0.00  0.00    +0.019 C 
ATOM     23  C   UNL     1      34.978 -21.959 -19.591  0.00  0.00    +0.146 C 
ATOM     24  C   UNL     1      36.156 -21.305 -19.908  0.00  0.00    +0.050 C 
ATOM     25  C   UNL     1      33.762 -21.553 -20.112  0.00  0.00    +0.039 C 
BRANCH  20  28
ATOM     26  O   UNL     1      35.466 -16.876 -20.829  0.00  0.00    -0.252 OA
ATOM     27  N   UNL     1      34.906 -16.556 -23.046  0.00  0.00    -0.290 N 
ATOM     28  N   UNL     1      34.826 -18.696 -22.176  0.00  0.00    -0.268 N 
ATOM     29  C   UNL     1      35.100 -17.343 -21.906  0.00  0.00    +0.304 C 
ATOM     30  H   UNL     1      34.613 -16.996 -23.878  0.00  0.00    +0.151 HD
ATOM     31  H   UNL     1      34.543 -18.900 -23.097  0.00  0.00    +0.156 HD
BRANCH  27  32
ATOM     32  C   UNL     1      35.114 -15.137 -23.056  0.00  0.00    +0.073 C 
ATOM     33  C   UNL     1      34.038 -14.202 -22.607  0.00  0.00    +0.021 C 
ATOM     34  C   UNL     1      34.421 -14.270 -24.056  0.00  0.00    +0.021 C 
ENDBRANCH  27  32
ENDBRANCH  20  28
ENDBRANCH   1  23
TORSDOF 6
ENDMDL
MODEL 7
REMARK VINA RESULT:     -10.0      3.526     10.503
REMARK  Name = 9823820
REMARK  6 active torsions:
REMARK  status: ('A' for Active; 'I' for Inactive)
REMARK    1  A    between atoms: O_1  and  C_4
REMARK    2  A    between atoms: O_1  and  C_23
REMARK    3  A    between atoms: C_7  and  C_14
REMARK    4  A    between atoms: C_8  and  O_17
REMARK    5  A    between atoms: C_20  and  N_28
REMARK    6  A    between atoms: N_27  and  C_32
REMARK                            x       y       z     vdW  Elec       q    Type
REMARK                         _______ _______ _______ _____ _____    ______ ____
ROOT
ATOM      1  O   UNL     1      36.100 -18.730 -22.093  0.00  0.00    -0.454 OA
ENDROOT
BRANCH   1   4
ATOM      2  N   UNL     1      34.426 -18.699 -25.887  0.00  0.00    -0.248 NA
ATOM      3  C   UNL     1      35.047 -17.504 -23.889  0.00  0.00    +0.031 C 
ATOM      4  C   UNL     1      35.544 -18.695 -23.340  0.00  0.00    +0.144 C 
ATOM      5  C   UNL     1      34.489 -17.553 -25.183  0.00  0.00    +0.066 C 
ATOM      6  C   UNL     1      35.097 -16.291 -23.182  0.00  0.00    +0.064 C 
ATOM      7  C   UNL     1      34.596 -15.124 -23.751  0.00  0.00    +0.065 C 
ATOM      8  C   UNL     1      34.045 -15.164 -25.025  0.00  0.00    +0.123 C 
ATOM      9  C   UNL     1      33.996 -16.371 -25.728  0.00  0.00    +0.109 C 
ATOM     10  C   UNL     1      35.481 -19.877 -24.063  0.00  0.00    +0.058 C 
ATOM     11  C   UNL     1      34.917 -19.825 -25.321  0.00  0.00    +0.102 C 
BRANCH   7  14
ATOM     12  O   UNL     1      34.557 -13.865 -21.760  0.00  0.00    -0.271 OA
ATOM     13  N   UNL     1      34.859 -12.702 -23.713  0.00  0.00    -0.325 N 
ATOM     14  C   UNL     1      34.660 -13.879 -22.999  0.00  0.00    +0.242 C 
ATOM     15  H   UNL     1      34.908 -11.840 -23.239  0.00  0.00    +0.145 HD
ATOM     16  H   UNL     1      34.952 -12.731 -24.693  0.00  0.00    +0.145 HD
ENDBRANCH   7  14
BRANCH   8  17
ATOM     17  O   UNL     1      33.547 -14.037 -25.609  0.00  0.00    -0.475 OA
ATOM     18  C   UNL     1      33.566 -13.985 -27.035  0.00  0.00    +0.252 C 
ENDBRANCH   8  17
ENDBRANCH   1   4
BRANCH   1  23
ATOM     19 CL   UNL     1      37.160 -22.039 -18.398  0.00  0.00    -0.081 Cl
ATOM     20  C   UNL     1      34.678 -21.585 -19.437  0.00  0.00    +0.062 C 
ATOM     21  C   UNL     1      36.037 -21.268 -19.459  0.00  0.00    +0.074 C 
ATOM     22  C   UNL     1      33.798 -20.941 -20.307  0.00  0.00    +0.019 C 
ATOM     23  C   UNL     1      35.627 -19.680 -21.208  0.00  0.00    +0.146 C 
ATOM     24  C   UNL     1      36.514 -20.308 -20.352  0.00  0.00    +0.050 C 
ATOM     25  C   UNL     1      34.276 -19.981 -21.199  0.00  0.00    +0.039 C 
BRANCH  20  28
ATOM     26  O   UNL     1      31.972 -21.794 -18.150  0.00  0.00    -0.252 OA
ATOM     27  N   UNL     1      32.764 -23.717 -17.144  0.00  0.00    -0.290 N 
ATOM     28  N   UNL     1      34.166 -22.541 -18.555  0.00  0.00    -0.268 N 
ATOM     29  C   UNL     1      32.886 -22.598 -17.975  0.00  0.00    +0.304 C 
ATOM     30  H   UNL     1      33.536 -24.320 -17.049  0.00  0.00    +0.151 HD
ATOM     31  H   UNL     1      34.781 -23.268 -18.308  0.00  0.00    +0.156 HD
BRANCH  27  32
ATOM     32  C   UNL     1      31.561 -24.021 -16.424  0.00  0.00    +0.073 C 
ATOM     33  C   UNL     1      31.094 -23.143 -15.308  0.00  0.00    +0.021 C 
ATOM     34  C   UNL     1      31.619 -24.517 -15.016  0.00  0.00    +0.021 C 
ENDBRANCH  27  32
ENDBRANCH  20  28
ENDBRANCH   1  23
TORSDOF 6
ENDMDL
MODEL 8
REMARK VINA RESULT:      -9.7      2.890     10.838
REMARK  Name = 9823820
REMARK  6 active torsions:
REMARK  status: ('A' for Active; 'I' for Inactive)
REMARK    1  A    between atoms: O_1  and  C_4
REMARK    2  A    between atoms: O_1  and  C_23
REMARK    3  A    between atoms: C_7  and  C_14
REMARK    4  A    between atoms: C_8  and  O_17
REMARK    5  A    between atoms: C_20  and  N_28
REMARK    6  A    between atoms: N_27  and  C_32
REMARK                            x       y       z     vdW  Elec       q    Type
REMARK                         _______ _______ _______ _____ _____    ______ ____
ROOT
ATOM      1  O   UNL     1      36.234 -18.270 -22.259  0.00  0.00    -0.454 OA
ENDROOT
BRANCH   1   4
ATOM      2  N   UNL     1      34.284 -18.507 -25.911  0.00  0.00    -0.248 NA
ATOM      3  C   UNL     1      35.006 -17.183 -24.032  0.00  0.00    +0.031 C 
ATOM      4  C   UNL     1      35.587 -18.323 -23.460  0.00  0.00    +0.144 C 
ATOM      5  C   UNL     1      34.356 -17.323 -25.275  0.00  0.00    +0.066 C 
ATOM      6  C   UNL     1      35.061 -15.932 -23.396  0.00  0.00    +0.064 C 
ATOM      7  C   UNL     1      34.475 -14.815 -23.986  0.00  0.00    +0.065 C 
ATOM      8  C   UNL     1      33.834 -14.945 -25.212  0.00  0.00    +0.123 C 
ATOM      9  C   UNL     1      33.779 -16.190 -25.843  0.00  0.00    +0.109 C 
ATOM     10  C   UNL     1      35.515 -19.545 -24.112  0.00  0.00    +0.058 C 
ATOM     11  C   UNL     1      34.858 -19.583 -25.325  0.00  0.00    +0.102 C 
BRANCH   7  14
ATOM     12  O   UNL     1      34.370 -13.434 -22.082  0.00  0.00    -0.271 OA
ATOM     13  N   UNL     1      34.838 -12.408 -24.079  0.00  0.00    -0.325 N 
ATOM     14  C   UNL     1      34.547 -13.529 -23.309  0.00  0.00    +0.242 C 
ATOM     15  H   UNL     1      34.896 -11.521 -23.655  0.00  0.00    +0.145 HD
ATOM     16  H   UNL     1      34.989 -12.502 -25.047  0.00  0.00    +0.145 HD
ENDBRANCH   7  14
BRANCH   8  17
ATOM     17  O   UNL     1      33.252 -13.871 -25.816  0.00  0.00    -0.475 OA
ATOM     18  C   UNL     1      33.474 -13.716 -27.216  0.00  0.00    +0.252 C 
ENDBRANCH   8  17
ENDBRANCH   1   4
BRANCH   1  23
ATOM     19 CL   UNL     1      32.834 -21.211 -19.908  0.00  0.00    -0.081 Cl
ATOM     20  C   UNL     1      35.537 -21.345 -19.559  0.00  0.00    +0.062 C 
ATOM     21  C   UNL     1      34.466 -20.727 -20.203  0.00  0.00    +0.074 C 
ATOM     22  C   UNL     1      36.843 -20.930 -19.823  0.00  0.00    +0.019 C 
ATOM     23  C   UNL     1      36.001 -19.295 -21.360  0.00  0.00    +0.146 C 
ATOM     24  C   UNL     1      34.700 -19.694 -21.111  0.00  0.00    +0.050 C 
ATOM     25  C   UNL     1      37.077 -19.897 -20.731  0.00  0.00    +0.039 C 
BRANCH  20  28
ATOM     26  O   UNL     1      36.618 -21.727 -16.782  0.00  0.00    -0.252 OA
ATOM     27  N   UNL     1      35.429 -23.707 -16.753  0.00  0.00    -0.290 N 
ATOM     28  N   UNL     1      35.339 -22.383 -18.645  0.00  0.00    -0.268 N 
ATOM     29  C   UNL     1      35.869 -22.520 -17.349  0.00  0.00    +0.304 C 
ATOM     30  H   UNL     1      34.829 -24.298 -17.264  0.00  0.00    +0.151 HD
ATOM     31  H   UNL     1      34.752 -23.114 -18.947  0.00  0.00    +0.156 HD
BRANCH  27  32
ATOM     32  C   UNL     1      35.817 -24.101 -15.429  0.00  0.00    +0.073 C 
ATOM     33  C   UNL     1      37.210 -24.561 -15.144  0.00  0.00    +0.021 C 
ATOM     34  C   UNL     1      36.071 -25.536 -15.102  0.00  0.00    +0.021 C 
ENDBRANCH  27  32
ENDBRANCH  20  28
ENDBRANCH   1  23
TORSDOF 6
ENDMDL
MODEL 9
REMARK VINA RESULT:      -9.4      2.679      4.226
REMARK  Name = 9823820
REMARK  6 active torsions:
REMARK  status: ('A' for Active; 'I' for Inactive)
REMARK    1  A    between atoms: O_1  and  C_4
REMARK    2  A    between atoms: O_1  and  C_23
REMARK    3  A    between atoms: C_7  and  C_14
REMARK    4  A    between atoms: C_8  and  O_17
REMARK    5  A    between atoms: C_20  and  N_28
REMARK    6  A    between atoms: N_27  and  C_32
REMARK                            x       y       z     vdW  Elec       q    Type
REMARK                         _______ _______ _______ _____ _____    ______ ____
ROOT
ATOM      1  O   UNL     1      36.150 -20.151 -20.738  0.00  0.00    -0.454 OA
ENDROOT
BRANCH   1   4
ATOM      2  N   UNL     1      32.983 -22.280 -19.116  0.00  0.00    -0.248 NA
ATOM      3  C   UNL     1      35.296 -21.613 -19.016  0.00  0.00    +0.031 C 
ATOM      4  C   UNL     1      35.123 -20.860 -20.186  0.00  0.00    +0.144 C 
ATOM      5  C   UNL     1      34.185 -22.317 -18.510  0.00  0.00    +0.066 C 
ATOM      6  C   UNL     1      36.535 -21.674 -18.358  0.00  0.00    +0.064 C 
ATOM      7  C   UNL     1      36.681 -22.430 -17.198  0.00  0.00    +0.065 C 
ATOM      8  C   UNL     1      35.590 -23.126 -16.693  0.00  0.00    +0.123 C 
ATOM      9  C   UNL     1      34.358 -23.065 -17.348  0.00  0.00    +0.109 C 
ATOM     10  C   UNL     1      33.886 -20.820 -20.813  0.00  0.00    +0.058 C 
ATOM     11  C   UNL     1      32.858 -21.541 -20.242  0.00  0.00    +0.102 C 
BRANCH   7  14
ATOM     12  O   UNL     1      38.616 -21.439 -16.292  0.00  0.00    -0.271 OA
ATOM     13  N   UNL     1      38.463 -23.723 -16.157  0.00  0.00    -0.325 N 
ATOM     14  C   UNL     1      37.975 -22.477 -16.533  0.00  0.00    +0.242 C 
ATOM     15  H   UNL     1      39.335 -23.795 -15.704  0.00  0.00    +0.145 HD
ATOM     16  H   UNL     1      37.938 -24.535 -16.342  0.00  0.00    +0.145 HD
ENDBRANCH   7  14
BRANCH   8  17
ATOM     17  O   UNL     1      35.700 -23.874 -15.558  0.00  0.00    -0.475 OA
ATOM     18  C   UNL     1      34.507 -24.481 -15.065  0.00  0.00    +0.252 C 
ENDBRANCH   8  17
ENDBRANCH   1   4
BRANCH   1  23
ATOM     19 CL   UNL     1      34.326 -19.376 -25.408  0.00  0.00    -0.081 Cl
ATOM     20  C   UNL     1      35.218 -17.423 -23.725  0.00  0.00    +0.062 C 
ATOM     21  C   UNL     1      34.992 -18.784 -23.929  0.00  0.00    +0.074 C 
ATOM     22  C   UNL     1      35.756 -16.978 -22.517  0.00  0.00    +0.019 C 
ATOM     23  C   UNL     1      35.838 -19.242 -21.733  0.00  0.00    +0.146 C 
ATOM     24  C   UNL     1      35.305 -19.700 -22.925  0.00  0.00    +0.050 C 
ATOM     25  C   UNL     1      36.069 -17.895 -21.513  0.00  0.00    +0.039 C 
BRANCH  20  28
ATOM     26  O   UNL     1      33.828 -14.768 -23.512  0.00  0.00    -0.252 OA
ATOM     27  N   UNL     1      34.148 -14.586 -25.792  0.00  0.00    -0.290 N 
ATOM     28  N   UNL     1      34.915 -16.477 -24.709  0.00  0.00    -0.268 N 
ATOM     29  C   UNL     1      34.258 -15.242 -24.562  0.00  0.00    +0.304 C 
ATOM     30  H   UNL     1      34.516 -15.022 -26.594  0.00  0.00    +0.151 HD
ATOM     31  H   UNL     1      35.197 -16.706 -25.624  0.00  0.00    +0.156 HD
BRANCH  27  32
ATOM     32  C   UNL     1      33.520 -13.304 -25.935  0.00  0.00    +0.073 C 
ATOM     33  C   UNL     1      33.899 -12.385 -27.051  0.00  0.00    +0.021 C 
ATOM     34  C   UNL     1      34.271 -12.047 -25.637  0.00  0.00    +0.021 C 
ENDBRANCH  27  32
ENDBRANCH  20  28
ENDBRANCH   1  23
TORSDOF 6
ENDMDL
