MODEL 1
REMARK VINA RESULT:     -11.9      0.000      0.000
REMARK  Name = 24875320
REMARK  6 active torsions:
REMARK  status: ('A' for Active; 'I' for Inactive)
REMARK    1  A    between atoms: C_1  and  N_22
REMARK    2  A    between atoms: C_3  and  C_10
REMARK    3  A    between atoms: N_9  and  C_12
REMARK    4  A    between atoms: C_14  and  C_21
REMARK    5  A    between atoms: N_22  and  C_25
REMARK    6  A    between atoms: C_28  and  C_32
REMARK                            x       y       z     vdW  Elec       q    Type
REMARK                         _______ _______ _______ _____ _____    ______ ____
ROOT
ATOM      1  C   UNL     1      34.908 -23.142 -15.699  0.00  0.00    +0.044 C 
ATOM      2  C   UNL     1      33.616 -23.591 -15.970  0.00  0.00    -0.008 C 
ATOM      3  C   UNL     1      35.128 -22.395 -17.987  0.00  0.00    +0.055 C 
ATOM      4  C   UNL     1      35.664 -22.544 -16.707  0.00  0.00    +0.019 C 
ATOM      5  C   UNL     1      33.079 -23.442 -17.249  0.00  0.00    -0.003 C 
ATOM      6  C   UNL     1      33.835 -22.844 -18.257  0.00  0.00    +0.004 C 
ATOM      7  C   UNL     1      32.783 -24.234 -14.909  0.00  0.00    +0.032 C 
ENDROOT
BRANCH   3  10
ATOM      8  O   UNL     1      37.129 -22.029 -19.115  0.00  0.00    -0.270 OA
ATOM      9  N   UNL     1      35.224 -20.894 -19.883  0.00  0.00    -0.280 N 
ATOM     10  C   UNL     1      35.916 -21.772 -19.037  0.00  0.00    +0.250 C 
ATOM     11  H   UNL     1      34.262 -20.792 -19.699  0.00  0.00    +0.155 HD
BRANCH   9  12
ATOM     12  C   UNL     1      35.728 -20.134 -20.968  0.00  0.00    +0.050 C 
ATOM     13  C   UNL     1      35.022 -20.080 -22.170  0.00  0.00    +0.019 C 
ATOM     14  C   UNL     1      35.518 -19.331 -23.237  0.00  0.00    +0.073 C 
ATOM     15  C   UNL     1      36.930 -19.440 -20.833  0.00  0.00    +0.015 C 
ATOM     16  C   UNL     1      36.721 -18.637 -23.102  0.00  0.00    +0.004 C 
ATOM     17  C   UNL     1      37.426 -18.691 -21.900  0.00  0.00    +0.001 C 
BRANCH  14  21
ATOM     18  F   UNL     1      33.409 -19.313 -24.365  0.00  0.00    -0.166 F 
ATOM     19  F   UNL     1      35.006 -18.140 -25.246  0.00  0.00    -0.166 F 
ATOM     20  F   UNL     1      35.067 -20.311 -25.355  0.00  0.00    -0.166 F 
ATOM     21  C   UNL     1      34.765 -19.273 -24.522  0.00  0.00    +0.419 C 
ENDBRANCH  14  21
ENDBRANCH   9  12
ENDBRANCH   3  10
BRANCH   1  22
ATOM     22  N   UNL     1      35.466 -23.284 -14.410  0.00  0.00    -0.312 N 
ATOM     23  H   UNL     1      35.185 -22.585 -13.777  0.00  0.00    +0.152 HD
BRANCH  22  25
ATOM     24  N   UNL     1      36.828 -25.821 -12.098  0.00  0.00    -0.241 NA
ATOM     25  C   UNL     1      36.348 -24.230 -13.853  0.00  0.00    +0.068 C 
ATOM     26  C   UNL     1      37.565 -24.518 -14.459  0.00  0.00    +0.022 C 
ATOM     27  C   UNL     1      36.029 -24.903 -12.685  0.00  0.00    +0.113 C 
ATOM     28  C   UNL     1      38.415 -25.459 -13.886  0.00  0.00    +0.073 C 
ATOM     29  C   UNL     1      38.004 -26.076 -12.716  0.00  0.00    +0.103 C 
BRANCH  28  32
ATOM     30  O   UNL     1      40.520 -26.515 -13.920  0.00  0.00    -0.270 OA
ATOM     31  N   UNL     1      39.964 -25.258 -15.756  0.00  0.00    -0.325 N 
ATOM     32  C   UNL     1      39.693 -25.782 -14.494  0.00  0.00    +0.244 C 
ATOM     33  H   UNL     1      40.820 -25.457 -16.198  0.00  0.00    +0.145 HD
ATOM     34  H   UNL     1      39.297 -24.690 -16.206  0.00  0.00    +0.145 HD
ENDBRANCH  28  32
ENDBRANCH  22  25
ENDBRANCH   1  22
TORSDOF 6
ENDMDL
MODEL 2
REMARK VINA RESULT:     -11.5      6.690     10.295
REMARK  Name = 24875320
REMARK  6 active torsions:
REMARK  status: ('A' for Active; 'I' for Inactive)
REMARK    1  A    between atoms: C_1  and  N_22
REMARK    2  A    between atoms: C_3  and  C_10
REMARK    3  A    between atoms: N_9  and  C_12
REMARK    4  A    between atoms: C_14  and  C_21
REMARK    5  A    between atoms: N_22  and  C_25
REMARK    6  A    between atoms: C_28  and  C_32
REMARK                            x       y       z     vdW  Elec       q    Type
REMARK                         _______ _______ _______ _____ _____    ______ ____
ROOT
ATOM      1  C   UNL     1      35.471 -17.150 -23.877  0.00  0.00    +0.044 C 
ATOM      2  C   UNL     1      34.708 -17.499 -24.991  0.00  0.00    -0.008 C 
ATOM      3  C   UNL     1      34.582 -14.905 -23.973  0.00  0.00    +0.055 C 
ATOM      4  C   UNL     1      35.408 -15.852 -23.368  0.00  0.00    +0.019 C 
ATOM      5  C   UNL     1      33.882 -16.552 -25.596  0.00  0.00    -0.003 C 
ATOM      6  C   UNL     1      33.819 -15.254 -25.087  0.00  0.00    +0.004 C 
ATOM      7  C   UNL     1      34.754 -18.881 -25.557  0.00  0.00    +0.032 C 
ENDROOT
BRANCH   3  10
ATOM      8  O   UNL     1      34.536 -13.385 -22.213  0.00  0.00    -0.270 OA
ATOM      9  N   UNL     1      34.417 -12.527 -24.393  0.00  0.00    -0.280 N 
ATOM     10  C   UNL     1      34.518 -13.552 -23.443  0.00  0.00    +0.250 C 
ATOM     11  H   UNL     1      34.415 -12.815 -25.335  0.00  0.00    +0.155 HD
BRANCH   9  12
ATOM     12  C   UNL     1      34.314 -11.131 -24.177  0.00  0.00    +0.050 C 
ATOM     13  C   UNL     1      33.210 -10.607 -23.504  0.00  0.00    +0.019 C 
ATOM     14  C   UNL     1      33.109  -9.233 -23.291  0.00  0.00    +0.073 C 
ATOM     15  C   UNL     1      35.319 -10.279 -24.636  0.00  0.00    +0.015 C 
ATOM     16  C   UNL     1      34.115  -8.380 -23.751  0.00  0.00    +0.004 C 
ATOM     17  C   UNL     1      35.219  -8.904 -24.423  0.00  0.00    +0.001 C 
BRANCH  14  21
ATOM     18  F   UNL     1      32.250  -7.718 -21.651  0.00  0.00    -0.166 F 
ATOM     19  F   UNL     1      31.019  -8.077 -23.400  0.00  0.00    -0.166 F 
ATOM     20  F   UNL     1      31.232  -9.625 -21.887  0.00  0.00    -0.166 F 
ATOM     21  C   UNL     1      31.929  -8.673 -22.573  0.00  0.00    +0.419 C 
ENDBRANCH  14  21
ENDBRANCH   9  12
ENDBRANCH   3  10
BRANCH   1  22
ATOM     22  N   UNL     1      36.312 -18.096 -23.252  0.00  0.00    -0.312 N 
ATOM     23  H   UNL     1      37.210 -18.154 -23.652  0.00  0.00    +0.152 HD
BRANCH  22  25
ATOM     24  N   UNL     1      37.039 -20.122 -20.251  0.00  0.00    -0.241 NA
ATOM     25  C   UNL     1      36.118 -18.974 -22.168  0.00  0.00    +0.068 C 
ATOM     26  C   UNL     1      34.876 -19.551 -21.927  0.00  0.00    +0.022 C 
ATOM     27  C   UNL     1      37.158 -19.288 -21.309  0.00  0.00    +0.113 C 
ATOM     28  C   UNL     1      34.714 -20.413 -20.848  0.00  0.00    +0.073 C 
ATOM     29  C   UNL     1      35.817 -20.665 -20.048  0.00  0.00    +0.103 C 
BRANCH  28  32
ATOM     30  O   UNL     1      32.364 -20.521 -20.957  0.00  0.00    -0.270 OA
ATOM     31  N   UNL     1      33.429 -22.235 -19.867  0.00  0.00    -0.325 N 
ATOM     32  C   UNL     1      33.431 -21.032 -20.570  0.00  0.00    +0.244 C 
ATOM     33  H   UNL     1      32.577 -22.683 -19.661  0.00  0.00    +0.145 HD
ATOM     34  H   UNL     1      34.279 -22.638 -19.577  0.00  0.00    +0.145 HD
ENDBRANCH  28  32
ENDBRANCH  22  25
ENDBRANCH   1  22
TORSDOF 6
ENDMDL
MODEL 3
REMARK VINA RESULT:     -11.5      3.412      5.251
REMARK  Name = 24875320
REMARK  6 active torsions:
REMARK  status: ('A' for Active; 'I' for Inactive)
REMARK    1  A    between atoms: C_1  and  N_22
REMARK    2  A    between atoms: C_3  and  C_10
REMARK    3  A    between atoms: N_9  and  C_12
REMARK    4  A    between atoms: C_14  and  C_21
REMARK    5  A    between atoms: N_22  and  C_25
REMARK    6  A    between atoms: C_28  and  C_32
REMARK                            x       y       z     vdW  Elec       q    Type
REMARK                         _______ _______ _______ _____ _____    ______ ____
ROOT
ATOM      1  C   UNL     1      35.156 -23.043 -17.256  0.00  0.00    +0.044 C 
ATOM      2  C   UNL     1      36.465 -22.781 -16.852  0.00  0.00    -0.008 C 
ATOM      3  C   UNL     1      35.429 -21.528 -19.119  0.00  0.00    +0.055 C 
ATOM      4  C   UNL     1      34.638 -22.416 -18.390  0.00  0.00    +0.019 C 
ATOM      5  C   UNL     1      37.256 -21.893 -17.581  0.00  0.00    -0.003 C 
ATOM      6  C   UNL     1      36.738 -21.266 -18.714  0.00  0.00    +0.004 C 
ATOM      7  C   UNL     1      37.046 -23.439 -15.643  0.00  0.00    +0.032 C 
ENDROOT
BRANCH   3  10
ATOM      8  O   UNL     1      33.771 -21.215 -20.720  0.00  0.00    -0.270 OA
ATOM      9  N   UNL     1      35.709 -19.903 -20.890  0.00  0.00    -0.280 N 
ATOM     10  C   UNL     1      34.888 -20.874 -20.300  0.00  0.00    +0.250 C 
ATOM     11  H   UNL     1      36.570 -19.739 -20.442  0.00  0.00    +0.155 HD
BRANCH   9  12
ATOM     12  C   UNL     1      35.461 -19.126 -22.049  0.00  0.00    +0.050 C 
ATOM     13  C   UNL     1      35.347 -17.739 -21.950  0.00  0.00    +0.019 C 
ATOM     14  C   UNL     1      35.103 -16.975 -23.090  0.00  0.00    +0.073 C 
ATOM     15  C   UNL     1      35.332 -19.749 -23.291  0.00  0.00    +0.015 C 
ATOM     16  C   UNL     1      34.974 -17.598 -24.332  0.00  0.00    +0.004 C 
ATOM     17  C   UNL     1      35.088 -18.984 -24.432  0.00  0.00    +0.001 C 
BRANCH  14  21
ATOM     18  F   UNL     1      33.710 -15.033 -23.178  0.00  0.00    -0.166 F 
ATOM     19  F   UNL     1      35.357 -15.000 -21.767  0.00  0.00    -0.166 F 
ATOM     20  F   UNL     1      35.752 -14.836 -23.900  0.00  0.00    -0.166 F 
ATOM     21  C   UNL     1      34.981 -15.493 -22.984  0.00  0.00    +0.419 C 
ENDBRANCH  14  21
ENDBRANCH   9  12
ENDBRANCH   3  10
BRANCH   1  22
ATOM     22  N   UNL     1      34.341 -23.940 -16.531  0.00  0.00    -0.312 N 
ATOM     23  H   UNL     1      34.619 -24.881 -16.612  0.00  0.00    +0.152 HD
BRANCH  22  25
ATOM     24  N   UNL     1      32.223 -23.807 -13.510  0.00  0.00    -0.241 NA
ATOM     25  C   UNL     1      33.210 -23.752 -15.715  0.00  0.00    +0.068 C 
ATOM     26  C   UNL     1      31.997 -23.341 -16.257  0.00  0.00    +0.022 C 
ATOM     27  C   UNL     1      33.270 -23.969 -14.349  0.00  0.00    +0.113 C 
ATOM     28  C   UNL     1      30.896 -23.162 -15.426  0.00  0.00    +0.073 C 
ATOM     29  C   UNL     1      31.059 -23.407 -14.072  0.00  0.00    +0.103 C 
BRANCH  28  32
ATOM     30  O   UNL     1      28.830 -22.041 -15.289  0.00  0.00    -0.270 OA
ATOM     31  N   UNL     1      29.297 -23.112 -17.262  0.00  0.00    -0.325 N 
ATOM     32  C   UNL     1      29.616 -22.735 -15.960  0.00  0.00    +0.244 C 
ATOM     33  H   UNL     1      28.437 -22.839 -17.658  0.00  0.00    +0.145 HD
ATOM     34  H   UNL     1      29.931 -23.649 -17.789  0.00  0.00    +0.145 HD
ENDBRANCH  28  32
ENDBRANCH  22  25
ENDBRANCH   1  22
TORSDOF 6
ENDMDL
MODEL 4
REMARK VINA RESULT:     -11.5      6.761     10.342
REMARK  Name = 24875320
REMARK  6 active torsions:
REMARK  status: ('A' for Active; 'I' for Inactive)
REMARK    1  A    between atoms: C_1  and  N_22
REMARK    2  A    between atoms: C_3  and  C_10
REMARK    3  A    between atoms: N_9  and  C_12
REMARK    4  A    between atoms: C_14  and  C_21
REMARK    5  A    between atoms: N_22  and  C_25
REMARK    6  A    between atoms: C_28  and  C_32
REMARK                            x       y       z     vdW  Elec       q    Type
REMARK                         _______ _______ _______ _____ _____    ______ ____
ROOT
ATOM      1  C   UNL     1      35.362 -16.833 -23.825  0.00  0.00    +0.044 C 
ATOM      2  C   UNL     1      34.751 -17.240 -25.011  0.00  0.00    -0.008 C 
ATOM      3  C   UNL     1      34.214 -14.711 -23.962  0.00  0.00    +0.055 C 
ATOM      4  C   UNL     1      35.094 -15.568 -23.301  0.00  0.00    +0.019 C 
ATOM      5  C   UNL     1      33.871 -16.384 -25.672  0.00  0.00    -0.003 C 
ATOM      6  C   UNL     1      33.603 -15.119 -25.148  0.00  0.00    +0.004 C 
ATOM      7  C   UNL     1      35.019 -18.589 -25.594  0.00  0.00    +0.032 C 
ENDROOT
BRANCH   3  10
ATOM      8  O   UNL     1      34.582 -12.418 -23.833  0.00  0.00    -0.270 OA
ATOM      9  N   UNL     1      32.947 -13.338 -22.423  0.00  0.00    -0.280 N 
ATOM     10  C   UNL     1      33.935 -13.393 -23.416  0.00  0.00    +0.250 C 
ATOM     11  H   UNL     1      32.519 -14.196 -22.197  0.00  0.00    +0.155 HD
BRANCH   9  12
ATOM     12  C   UNL     1      32.484 -12.211 -21.701  0.00  0.00    +0.050 C 
ATOM     13  C   UNL     1      32.433 -10.960 -22.316  0.00  0.00    +0.019 C 
ATOM     14  C   UNL     1      31.978  -9.850 -21.605  0.00  0.00    +0.073 C 
ATOM     15  C   UNL     1      32.080 -12.351 -20.373  0.00  0.00    +0.015 C 
ATOM     16  C   UNL     1      31.573  -9.991 -20.277  0.00  0.00    +0.004 C 
ATOM     17  C   UNL     1      31.624 -11.242 -19.662  0.00  0.00    +0.001 C 
BRANCH  14  21
ATOM     18  F   UNL     1      31.642  -7.490 -21.402  0.00  0.00    -0.166 F 
ATOM     19  F   UNL     1      33.093  -8.155 -22.871  0.00  0.00    -0.166 F 
ATOM     20  F   UNL     1      30.969  -8.445 -23.236  0.00  0.00    -0.166 F 
ATOM     21  C   UNL     1      31.923  -8.513 -22.262  0.00  0.00    +0.419 C 
ENDBRANCH  14  21
ENDBRANCH   9  12
ENDBRANCH   3  10
BRANCH   1  22
ATOM     22  N   UNL     1      36.255 -17.688 -23.141  0.00  0.00    -0.312 N 
ATOM     23  H   UNL     1      37.197 -17.565 -23.400  0.00  0.00    +0.152 HD
BRANCH  22  25
ATOM     24  N   UNL     1      36.997 -20.076 -20.425  0.00  0.00    -0.241 NA
ATOM     25  C   UNL     1      36.061 -18.680 -22.162  0.00  0.00    +0.068 C 
ATOM     26  C   UNL     1      34.808 -19.242 -21.950  0.00  0.00    +0.022 C 
ATOM     27  C   UNL     1      37.114 -19.128 -21.381  0.00  0.00    +0.113 C 
ATOM     28  C   UNL     1      34.647 -20.220 -20.974  0.00  0.00    +0.073 C 
ATOM     29  C   UNL     1      35.763 -20.600 -20.246  0.00  0.00    +0.103 C 
BRANCH  28  32
ATOM     30  O   UNL     1      32.332 -20.457 -21.341  0.00  0.00    -0.270 OA
ATOM     31  N   UNL     1      33.282 -21.856 -19.792  0.00  0.00    -0.325 N 
ATOM     32  C   UNL     1      33.351 -20.827 -20.728  0.00  0.00    +0.244 C 
ATOM     33  H   UNL     1      32.420 -22.291 -19.600  0.00  0.00    +0.145 HD
ATOM     34  H   UNL     1      34.097 -22.150 -19.323  0.00  0.00    +0.145 HD
ENDBRANCH  28  32
ENDBRANCH  22  25
ENDBRANCH   1  22
TORSDOF 6
ENDMDL
MODEL 5
REMARK VINA RESULT:     -11.4      5.277     10.836
REMARK  Name = 24875320
REMARK  6 active torsions:
REMARK  status: ('A' for Active; 'I' for Inactive)
REMARK    1  A    between atoms: C_1  and  N_22
REMARK    2  A    between atoms: C_3  and  C_10
REMARK    3  A    between atoms: N_9  and  C_12
REMARK    4  A    between atoms: C_14  and  C_21
REMARK    5  A    between atoms: N_22  and  C_25
REMARK    6  A    between atoms: C_28  and  C_32
REMARK                            x       y       z     vdW  Elec       q    Type
REMARK                         _______ _______ _______ _____ _____    ______ ____
ROOT
ATOM      1  C   UNL     1      35.337 -16.999 -23.457  0.00  0.00    +0.044 C 
ATOM      2  C   UNL     1      34.916 -17.659 -24.611  0.00  0.00    -0.008 C 
ATOM      3  C   UNL     1      35.459 -19.113 -22.292  0.00  0.00    +0.055 C 
ATOM      4  C   UNL     1      35.609 -17.726 -22.298  0.00  0.00    +0.019 C 
ATOM      5  C   UNL     1      34.766 -19.045 -24.606  0.00  0.00    -0.003 C 
ATOM      6  C   UNL     1      35.037 -19.772 -23.447  0.00  0.00    +0.004 C 
ATOM      7  C   UNL     1      34.619 -16.905 -25.867  0.00  0.00    +0.032 C 
ENDROOT
BRANCH   3  10
ATOM      8  O   UNL     1      36.867 -19.786 -20.568  0.00  0.00    -0.270 OA
ATOM      9  N   UNL     1      34.694 -20.669 -20.605  0.00  0.00    -0.280 N 
ATOM     10  C   UNL     1      35.741 -19.870 -21.084  0.00  0.00    +0.250 C 
ATOM     11  H   UNL     1      33.856 -20.632 -21.121  0.00  0.00    +0.155 HD
BRANCH   9  12
ATOM     12  C   UNL     1      34.684 -21.525 -19.475  0.00  0.00    +0.050 C 
ATOM     13  C   UNL     1      35.826 -21.651 -18.684  0.00  0.00    +0.019 C 
ATOM     14  C   UNL     1      35.815 -22.493 -17.573  0.00  0.00    +0.073 C 
ATOM     15  C   UNL     1      33.531 -22.241 -19.154  0.00  0.00    +0.015 C 
ATOM     16  C   UNL     1      34.661 -23.210 -17.252  0.00  0.00    +0.004 C 
ATOM     17  C   UNL     1      33.520 -23.084 -18.043  0.00  0.00    +0.001 C 
BRANCH  14  21
ATOM     18  F   UNL     1      37.152 -23.848 -16.124  0.00  0.00    -0.166 F 
ATOM     19  F   UNL     1      38.201 -22.460 -17.419  0.00  0.00    -0.166 F 
ATOM     20  F   UNL     1      37.076 -21.714 -15.714  0.00  0.00    -0.166 F 
ATOM     21  C   UNL     1      37.035 -22.629 -16.727  0.00  0.00    +0.419 C 
ENDBRANCH  14  21
ENDBRANCH   9  12
ENDBRANCH   3  10
BRANCH   1  22
ATOM     22  N   UNL     1      35.495 -15.595 -23.444  0.00  0.00    -0.312 N 
ATOM     23  H   UNL     1      36.393 -15.295 -23.716  0.00  0.00    +0.152 HD
BRANCH  22  25
ATOM     24  N   UNL     1      33.559 -12.467 -23.758  0.00  0.00    -0.241 NA
ATOM     25  C   UNL     1      34.621 -14.542 -23.118  0.00  0.00    +0.068 C 
ATOM     26  C   UNL     1      33.965 -14.508 -21.892  0.00  0.00    +0.022 C 
ATOM     27  C   UNL     1      34.386 -13.506 -24.008  0.00  0.00    +0.113 C 
ATOM     28  C   UNL     1      33.105 -13.455 -21.598  0.00  0.00    +0.073 C 
ATOM     29  C   UNL     1      32.939 -12.467 -22.556  0.00  0.00    +0.103 C 
BRANCH  28  32
ATOM     30  O   UNL     1      32.290 -14.391 -19.597  0.00  0.00    -0.270 OA
ATOM     31  N   UNL     1      31.880 -12.161 -19.937  0.00  0.00    -0.325 N 
ATOM     32  C   UNL     1      32.406 -13.390 -20.328  0.00  0.00    +0.244 C 
ATOM     33  H   UNL     1      31.400 -12.080 -19.082  0.00  0.00    +0.145 HD
ATOM     34  H   UNL     1      31.990 -11.372 -20.517  0.00  0.00    +0.145 HD
ENDBRANCH  28  32
ENDBRANCH  22  25
ENDBRANCH   1  22
TORSDOF 6
ENDMDL
MODEL 6
REMARK VINA RESULT:     -11.4      6.714     12.294
REMARK  Name = 24875320
REMARK  6 active torsions:
REMARK  status: ('A' for Active; 'I' for Inactive)
REMARK    1  A    between atoms: C_1  and  N_22
REMARK    2  A    between atoms: C_3  and  C_10
REMARK    3  A    between atoms: N_9  and  C_12
REMARK    4  A    between atoms: C_14  and  C_21
REMARK    5  A    between atoms: N_22  and  C_25
REMARK    6  A    between atoms: C_28  and  C_32
REMARK                            x       y       z     vdW  Elec       q    Type
REMARK                         _______ _______ _______ _____ _____    ______ ____
ROOT
ATOM      1  C   UNL     1      34.199 -13.455 -24.735  0.00  0.00    +0.044 C 
ATOM      2  C   UNL     1      33.947 -14.069 -25.961  0.00  0.00    -0.008 C 
ATOM      3  C   UNL     1      34.684 -15.611 -23.756  0.00  0.00    +0.055 C 
ATOM      4  C   UNL     1      34.566 -14.227 -23.632  0.00  0.00    +0.019 C 
ATOM      5  C   UNL     1      34.064 -15.453 -26.087  0.00  0.00    -0.003 C 
ATOM      6  C   UNL     1      34.432 -16.225 -24.984  0.00  0.00    +0.004 C 
ATOM      7  C   UNL     1      33.553 -13.267 -27.159  0.00  0.00    +0.032 C 
ENDROOT
BRANCH   3  10
ATOM      8  O   UNL     1      35.237 -15.858 -21.511  0.00  0.00    -0.270 OA
ATOM      9  N   UNL     1      35.234 -17.786 -22.848  0.00  0.00    -0.280 N 
ATOM     10  C   UNL     1      35.066 -16.415 -22.607  0.00  0.00    +0.250 C 
ATOM     11  H   UNL     1      35.061 -18.083 -23.771  0.00  0.00    +0.155 HD
BRANCH   9  12
ATOM     12  C   UNL     1      35.622 -18.800 -21.937  0.00  0.00    +0.050 C 
ATOM     13  C   UNL     1      34.654 -19.607 -21.337  0.00  0.00    +0.019 C 
ATOM     14  C   UNL     1      35.036 -20.605 -20.441  0.00  0.00    +0.073 C 
ATOM     15  C   UNL     1      36.971 -18.992 -21.641  0.00  0.00    +0.015 C 
ATOM     16  C   UNL     1      36.386 -20.796 -20.145  0.00  0.00    +0.004 C 
ATOM     17  C   UNL     1      37.353 -19.990 -20.745  0.00  0.00    +0.001 C 
BRANCH  14  21
ATOM     18  F   UNL     1      32.834 -20.814 -19.530  0.00  0.00    -0.166 F 
ATOM     19  F   UNL     1      33.642 -22.544 -20.558  0.00  0.00    -0.166 F 
ATOM     20  F   UNL     1      34.418 -21.982 -18.605  0.00  0.00    -0.166 F 
ATOM     21  C   UNL     1      34.003 -21.467 -19.799  0.00  0.00    +0.419 C 
ENDBRANCH  14  21
ENDBRANCH   9  12
ENDBRANCH   3  10
BRANCH   1  22
ATOM     22  N   UNL     1      34.086 -12.055 -24.590  0.00  0.00    -0.312 N 
ATOM     23  H   UNL     1      34.614 -11.546 -25.247  0.00  0.00    +0.152 HD
BRANCH  22  25
ATOM     24  N   UNL     1      32.642  -9.037 -23.027  0.00  0.00    -0.241 NA
ATOM     25  C   UNL     1      33.367 -11.246 -23.690  0.00  0.00    +0.068 C 
ATOM     26  C   UNL     1      32.689 -11.801 -22.611  0.00  0.00    +0.022 C 
ATOM     27  C   UNL     1      33.313  -9.871 -23.853  0.00  0.00    +0.113 C 
ATOM     28  C   UNL     1      31.987 -10.976 -21.740  0.00  0.00    +0.073 C 
ATOM     29  C   UNL     1      31.995  -9.613 -21.989  0.00  0.00    +0.103 C 
BRANCH  28  32
ATOM     30  O   UNL     1      30.053 -11.315 -20.438  0.00  0.00    -0.270 OA
ATOM     31  N   UNL     1      31.982 -12.315 -19.705  0.00  0.00    -0.325 N 
ATOM     32  C   UNL     1      31.269 -11.525 -20.603  0.00  0.00    +0.244 C 
ATOM     33  H   UNL     1      31.527 -12.704 -18.923  0.00  0.00    +0.145 HD
ATOM     34  H   UNL     1      32.940 -12.486 -19.852  0.00  0.00    +0.145 HD
ENDBRANCH  28  32
ENDBRANCH  22  25
ENDBRANCH   1  22
TORSDOF 6
ENDMDL
MODEL 7
REMARK VINA RESULT:     -11.4      6.337     11.999
REMARK  Name = 24875320
REMARK  6 active torsions:
REMARK  status: ('A' for Active; 'I' for Inactive)
REMARK    1  A    between atoms: C_1  and  N_22
REMARK    2  A    between atoms: C_3  and  C_10
REMARK    3  A    between atoms: N_9  and  C_12
REMARK    4  A    between atoms: C_14  and  C_21
REMARK    5  A    between atoms: N_22  and  C_25
REMARK    6  A    between atoms: C_28  and  C_32
REMARK                            x       y       z     vdW  Elec       q    Type
REMARK                         _______ _______ _______ _____ _____    ______ ____
ROOT
ATOM      1  C   UNL     1      34.691 -15.090 -24.351  0.00  0.00    +0.044 C 
ATOM      2  C   UNL     1      34.075 -15.497 -25.534  0.00  0.00    -0.008 C 
ATOM      3  C   UNL     1      35.317 -17.378 -23.890  0.00  0.00    +0.055 C 
ATOM      4  C   UNL     1      35.312 -16.031 -23.529  0.00  0.00    +0.019 C 
ATOM      5  C   UNL     1      34.079 -16.844 -25.896  0.00  0.00    -0.003 C 
ATOM      6  C   UNL     1      34.700 -17.785 -25.074  0.00  0.00    +0.004 C 
ATOM      7  C   UNL     1      33.403 -14.511 -26.434  0.00  0.00    +0.032 C 
ENDROOT
BRANCH   3  10
ATOM      8  O   UNL     1      37.140 -18.681 -23.266  0.00  0.00    -0.270 OA
ATOM      9  N   UNL     1      35.173 -18.886 -22.003  0.00  0.00    -0.280 N 
ATOM     10  C   UNL     1      35.963 -18.358 -23.033  0.00  0.00    +0.250 C 
ATOM     11  H   UNL     1      34.256 -18.532 -21.942  0.00  0.00    +0.155 HD
BRANCH   9  12
ATOM     12  C   UNL     1      35.520 -19.863 -21.037  0.00  0.00    +0.050 C 
ATOM     13  C   UNL     1      34.536 -20.690 -20.496  0.00  0.00    +0.019 C 
ATOM     14  C   UNL     1      34.878 -21.652 -19.545  0.00  0.00    +0.073 C 
ATOM     15  C   UNL     1      36.846 -19.998 -20.627  0.00  0.00    +0.015 C 
ATOM     16  C   UNL     1      36.205 -21.786 -19.136  0.00  0.00    +0.004 C 
ATOM     17  C   UNL     1      37.188 -20.959 -19.677  0.00  0.00    +0.001 C 
BRANCH  14  21
ATOM     18  F   UNL     1      33.748 -23.761 -19.566  0.00  0.00    -0.166 F 
ATOM     19  F   UNL     1      34.005 -22.800 -17.638  0.00  0.00    -0.166 F 
ATOM     20  F   UNL     1      32.575 -21.999 -19.067  0.00  0.00    -0.166 F 
ATOM     21  C   UNL     1      33.826 -22.536 -18.967  0.00  0.00    +0.419 C 
ENDBRANCH  14  21
ENDBRANCH   9  12
ENDBRANCH   3  10
BRANCH   1  22
ATOM     22  N   UNL     1      34.697 -13.730 -23.970  0.00  0.00    -0.312 N 
ATOM     23  H   UNL     1      35.524 -13.254 -24.211  0.00  0.00    +0.152 HD
BRANCH  22  25
ATOM     24  N   UNL     1      31.969 -12.733 -21.689  0.00  0.00    -0.241 NA
ATOM     25  C   UNL     1      33.751 -12.922 -23.311  0.00  0.00    +0.068 C 
ATOM     26  C   UNL     1      33.645 -11.565 -23.598  0.00  0.00    +0.022 C 
ATOM     27  C   UNL     1      32.898 -13.452 -22.358  0.00  0.00    +0.113 C 
ATOM     28  C   UNL     1      32.702 -10.791 -22.930  0.00  0.00    +0.073 C 
ATOM     29  C   UNL     1      31.895 -11.417 -21.994  0.00  0.00    +0.103 C 
BRANCH  28  32
ATOM     30  O   UNL     1      31.468  -8.794 -23.113  0.00  0.00    -0.270 OA
ATOM     31  N   UNL     1      33.713  -8.668 -23.564  0.00  0.00    -0.325 N 
ATOM     32  C   UNL     1      32.566  -9.373 -23.206  0.00  0.00    +0.244 C 
ATOM     33  H   UNL     1      33.658  -7.704 -23.759  0.00  0.00    +0.145 HD
ATOM     34  H   UNL     1      34.579  -9.133 -23.622  0.00  0.00    +0.145 HD
ENDBRANCH  28  32
ENDBRANCH  22  25
ENDBRANCH   1  22
TORSDOF 6
ENDMDL
MODEL 8
REMARK VINA RESULT:     -11.3      6.381      9.904
REMARK  Name = 24875320
REMARK  6 active torsions:
REMARK  status: ('A' for Active; 'I' for Inactive)
REMARK    1  A    between atoms: C_1  and  N_22
REMARK    2  A    between atoms: C_3  and  C_10
REMARK    3  A    between atoms: N_9  and  C_12
REMARK    4  A    between atoms: C_14  and  C_21
REMARK    5  A    between atoms: N_22  and  C_25
REMARK    6  A    between atoms: C_28  and  C_32
REMARK                            x       y       z     vdW  Elec       q    Type
REMARK                         _______ _______ _______ _____ _____    ______ ____
ROOT
ATOM      1  C   UNL     1      35.554 -17.336 -23.665  0.00  0.00    +0.044 C 
ATOM      2  C   UNL     1      35.004 -17.971 -24.779  0.00  0.00    -0.008 C 
ATOM      3  C   UNL     1      34.402 -15.297 -24.260  0.00  0.00    +0.055 C 
ATOM      4  C   UNL     1      35.253 -15.999 -23.407  0.00  0.00    +0.019 C 
ATOM      5  C   UNL     1      34.153 -17.271 -25.633  0.00  0.00    -0.003 C 
ATOM      6  C   UNL     1      33.852 -15.933 -25.374  0.00  0.00    +0.004 C 
ATOM      7  C   UNL     1      35.309 -19.403 -25.080  0.00  0.00    +0.032 C 
ENDROOT
BRANCH   3  10
ATOM      8  O   UNL     1      34.589 -13.023 -24.710  0.00  0.00    -0.270 OA
ATOM      9  N   UNL     1      33.243 -13.666 -22.899  0.00  0.00    -0.280 N 
ATOM     10  C   UNL     1      34.089 -13.903 -23.991  0.00  0.00    +0.250 C 
ATOM     11  H   UNL     1      32.923 -14.467 -22.423  0.00  0.00    +0.155 HD
BRANCH   9  12
ATOM     12  C   UNL     1      32.788 -12.425 -22.389  0.00  0.00    +0.050 C 
ATOM     13  C   UNL     1      32.386 -12.323 -21.057  0.00  0.00    +0.019 C 
ATOM     14  C   UNL     1      31.938 -11.101 -20.555  0.00  0.00    +0.073 C 
ATOM     15  C   UNL     1      32.742 -11.305 -23.219  0.00  0.00    +0.015 C 
ATOM     16  C   UNL     1      31.893  -9.981 -21.386  0.00  0.00    +0.004 C 
ATOM     17  C   UNL     1      32.295 -10.083 -22.717  0.00  0.00    +0.001 C 
BRANCH  14  21
ATOM     18  F   UNL     1      30.223 -10.555 -18.979  0.00  0.00    -0.166 F 
ATOM     19  F   UNL     1      31.567 -12.173 -18.450  0.00  0.00    -0.166 F 
ATOM     20  F   UNL     1      32.278 -10.118 -18.417  0.00  0.00    -0.166 F 
ATOM     21  C   UNL     1      31.508 -10.991 -19.132  0.00  0.00    +0.419 C 
ENDBRANCH  14  21
ENDBRANCH   9  12
ENDBRANCH   3  10
BRANCH   1  22
ATOM     22  N   UNL     1      36.417 -18.031 -22.790  0.00  0.00    -0.312 N 
ATOM     23  H   UNL     1      37.364 -17.775 -22.880  0.00  0.00    +0.152 HD
BRANCH  22  25
ATOM     24  N   UNL     1      37.066 -20.417 -20.048  0.00  0.00    -0.241 NA
ATOM     25  C   UNL     1      36.189 -19.018 -21.813  0.00  0.00    +0.068 C 
ATOM     26  C   UNL     1      34.925 -19.567 -21.630  0.00  0.00    +0.022 C 
ATOM     27  C   UNL     1      37.217 -19.474 -21.003  0.00  0.00    +0.113 C 
ATOM     28  C   UNL     1      34.730 -20.540 -20.656  0.00  0.00    +0.073 C 
ATOM     29  C   UNL     1      35.823 -20.928 -19.898  0.00  0.00    +0.103 C 
BRANCH  28  32
ATOM     30  O   UNL     1      32.402 -20.674 -20.986  0.00  0.00    -0.270 OA
ATOM     31  N   UNL     1      33.343 -22.249 -19.611  0.00  0.00    -0.325 N 
ATOM     32  C   UNL     1      33.422 -21.132 -20.440  0.00  0.00    +0.244 C 
ATOM     33  H   UNL     1      32.473 -22.677 -19.442  0.00  0.00    +0.145 HD
ATOM     34  H   UNL     1      34.158 -22.612 -19.195  0.00  0.00    +0.145 HD
ENDBRANCH  28  32
ENDBRANCH  22  25
ENDBRANCH   1  22
TORSDOF 6
ENDMDL
MODEL 9
REMARK VINA RESULT:     -11.3     11.302     14.686
REMARK  Name = 24875320
REMARK  6 active torsions:
REMARK  status: ('A' for Active; 'I' for Inactive)
REMARK    1  A    between atoms: C_1  and  N_22
REMARK    2  A    between atoms: C_3  and  C_10
REMARK    3  A    between atoms: N_9  and  C_12
REMARK    4  A    between atoms: C_14  and  C_21
REMARK    5  A    between atoms: N_22  and  C_25
REMARK    6  A    between atoms: C_28  and  C_32
REMARK                            x       y       z     vdW  Elec       q    Type
REMARK                         _______ _______ _______ _____ _____    ______ ____
ROOT
ATOM      1  C   UNL     1      32.110 -11.882 -21.270  0.00  0.00    +0.044 C 
ATOM      2  C   UNL     1      32.064 -12.249 -19.926  0.00  0.00    -0.008 C 
ATOM      3  C   UNL     1      32.284  -9.558 -20.628  0.00  0.00    +0.055 C 
ATOM      4  C   UNL     1      32.219 -10.536 -21.621  0.00  0.00    +0.019 C 
ATOM      5  C   UNL     1      32.129 -11.273 -18.932  0.00  0.00    -0.003 C 
ATOM      6  C   UNL     1      32.238  -9.927 -19.283  0.00  0.00    +0.004 C 
ATOM      7  C   UNL     1      31.948 -13.683 -19.521  0.00  0.00    +0.032 C 
ENDROOT
BRANCH   3  10
ATOM      8  O   UNL     1      32.824  -7.346 -20.156  0.00  0.00    -0.270 OA
ATOM      9  N   UNL     1      31.984  -7.828 -22.293  0.00  0.00    -0.280 N 
ATOM     10  C   UNL     1      32.398  -8.156 -20.994  0.00  0.00    +0.250 C 
ATOM     11  H   UNL     1      31.670  -8.580 -22.846  0.00  0.00    +0.155 HD
BRANCH   9  12
ATOM     12  C   UNL     1      31.958  -6.555 -22.914  0.00  0.00    +0.050 C 
ATOM     13  C   UNL     1      32.829  -6.272 -23.966  0.00  0.00    +0.019 C 
ATOM     14  C   UNL     1      32.803  -5.019 -24.578  0.00  0.00    +0.073 C 
ATOM     15  C   UNL     1      31.059  -5.583 -22.474  0.00  0.00    +0.015 C 
ATOM     16  C   UNL     1      31.904  -4.047 -24.136  0.00  0.00    +0.004 C 
ATOM     17  C   UNL     1      31.033  -4.329 -23.085  0.00  0.00    +0.001 C 
BRANCH  14  21
ATOM     18  F   UNL     1      35.028  -5.077 -25.453  0.00  0.00    -0.166 F 
ATOM     19  F   UNL     1      33.407  -5.349 -26.868  0.00  0.00    -0.166 F 
ATOM     20  F   UNL     1      33.777  -3.387 -26.005  0.00  0.00    -0.166 F 
ATOM     21  C   UNL     1      33.735  -4.717 -25.701  0.00  0.00    +0.419 C 
ENDBRANCH  14  21
ENDBRANCH   9  12
ENDBRANCH   3  10
BRANCH   1  22
ATOM     22  N   UNL     1      32.047 -12.857 -22.289  0.00  0.00    -0.312 N 
ATOM     23  H   UNL     1      31.130 -13.059 -22.588  0.00  0.00    +0.152 HD
BRANCH  22  25
ATOM     24  N   UNL     1      35.140 -14.788 -22.874  0.00  0.00    -0.241 NA
ATOM     25  C   UNL     1      33.037 -13.599 -22.960  0.00  0.00    +0.068 C 
ATOM     26  C   UNL     1      32.924 -13.881 -24.317  0.00  0.00    +0.022 C 
ATOM     27  C   UNL     1      34.154 -14.071 -22.290  0.00  0.00    +0.113 C 
ATOM     28  C   UNL     1      33.918 -14.617 -24.953  0.00  0.00    +0.073 C 
ATOM     29  C   UNL     1      34.996 -15.043 -24.194  0.00  0.00    +0.103 C 
BRANCH  28  32
ATOM     30  O   UNL     1      33.829 -16.104 -26.778  0.00  0.00    -0.270 OA
ATOM     31  N   UNL     1      33.728 -13.864 -27.262  0.00  0.00    -0.325 N 
ATOM     32  C   UNL     1      33.830 -14.928 -26.369  0.00  0.00    +0.244 C 
ATOM     33  H   UNL     1      33.666 -14.038 -28.229  0.00  0.00    +0.145 HD
ATOM     34  H   UNL     1      33.716 -12.939 -26.927  0.00  0.00    +0.145 HD
ENDBRANCH  28  32
ENDBRANCH  22  25
ENDBRANCH   1  22
TORSDOF 6
ENDMDL
