MODEL 1
REMARK VINA RESULT:     -11.4      0.000      0.000
REMARK  Name = 6450813
REMARK  4 active torsions:
REMARK  status: ('A' for Active; 'I' for Inactive)
REMARK    1  A    between atoms: C_4  and  C_10
REMARK    2  A    between atoms: C_6  and  C_22
REMARK    3  A    between atoms: C_12  and  N_17
REMARK    4  A    between atoms: C_22  and  C_24
REMARK                            x       y       z     vdW  Elec       q    Type
REMARK                         _______ _______ _______ _____ _____    ______ ____
ROOT
ATOM      1  N   UNL     1      35.000 -16.051 -22.983  0.00  0.00    -0.191 N 
ATOM      2  N   UNL     1      35.080 -15.511 -21.735  0.00  0.00    -0.179 NA
ATOM      3  N   UNL     1      34.414 -15.401 -25.231  0.00  0.00    -0.231 NA
ATOM      4  C   UNL     1      35.274 -17.373 -23.373  0.00  0.00    +0.143 C 
ATOM      5  C   UNL     1      34.578 -15.096 -23.913  0.00  0.00    +0.141 C 
ATOM      6  C   UNL     1      34.399 -13.922 -23.216  0.00  0.00    +0.161 C 
ATOM      7  C   UNL     1      35.126 -17.717 -24.663  0.00  0.00    +0.020 C 
ATOM      8  C   UNL     1      34.720 -14.239 -21.891  0.00  0.00    +0.106 C 
ATOM      9  C   UNL     1      34.672 -16.628 -25.564  0.00  0.00    +0.097 C 
ENDROOT
BRANCH   4  10
ATOM     10  C   UNL     1      35.733 -18.387 -22.407  0.00  0.00    +0.003 C 
ATOM     11  C   UNL     1      34.808 -19.222 -21.777  0.00  0.00    +0.013 C 
ATOM     12  C   UNL     1      35.242 -20.181 -20.863  0.00  0.00    +0.054 C 
ATOM     13  C   UNL     1      37.092 -18.515 -22.122  0.00  0.00    -0.002 C 
ATOM     14  C   UNL     1      36.602 -20.308 -20.578  0.00  0.00    +0.015 C 
ATOM     15  C   UNL     1      37.528 -19.475 -21.208  0.00  0.00    +0.001 C 
BRANCH  12  17
ATOM     16  O   UNL     1      35.865 -22.384 -19.091  0.00  0.00    -0.275 OA
ATOM     17  N   UNL     1      34.318 -21.015 -20.232  0.00  0.00    -0.257 N 
ATOM     18  C   UNL     1      32.861 -20.741 -20.429  0.00  0.00    +0.120 C 
ATOM     19  C   UNL     1      34.697 -22.069 -19.331  0.00  0.00    +0.230 C 
ATOM     20  C   UNL     1      33.602 -22.816 -18.605  0.00  0.00    +0.095 C 
ENDBRANCH  12  17
ENDBRANCH   4  10
BRANCH   6  22
ATOM     21  O   UNL     1      34.420 -12.238 -24.846  0.00  0.00    -0.290 OA
ATOM     22  C   UNL     1      33.971 -12.672 -23.767  0.00  0.00    +0.191 C 
BRANCH  22  24
ATOM     23  S   UNL     1      32.931 -10.220 -23.268  0.00  0.00    -0.084 S 
ATOM     24  C   UNL     1      32.960 -11.888 -23.019  0.00  0.00    +0.065 C 
ATOM     25  C   UNL     1      32.049 -12.360 -22.152  0.00  0.00    +0.010 C 
ATOM     26  C   UNL     1      31.257 -11.292 -21.640  0.00  0.00    +0.008 C 
ATOM     27  C   UNL     1      31.630 -10.074 -22.163  0.00  0.00    +0.036 C 
ENDBRANCH  22  24
ENDBRANCH   6  22
TORSDOF 4
ENDMDL
MODEL 2
REMARK VINA RESULT:     -10.9      3.004      7.698
REMARK  Name = 6450813
REMARK  4 active torsions:
REMARK  status: ('A' for Active; 'I' for Inactive)
REMARK    1  A    between atoms: C_4  and  C_10
REMARK    2  A    between atoms: C_6  and  C_22
REMARK    3  A    between atoms: C_12  and  N_17
REMARK    4  A    between atoms: C_22  and  C_24
REMARK                            x       y       z     vdW  Elec       q    Type
REMARK                         _______ _______ _______ _____ _____    ______ ____
ROOT
ATOM      1  N   UNL     1      34.814 -15.690 -23.246  0.00  0.00    -0.191 N 
ATOM      2  N   UNL     1      34.995 -15.371 -21.934  0.00  0.00    -0.179 NA
ATOM      3  N   UNL     1      35.088 -17.567 -24.735  0.00  0.00    -0.231 NA
ATOM      4  C   UNL     1      34.346 -14.861 -24.280  0.00  0.00    +0.143 C 
ATOM      5  C   UNL     1      35.174 -17.018 -23.491  0.00  0.00    +0.141 C 
ATOM      6  C   UNL     1      35.584 -17.542 -22.286  0.00  0.00    +0.161 C 
ATOM      7  C   UNL     1      34.246 -15.362 -25.523  0.00  0.00    +0.020 C 
ATOM      8  C   UNL     1      35.453 -16.490 -21.373  0.00  0.00    +0.106 C 
ATOM      9  C   UNL     1      34.655 -16.781 -25.672  0.00  0.00    +0.097 C 
ENDROOT
BRANCH   4  10
ATOM     10  C   UNL     1      33.950 -13.462 -24.035  0.00  0.00    +0.003 C 
ATOM     11  C   UNL     1      33.278 -13.122 -22.860  0.00  0.00    +0.013 C 
ATOM     12  C   UNL     1      32.904 -11.799 -22.627  0.00  0.00    +0.054 C 
ATOM     13  C   UNL     1      34.249 -12.477 -24.976  0.00  0.00    -0.002 C 
ATOM     14  C   UNL     1      33.202 -10.815 -23.569  0.00  0.00    +0.015 C 
ATOM     15  C   UNL     1      33.875 -11.153 -24.744  0.00  0.00    +0.001 C 
BRANCH  12  17
ATOM     16  O   UNL     1      32.670 -13.445 -20.257  0.00  0.00    -0.275 OA
ATOM     17  N   UNL     1      32.230 -11.459 -21.454  0.00  0.00    -0.257 N 
ATOM     18  C   UNL     1      31.601 -10.105 -21.360  0.00  0.00    +0.120 C 
ATOM     19  C   UNL     1      32.185 -12.311 -20.297  0.00  0.00    +0.230 C 
ATOM     20  C   UNL     1      31.540 -11.775 -19.040  0.00  0.00    +0.095 C 
ENDBRANCH  12  17
ENDBRANCH   4  10
BRANCH   6  22
ATOM     21  O   UNL     1      37.142 -19.282 -22.486  0.00  0.00    -0.290 OA
ATOM     22  C   UNL     1      36.041 -18.880 -22.061  0.00  0.00    +0.191 C 
BRANCH  22  24
ATOM     23  S   UNL     1      35.913 -20.935 -20.300  0.00  0.00    -0.084 S 
ATOM     24  C   UNL     1      35.165 -19.799 -21.296  0.00  0.00    +0.065 C 
ATOM     25  C   UNL     1      33.822 -19.831 -21.303  0.00  0.00    +0.010 C 
ATOM     26  C   UNL     1      33.349 -20.856 -20.436  0.00  0.00    +0.008 C 
ATOM     27  C   UNL     1      34.380 -21.535 -19.826  0.00  0.00    +0.036 C 
ENDBRANCH  22  24
ENDBRANCH   6  22
TORSDOF 4
ENDMDL
MODEL 3
REMARK VINA RESULT:     -10.7      3.288      8.899
REMARK  Name = 6450813
REMARK  4 active torsions:
REMARK  status: ('A' for Active; 'I' for Inactive)
REMARK    1  A    between atoms: C_4  and  C_10
REMARK    2  A    between atoms: C_6  and  C_22
REMARK    3  A    between atoms: C_12  and  N_17
REMARK    4  A    between atoms: C_22  and  C_24
REMARK                            x       y       z     vdW  Elec       q    Type
REMARK                         _______ _______ _______ _____ _____    ______ ____
ROOT
ATOM      1  N   UNL     1      33.964 -14.505 -22.307  0.00  0.00    -0.191 N 
ATOM      2  N   UNL     1      34.209 -14.780 -20.996  0.00  0.00    -0.179 NA
ATOM      3  N   UNL     1      34.418 -15.420 -24.492  0.00  0.00    -0.231 NA
ATOM      4  C   UNL     1      33.264 -13.411 -22.845  0.00  0.00    +0.143 C 
ATOM      5  C   UNL     1      34.524 -15.482 -23.135  0.00  0.00    +0.141 C 
ATOM      6  C   UNL     1      35.130 -16.399 -22.305  0.00  0.00    +0.161 C 
ATOM      7  C   UNL     1      33.136 -13.311 -24.179  0.00  0.00    +0.020 C 
ATOM      8  C   UNL     1      34.904 -15.916 -21.011  0.00  0.00    +0.106 C 
ATOM      9  C   UNL     1      33.770 -14.400 -24.963  0.00  0.00    +0.097 C 
ENDROOT
BRANCH   4  10
ATOM     10  C   UNL     1      32.656 -12.380 -21.985  0.00  0.00    +0.003 C 
ATOM     11  C   UNL     1      32.656 -11.044 -22.388  0.00  0.00    +0.013 C 
ATOM     12  C   UNL     1      32.081 -10.069 -21.575  0.00  0.00    +0.054 C 
ATOM     13  C   UNL     1      32.079 -12.739 -20.767  0.00  0.00    -0.002 C 
ATOM     14  C   UNL     1      31.504 -10.428 -20.356  0.00  0.00    +0.015 C 
ATOM     15  C   UNL     1      31.503 -11.764 -19.952  0.00  0.00    +0.001 C 
BRANCH  12  17
ATOM     16  O   UNL     1      33.271  -7.856 -20.136  0.00  0.00    -0.275 OA
ATOM     17  N   UNL     1      32.082  -8.732 -21.977  0.00  0.00    -0.257 N 
ATOM     18  C   UNL     1      31.463  -8.384 -23.292  0.00  0.00    +0.120 C 
ATOM     19  C   UNL     1      32.727  -7.687 -21.230  0.00  0.00    +0.230 C 
ATOM     20  C   UNL     1      32.776  -6.303 -21.835  0.00  0.00    +0.095 C 
ENDBRANCH  12  17
ENDBRANCH   4  10
BRANCH   6  22
ATOM     21  O   UNL     1      36.472 -17.621 -23.789  0.00  0.00    -0.290 OA
ATOM     22  C   UNL     1      35.832 -17.575 -22.720  0.00  0.00    +0.191 C 
BRANCH  22  24
ATOM     23  S   UNL     1      37.218 -19.213 -21.064  0.00  0.00    -0.084 S 
ATOM     24  C   UNL     1      35.787 -18.764 -21.836  0.00  0.00    +0.065 C 
ATOM     25  C   UNL     1      34.720 -19.538 -21.573  0.00  0.00    +0.010 C 
ATOM     26  C   UNL     1      35.080 -20.583 -20.675  0.00  0.00    +0.008 C 
ATOM     27  C   UNL     1      36.408 -20.525 -20.317  0.00  0.00    +0.036 C 
ENDBRANCH  22  24
ENDBRANCH   6  22
TORSDOF 4
ENDMDL
MODEL 4
REMARK VINA RESULT:     -10.6      3.161      8.763
REMARK  Name = 6450813
REMARK  4 active torsions:
REMARK  status: ('A' for Active; 'I' for Inactive)
REMARK    1  A    between atoms: C_4  and  C_10
REMARK    2  A    between atoms: C_6  and  C_22
REMARK    3  A    between atoms: C_12  and  N_17
REMARK    4  A    between atoms: C_22  and  C_24
REMARK                            x       y       z     vdW  Elec       q    Type
REMARK                         _______ _______ _______ _____ _____    ______ ____
ROOT
ATOM      1  N   UNL     1      35.146 -16.091 -22.994  0.00  0.00    -0.191 N 
ATOM      2  N   UNL     1      35.534 -16.698 -24.150  0.00  0.00    -0.179 NA
ATOM      3  N   UNL     1      35.082 -16.526 -20.622  0.00  0.00    -0.231 NA
ATOM      4  C   UNL     1      34.561 -14.823 -22.838  0.00  0.00    +0.143 C 
ATOM      5  C   UNL     1      35.393 -16.913 -21.891  0.00  0.00    +0.141 C 
ATOM      6  C   UNL     1      35.963 -18.067 -22.382  0.00  0.00    +0.161 C 
ATOM      7  C   UNL     1      34.237 -14.401 -21.604  0.00  0.00    +0.020 C 
ATOM      8  C   UNL     1      36.023 -17.877 -23.767  0.00  0.00    +0.106 C 
ATOM      9  C   UNL     1      34.541 -15.352 -20.506  0.00  0.00    +0.097 C 
ENDROOT
BRANCH   4  10
ATOM     10  C   UNL     1      34.306 -13.939 -23.990  0.00  0.00    +0.003 C 
ATOM     11  C   UNL     1      34.639 -12.585 -23.920  0.00  0.00    +0.013 C 
ATOM     12  C   UNL     1      34.399 -11.749 -25.009  0.00  0.00    +0.054 C 
ATOM     13  C   UNL     1      33.733 -14.455 -25.152  0.00  0.00    -0.002 C 
ATOM     14  C   UNL     1      33.824 -12.266 -26.171  0.00  0.00    +0.015 C 
ATOM     15  C   UNL     1      33.491 -13.619 -26.243  0.00  0.00    +0.001 C 
BRANCH  12  17
ATOM     16  O   UNL     1      33.117  -9.764 -23.336  0.00  0.00    -0.275 OA
ATOM     17  N   UNL     1      34.730 -10.396 -24.939  0.00  0.00    -0.257 N 
ATOM     18  C   UNL     1      35.882  -9.901 -25.755  0.00  0.00    +0.120 C 
ATOM     19  C   UNL     1      34.075  -9.470 -24.056  0.00  0.00    +0.230 C 
ATOM     20  C   UNL     1      34.613  -8.060 -23.972  0.00  0.00    +0.095 C 
ENDBRANCH  12  17
ENDBRANCH   4  10
BRANCH   6  22
ATOM     21  O   UNL     1      37.590 -19.453 -21.417  0.00  0.00    -0.290 OA
ATOM     22  C   UNL     1      36.385 -19.194 -21.606  0.00  0.00    +0.191 C 
BRANCH  22  24
ATOM     23  S   UNL     1      35.852 -21.310 -19.999  0.00  0.00    -0.084 S 
ATOM     24  C   UNL     1      35.341 -20.065 -21.015  0.00  0.00    +0.065 C 
ATOM     25  C   UNL     1      34.013 -19.975 -21.197  0.00  0.00    +0.010 C 
ATOM     26  C   UNL     1      33.345 -20.993 -20.459  0.00  0.00    +0.008 C 
ATOM     27  C   UNL     1      34.225 -21.791 -19.762  0.00  0.00    +0.036 C 
ENDBRANCH  22  24
ENDBRANCH   6  22
TORSDOF 4
ENDMDL
MODEL 5
REMARK VINA RESULT:     -10.6      4.888     10.209
REMARK  Name = 6450813
REMARK  4 active torsions:
REMARK  status: ('A' for Active; 'I' for Inactive)
REMARK    1  A    between atoms: C_4  and  C_10
REMARK    2  A    between atoms: C_6  and  C_22
REMARK    3  A    between atoms: C_12  and  N_17
REMARK    4  A    between atoms: C_22  and  C_24
REMARK                            x       y       z     vdW  Elec       q    Type
REMARK                         _______ _______ _______ _____ _____    ______ ____
ROOT
ATOM      1  N   UNL     1      35.895 -21.624 -18.706  0.00  0.00    -0.191 N 
ATOM      2  N   UNL     1      37.142 -21.286 -18.274  0.00  0.00    -0.179 NA
ATOM      3  N   UNL     1      34.028 -22.995 -18.035  0.00  0.00    -0.231 NA
ATOM      4  C   UNL     1      35.241 -21.201 -19.876  0.00  0.00    +0.143 C 
ATOM      5  C   UNL     1      35.281 -22.508 -17.814  0.00  0.00    +0.141 C 
ATOM      6  C   UNL     1      36.176 -22.716 -16.789  0.00  0.00    +0.161 C 
ATOM      7  C   UNL     1      34.004 -21.658 -20.134  0.00  0.00    +0.020 C 
ATOM      8  C   UNL     1      37.294 -21.945 -17.127  0.00  0.00    +0.106 C 
ATOM      9  C   UNL     1      33.447 -22.590 -19.123  0.00  0.00    +0.097 C 
ENDROOT
BRANCH   4  10
ATOM     10  C   UNL     1      35.871 -20.259 -20.820  0.00  0.00    +0.003 C 
ATOM     11  C   UNL     1      35.156 -19.793 -21.924  0.00  0.00    +0.013 C 
ATOM     12  C   UNL     1      35.752 -18.902 -22.816  0.00  0.00    +0.054 C 
ATOM     13  C   UNL     1      37.182 -19.833 -20.609  0.00  0.00    -0.002 C 
ATOM     14  C   UNL     1      37.063 -18.476 -22.605  0.00  0.00    +0.015 C 
ATOM     15  C   UNL     1      37.779 -18.942 -21.501  0.00  0.00    +0.001 C 
BRANCH  12  17
ATOM     16  O   UNL     1      35.525 -16.142 -23.660  0.00  0.00    -0.275 OA
ATOM     17  N   UNL     1      35.038 -18.437 -23.921  0.00  0.00    -0.257 N 
ATOM     18  C   UNL     1      34.356 -19.435 -24.801  0.00  0.00    +0.120 C 
ATOM     19  C   UNL     1      34.999 -17.052 -24.306  0.00  0.00    +0.230 C 
ATOM     20  C   UNL     1      34.304 -16.689 -25.598  0.00  0.00    +0.095 C 
ENDBRANCH  12  17
ENDBRANCH   4  10
BRANCH   6  22
ATOM     21  O   UNL     1      34.959 -23.446 -14.923  0.00  0.00    -0.290 OA
ATOM     22  C   UNL     1      35.969 -23.554 -15.647  0.00  0.00    +0.191 C 
BRANCH  22  24
ATOM     23  S   UNL     1      36.509 -26.191 -15.334  0.00  0.00    -0.084 S 
ATOM     24  C   UNL     1      36.995 -24.577 -15.334  0.00  0.00    +0.065 C 
ATOM     25  C   UNL     1      38.290 -24.362 -15.047  0.00  0.00    +0.010 C 
ATOM     26  C   UNL     1      38.952 -25.599 -14.804  0.00  0.00    +0.008 C 
ATOM     27  C   UNL     1      38.101 -26.675 -14.927  0.00  0.00    +0.036 C 
ENDBRANCH  22  24
ENDBRANCH   6  22
TORSDOF 4
ENDMDL
MODEL 6
REMARK VINA RESULT:     -10.5      3.285      5.678
REMARK  Name = 6450813
REMARK  4 active torsions:
REMARK  status: ('A' for Active; 'I' for Inactive)
REMARK    1  A    between atoms: C_4  and  C_10
REMARK    2  A    between atoms: C_6  and  C_22
REMARK    3  A    between atoms: C_12  and  N_17
REMARK    4  A    between atoms: C_22  and  C_24
REMARK                            x       y       z     vdW  Elec       q    Type
REMARK                         _______ _______ _______ _____ _____    ______ ____
ROOT
ATOM      1  N   UNL     1      35.723 -20.443 -20.211  0.00  0.00    -0.191 N 
ATOM      2  N   UNL     1      37.014 -20.012 -20.128  0.00  0.00    -0.179 NA
ATOM      3  N   UNL     1      33.765 -20.123 -21.582  0.00  0.00    -0.231 NA
ATOM      4  C   UNL     1      35.056 -21.342 -19.362  0.00  0.00    +0.143 C 
ATOM      5  C   UNL     1      35.070 -19.853 -21.297  0.00  0.00    +0.141 C 
ATOM      6  C   UNL     1      35.991 -19.037 -21.913  0.00  0.00    +0.161 C 
ATOM      7  C   UNL     1      33.768 -21.636 -19.606  0.00  0.00    +0.020 C 
ATOM      8  C   UNL     1      37.158 -19.175 -21.154  0.00  0.00    +0.106 C 
ATOM      9  C   UNL     1      33.172 -20.955 -20.782  0.00  0.00    +0.097 C 
ENDROOT
BRANCH   4  10
ATOM     10  C   UNL     1      35.736 -21.981 -18.220  0.00  0.00    +0.003 C 
ATOM     11  C   UNL     1      35.021 -22.814 -17.358  0.00  0.00    +0.013 C 
ATOM     12  C   UNL     1      35.663 -23.419 -16.279  0.00  0.00    +0.054 C 
ATOM     13  C   UNL     1      37.094 -21.754 -18.001  0.00  0.00    -0.002 C 
ATOM     14  C   UNL     1      37.022 -23.192 -16.060  0.00  0.00    +0.015 C 
ATOM     15  C   UNL     1      37.738 -22.359 -16.921  0.00  0.00    +0.001 C 
BRANCH  12  17
ATOM     16  O   UNL     1      33.032 -22.893 -15.193  0.00  0.00    -0.275 OA
ATOM     17  N   UNL     1      34.949 -24.252 -15.416  0.00  0.00    -0.257 N 
ATOM     18  C   UNL     1      35.549 -25.567 -15.037  0.00  0.00    +0.120 C 
ATOM     19  C   UNL     1      33.626 -23.945 -14.944  0.00  0.00    +0.230 C 
ATOM     20  C   UNL     1      32.902 -24.987 -14.123  0.00  0.00    +0.095 C 
ENDBRANCH  12  17
ENDBRANCH   4  10
BRANCH   6  22
ATOM     21  O   UNL     1      35.892 -18.688 -24.229  0.00  0.00    -0.290 OA
ATOM     22  C   UNL     1      35.761 -18.234 -23.076  0.00  0.00    +0.191 C 
BRANCH  22  24
ATOM     23  S   UNL     1      35.130 -15.879 -24.260  0.00  0.00    -0.084 S 
ATOM     24  C   UNL     1      35.350 -16.823 -22.880  0.00  0.00    +0.065 C 
ATOM     25  C   UNL     1      35.128 -16.199 -21.711  0.00  0.00    +0.010 C 
ATOM     26  C   UNL     1      34.749 -14.845 -21.940  0.00  0.00    +0.008 C 
ATOM     27  C   UNL     1      34.711 -14.538 -23.282  0.00  0.00    +0.036 C 
ENDBRANCH  22  24
ENDBRANCH   6  22
TORSDOF 4
ENDMDL
MODEL 7
REMARK VINA RESULT:     -10.4      3.213      8.138
REMARK  Name = 6450813
REMARK  4 active torsions:
REMARK  status: ('A' for Active; 'I' for Inactive)
REMARK    1  A    between atoms: C_4  and  C_10
REMARK    2  A    between atoms: C_6  and  C_22
REMARK    3  A    between atoms: C_12  and  N_17
REMARK    4  A    between atoms: C_22  and  C_24
REMARK                            x       y       z     vdW  Elec       q    Type
REMARK                         _______ _______ _______ _____ _____    ______ ____
ROOT
ATOM      1  N   UNL     1      34.458 -14.425 -24.433  0.00  0.00    -0.191 N 
ATOM      2  N   UNL     1      34.929 -14.447 -23.155  0.00  0.00    -0.179 NA
ATOM      3  N   UNL     1      34.023 -15.943 -26.256  0.00  0.00    -0.231 NA
ATOM      4  C   UNL     1      34.032 -13.313 -25.179  0.00  0.00    +0.143 C 
ATOM      5  C   UNL     1      34.447 -15.711 -24.982  0.00  0.00    +0.141 C 
ATOM      6  C   UNL     1      34.919 -16.559 -24.006  0.00  0.00    +0.161 C 
ATOM      7  C   UNL     1      33.607 -13.497 -26.440  0.00  0.00    +0.020 C 
ATOM      8  C   UNL     1      35.197 -15.729 -22.914  0.00  0.00    +0.106 C 
ATOM      9  C   UNL     1      33.637 -14.900 -26.923  0.00  0.00    +0.097 C 
ENDROOT
BRANCH   4  10
ATOM     10  C   UNL     1      34.026 -11.953 -24.609  0.00  0.00    +0.003 C 
ATOM     11  C   UNL     1      33.174 -11.644 -23.547  0.00  0.00    +0.013 C 
ATOM     12  C   UNL     1      33.169 -10.358 -23.008  0.00  0.00    +0.054 C 
ATOM     13  C   UNL     1      34.872 -10.975 -25.130  0.00  0.00    -0.002 C 
ATOM     14  C   UNL     1      34.015  -9.380 -23.530  0.00  0.00    +0.015 C 
ATOM     15  C   UNL     1      34.867  -9.688 -24.592  0.00  0.00    +0.001 C 
BRANCH  12  17
ATOM     16  O   UNL     1      32.144 -12.221 -21.043  0.00  0.00    -0.275 OA
ATOM     17  N   UNL     1      32.317 -10.048 -21.947  0.00  0.00    -0.257 N 
ATOM     18  C   UNL     1      31.917  -8.621 -21.749  0.00  0.00    +0.120 C 
ATOM     19  C   UNL     1      31.876 -11.018 -20.983  0.00  0.00    +0.230 C 
ATOM     20  C   UNL     1      31.065 -10.535 -19.803  0.00  0.00    +0.095 C 
ENDBRANCH  12  17
ENDBRANCH   4  10
BRANCH   6  22
ATOM     21  O   UNL     1      34.843 -18.580 -25.192  0.00  0.00    -0.290 OA
ATOM     22  C   UNL     1      35.077 -17.976 -24.126  0.00  0.00    +0.191 C 
BRANCH  22  24
ATOM     23  S   UNL     1      37.173 -18.625 -22.534  0.00  0.00    -0.084 S 
ATOM     24  C   UNL     1      35.539 -18.732 -22.937  0.00  0.00    +0.065 C 
ATOM     25  C   UNL     1      34.793 -19.504 -22.129  0.00  0.00    +0.010 C 
ATOM     26  C   UNL     1      35.601 -20.060 -21.096  0.00  0.00    +0.008 C 
ATOM     27  C   UNL     1      36.916 -19.664 -21.197  0.00  0.00    +0.036 C 
ENDBRANCH  22  24
ENDBRANCH   6  22
TORSDOF 4
ENDMDL
MODEL 8
REMARK VINA RESULT:     -10.3      5.863      9.474
REMARK  Name = 6450813
REMARK  4 active torsions:
REMARK  status: ('A' for Active; 'I' for Inactive)
REMARK    1  A    between atoms: C_4  and  C_10
REMARK    2  A    between atoms: C_6  and  C_22
REMARK    3  A    between atoms: C_12  and  N_17
REMARK    4  A    between atoms: C_22  and  C_24
REMARK                            x       y       z     vdW  Elec       q    Type
REMARK                         _______ _______ _______ _____ _____    ______ ____
ROOT
ATOM      1  N   UNL     1      34.494 -23.013 -16.988  0.00  0.00    -0.191 N 
ATOM      2  N   UNL     1      35.811 -22.792 -17.260  0.00  0.00    -0.179 NA
ATOM      3  N   UNL     1      32.324 -22.602 -17.957  0.00  0.00    -0.231 NA
ATOM      4  C   UNL     1      33.938 -23.645 -15.863  0.00  0.00    +0.143 C 
ATOM      5  C   UNL     1      33.683 -22.506 -18.007  0.00  0.00    +0.141 C 
ATOM      6  C   UNL     1      34.528 -21.960 -18.947  0.00  0.00    +0.161 C 
ATOM      7  C   UNL     1      32.603 -23.760 -15.772  0.00  0.00    +0.020 C 
ATOM      8  C   UNL     1      35.814 -22.164 -18.434  0.00  0.00    +0.106 C 
ATOM      9  C   UNL     1      31.837 -23.187 -16.907  0.00  0.00    +0.097 C 
ENDROOT
BRANCH   4  10
ATOM     10  C   UNL     1      34.782 -24.196 -14.786  0.00  0.00    +0.003 C 
ATOM     11  C   UNL     1      36.016 -24.772 -15.091  0.00  0.00    +0.013 C 
ATOM     12  C   UNL     1      36.814 -25.293 -14.074  0.00  0.00    +0.054 C 
ATOM     13  C   UNL     1      34.347 -24.142 -13.462  0.00  0.00    -0.002 C 
ATOM     14  C   UNL     1      36.379 -25.239 -12.749  0.00  0.00    +0.015 C 
ATOM     15  C   UNL     1      35.145 -24.663 -12.443  0.00  0.00    +0.001 C 
BRANCH  12  17
ATOM     16  O   UNL     1      39.397 -24.395 -13.123  0.00  0.00    -0.275 OA
ATOM     17  N   UNL     1      38.048 -25.870 -14.378  0.00  0.00    -0.257 N 
ATOM     18  C   UNL     1      38.069 -27.097 -15.231  0.00  0.00    +0.120 C 
ATOM     19  C   UNL     1      39.293 -25.394 -13.839  0.00  0.00    +0.230 C 
ATOM     20  C   UNL     1      40.547 -26.184 -14.134  0.00  0.00    +0.095 C 
ENDBRANCH  12  17
ENDBRANCH   4  10
BRANCH   6  22
ATOM     21  O   UNL     1      33.000 -21.492 -20.662  0.00  0.00    -0.290 OA
ATOM     22  C   UNL     1      34.132 -21.326 -20.168  0.00  0.00    +0.191 C 
BRANCH  22  24
ATOM     23  S   UNL     1      34.577 -19.577 -22.190  0.00  0.00    -0.084 S 
ATOM     24  C   UNL     1      35.113 -20.446 -20.848  0.00  0.00    +0.065 C 
ATOM     25  C   UNL     1      36.400 -20.258 -20.513  0.00  0.00    +0.010 C 
ATOM     26  C   UNL     1      37.013 -19.337 -21.410  0.00  0.00    +0.008 C 
ATOM     27  C   UNL     1      36.135 -18.889 -22.371  0.00  0.00    +0.036 C 
ENDBRANCH  22  24
ENDBRANCH   6  22
TORSDOF 4
ENDMDL
MODEL 9
REMARK VINA RESULT:     -10.2      3.556      6.465
REMARK  Name = 6450813
REMARK  4 active torsions:
REMARK  status: ('A' for Active; 'I' for Inactive)
REMARK    1  A    between atoms: C_4  and  C_10
REMARK    2  A    between atoms: C_6  and  C_22
REMARK    3  A    between atoms: C_12  and  N_17
REMARK    4  A    between atoms: C_22  and  C_24
REMARK                            x       y       z     vdW  Elec       q    Type
REMARK                         _______ _______ _______ _____ _____    ______ ____
ROOT
ATOM      1  N   UNL     1      33.379 -10.773 -23.636  0.00  0.00    -0.191 N 
ATOM      2  N   UNL     1      32.326 -11.392 -23.031  0.00  0.00    -0.179 NA
ATOM      3  N   UNL     1      34.517  -8.647 -23.617  0.00  0.00    -0.231 NA
ATOM      4  C   UNL     1      34.235 -11.291 -24.622  0.00  0.00    +0.143 C 
ATOM      5  C   UNL     1      33.534  -9.470 -23.156  0.00  0.00    +0.141 C 
ATOM      6  C   UNL     1      32.548  -9.279 -22.213  0.00  0.00    +0.161 C 
ATOM      7  C   UNL     1      35.219 -10.514 -25.106  0.00  0.00    +0.020 C 
ATOM      8  C   UNL     1      31.843 -10.487 -22.182  0.00  0.00    +0.106 C 
ATOM      9  C   UNL     1      35.293  -9.149 -24.528  0.00  0.00    +0.097 C 
ENDROOT
BRANCH   4  10
ATOM     10  C   UNL     1      34.092 -12.668 -25.129  0.00  0.00    +0.003 C 
ATOM     11  C   UNL     1      34.500 -13.748 -24.344  0.00  0.00    +0.013 C 
ATOM     12  C   UNL     1      34.364 -15.050 -24.823  0.00  0.00    +0.054 C 
ATOM     13  C   UNL     1      33.548 -12.893 -26.393  0.00  0.00    -0.002 C 
ATOM     14  C   UNL     1      33.820 -15.275 -26.088  0.00  0.00    +0.015 C 
ATOM     15  C   UNL     1      33.412 -14.196 -26.874  0.00  0.00    +0.001 C 
BRANCH  12  17
ATOM     16  O   UNL     1      34.684 -17.784 -25.722  0.00  0.00    -0.275 OA
ATOM     17  N   UNL     1      34.773 -16.130 -24.040  0.00  0.00    -0.257 N 
ATOM     18  C   UNL     1      35.134 -15.878 -22.611  0.00  0.00    +0.120 C 
ATOM     19  C   UNL     1      34.947 -17.459 -24.561  0.00  0.00    +0.230 C 
ATOM     20  C   UNL     1      35.524 -18.515 -23.646  0.00  0.00    +0.095 C 
ENDBRANCH  12  17
ENDBRANCH   4  10
BRANCH   6  22
ATOM     21  O   UNL     1      32.363  -8.076 -20.210  0.00  0.00    -0.290 OA
ATOM     22  C   UNL     1      32.327  -8.084 -21.456  0.00  0.00    +0.191 C 
BRANCH  22  24
ATOM     23  S   UNL     1      30.955  -6.903 -23.473  0.00  0.00    -0.084 S 
ATOM     24  C   UNL     1      32.053  -6.829 -22.195  0.00  0.00    +0.065 C 
ATOM     25  C   UNL     1      32.586  -5.618 -21.960  0.00  0.00    +0.010 C 
ATOM     26  C   UNL     1      32.071  -4.665 -22.884  0.00  0.00    +0.008 C 
ATOM     27  C   UNL     1      31.174  -5.229 -23.764  0.00  0.00    +0.036 C 
ENDBRANCH  22  24
ENDBRANCH   6  22
TORSDOF 4
ENDMDL
