MODEL 1
REMARK VINA RESULT:     -11.8      0.000      0.000
REMARK  Name = 24941243
REMARK  5 active torsions:
REMARK  status: ('A' for Active; 'I' for Inactive)
REMARK    1  A    between atoms: N_1  and  C_14
REMARK    2  A    between atoms: N_2  and  C_22
REMARK    3  A    between atoms: C_25  and  O_28
REMARK    4  A    between atoms: C_26  and  O_30
REMARK    5  A    between atoms: C_27  and  O_32
REMARK                            x       y       z     vdW  Elec       q    Type
REMARK                         _______ _______ _______ _____ _____    ______ ____
ROOT
ATOM      1  N   UNL     1      36.465 -18.767 -22.400  0.00  0.00    -0.260 N 
ATOM      2  N   UNL     1      36.847 -21.435 -18.514  0.00  0.00    -0.247 N 
ATOM      3  N   UNL     1      36.679 -20.106 -20.440  0.00  0.00    -0.322 NA
ATOM      4  N   UNL     1      34.760 -21.282 -19.577  0.00  0.00    -0.170 NA
ATOM      5  C   UNL     1      35.894 -19.628 -21.429  0.00  0.00    +0.201 C 
ATOM      6  C   UNL     1      37.926 -18.749 -22.525  0.00  0.00    +0.120 C 
ATOM      7  C   UNL     1      34.553 -19.928 -21.557  0.00  0.00    +0.070 C 
ATOM      8  C   UNL     1      36.057 -20.915 -19.563  0.00  0.00    +0.150 C 
ATOM      9  C   UNL     1      34.035 -20.768 -20.593  0.00  0.00    +0.116 C 
ATOM     10  H   UNL     1      37.786 -21.140 -18.543  0.00  0.00    +0.165 HD
ENDROOT
BRANCH   1  14
ATOM     11  N   UNL     1      33.691 -15.537 -26.303  0.00  0.00    -0.280 N 
ATOM     12  N   UNL     1      34.187 -16.788 -26.267  0.00  0.00    -0.173 NA
ATOM     13  C   UNL     1      34.523 -15.674 -24.317  0.00  0.00    +0.032 A 
ATOM     14  C   UNL     1      35.790 -17.736 -23.106  0.00  0.00    +0.055 C 
ATOM     15  C   UNL     1      34.716 -16.910 -25.037  0.00  0.00    +0.103 A 
ATOM     16  C   UNL     1      33.867 -14.820 -25.155  0.00  0.00    +0.053 A 
ATOM     17  C   UNL     1      35.371 -17.997 -24.429  0.00  0.00    +0.036 C 
ATOM     18  C   UNL     1      34.922 -15.387 -23.017  0.00  0.00    +0.004 C 
ATOM     19  C   UNL     1      35.574 -16.491 -22.435  0.00  0.00    +0.015 C 
ATOM     20  C   UNL     1      33.388 -13.434 -25.021  0.00  0.00    +0.051 C 
ATOM     21  H   UNL     1      33.238 -15.167 -27.096  0.00  0.00    +0.189 HD
ENDBRANCH   1  14
BRANCH   2  22
ATOM     22  C   UNL     1      36.556 -22.291 -17.436  0.00  0.00    +0.064 C 
ATOM     23  C   UNL     1      37.573 -22.691 -16.570  0.00  0.00    +0.055 C 
ATOM     24  C   UNL     1      35.250 -22.738 -17.233  0.00  0.00    +0.055 C 
ATOM     25  C   UNL     1      34.961 -23.583 -16.162  0.00  0.00    +0.177 C 
ATOM     26  C   UNL     1      37.284 -23.538 -15.499  0.00  0.00    +0.177 C 
ATOM     27  C   UNL     1      35.978 -23.984 -15.295  0.00  0.00    +0.206 C 
BRANCH  25  28
ATOM     28  O   UNL     1      33.682 -24.012 -15.974  0.00  0.00    -0.468 OA
ATOM     29  C   UNL     1      32.665 -23.371 -16.740  0.00  0.00    +0.253 C 
ENDBRANCH  25  28
BRANCH  26  30
ATOM     30  O   UNL     1      38.287 -23.922 -14.660  0.00  0.00    -0.468 OA
ATOM     31  C   UNL     1      39.033 -25.078 -15.030  0.00  0.00    +0.253 C 
ENDBRANCH  26  30
BRANCH  27  32
ATOM     32  O   UNL     1      35.696 -24.812 -14.250  0.00  0.00    -0.465 OA
ATOM     33  C   UNL     1      35.345 -24.197 -13.013  0.00  0.00    +0.253 C 
ENDBRANCH  27  32
ENDBRANCH   2  22
TORSDOF 5
ENDMDL
MODEL 2
REMARK VINA RESULT:     -11.8      0.030      2.288
REMARK  Name = 24941243
REMARK  5 active torsions:
REMARK  status: ('A' for Active; 'I' for Inactive)
REMARK    1  A    between atoms: N_1  and  C_14
REMARK    2  A    between atoms: N_2  and  C_22
REMARK    3  A    between atoms: C_25  and  O_28
REMARK    4  A    between atoms: C_26  and  O_30
REMARK    5  A    between atoms: C_27  and  O_32
REMARK                            x       y       z     vdW  Elec       q    Type
REMARK                         _______ _______ _______ _____ _____    ______ ____
ROOT
ATOM      1  N   UNL     1      36.471 -18.791 -22.383  0.00  0.00    -0.260 N 
ATOM      2  N   UNL     1      36.842 -21.456 -18.494  0.00  0.00    -0.247 N 
ATOM      3  N   UNL     1      36.679 -20.128 -20.421  0.00  0.00    -0.322 NA
ATOM      4  N   UNL     1      34.754 -21.291 -19.554  0.00  0.00    -0.170 NA
ATOM      5  C   UNL     1      35.896 -19.647 -21.409  0.00  0.00    +0.201 C 
ATOM      6  C   UNL     1      37.933 -18.783 -22.509  0.00  0.00    +0.120 C 
ATOM      7  C   UNL     1      34.553 -19.938 -21.535  0.00  0.00    +0.070 C 
ATOM      8  C   UNL     1      36.053 -20.932 -19.542  0.00  0.00    +0.150 C 
ATOM      9  C   UNL     1      34.031 -20.774 -20.569  0.00  0.00    +0.116 C 
ATOM     10  H   UNL     1      37.782 -21.167 -18.524  0.00  0.00    +0.165 HD
ENDROOT
BRANCH   1  14
ATOM     11  N   UNL     1      33.721 -15.544 -26.289  0.00  0.00    -0.280 N 
ATOM     12  N   UNL     1      34.213 -16.797 -26.254  0.00  0.00    -0.173 NA
ATOM     13  C   UNL     1      34.546 -15.688 -24.300  0.00  0.00    +0.032 A 
ATOM     14  C   UNL     1      35.802 -17.756 -23.089  0.00  0.00    +0.055 C 
ATOM     15  C   UNL     1      34.737 -16.924 -25.022  0.00  0.00    +0.103 A 
ATOM     16  C   UNL     1      33.895 -14.830 -25.140  0.00  0.00    +0.053 A 
ATOM     17  C   UNL     1      35.387 -18.014 -24.414  0.00  0.00    +0.036 C 
ATOM     18  C   UNL     1      34.941 -15.404 -22.998  0.00  0.00    +0.004 C 
ATOM     19  C   UNL     1      35.587 -16.512 -22.416  0.00  0.00    +0.015 C 
ATOM     20  C   UNL     1      33.421 -13.443 -25.004  0.00  0.00    +0.051 C 
ATOM     21  H   UNL     1      33.272 -15.172 -27.083  0.00  0.00    +0.189 HD
ENDBRANCH   1  14
BRANCH   2  22
ATOM     22  C   UNL     1      36.546 -22.309 -17.414  0.00  0.00    +0.064 C 
ATOM     23  C   UNL     1      35.241 -22.754 -17.215  0.00  0.00    +0.055 C 
ATOM     24  C   UNL     1      37.561 -22.710 -16.544  0.00  0.00    +0.055 C 
ATOM     25  C   UNL     1      37.269 -23.558 -15.477  0.00  0.00    +0.177 C 
ATOM     26  C   UNL     1      34.949 -23.602 -16.146  0.00  0.00    +0.177 C 
ATOM     27  C   UNL     1      35.963 -24.004 -15.277  0.00  0.00    +0.206 C 
BRANCH  25  28
ATOM     28  O   UNL     1      38.269 -23.943 -14.635  0.00  0.00    -0.468 OA
ATOM     29  C   UNL     1      39.048 -25.070 -15.028  0.00  0.00    +0.253 C 
ENDBRANCH  25  28
BRANCH  26  30
ATOM     30  O   UNL     1      33.668 -24.030 -15.963  0.00  0.00    -0.468 OA
ATOM     31  C   UNL     1      32.656 -23.402 -16.746  0.00  0.00    +0.253 C 
ENDBRANCH  26  30
BRANCH  27  32
ATOM     32  O   UNL     1      35.677 -24.832 -14.232  0.00  0.00    -0.465 OA
ATOM     33  C   UNL     1      35.325 -24.216 -12.996  0.00  0.00    +0.253 C 
ENDBRANCH  27  32
ENDBRANCH   2  22
TORSDOF 5
ENDMDL
MODEL 3
REMARK VINA RESULT:     -10.7      1.295      1.653
REMARK  Name = 24941243
REMARK  5 active torsions:
REMARK  status: ('A' for Active; 'I' for Inactive)
REMARK    1  A    between atoms: N_1  and  C_14
REMARK    2  A    between atoms: N_2  and  C_22
REMARK    3  A    between atoms: C_25  and  O_28
REMARK    4  A    between atoms: C_26  and  O_30
REMARK    5  A    between atoms: C_27  and  O_32
REMARK                            x       y       z     vdW  Elec       q    Type
REMARK                         _______ _______ _______ _____ _____    ______ ____
ROOT
ATOM      1  N   UNL     1      35.956 -19.171 -21.933  0.00  0.00    -0.260 N 
ATOM      2  N   UNL     1      35.314 -22.023 -18.216  0.00  0.00    -0.247 N 
ATOM      3  N   UNL     1      35.654 -20.606 -20.054  0.00  0.00    -0.322 NA
ATOM      4  N   UNL     1      33.477 -21.530 -19.590  0.00  0.00    -0.170 NA
ATOM      5  C   UNL     1      35.118 -19.980 -21.124  0.00  0.00    +0.201 C 
ATOM      6  C   UNL     1      37.406 -19.357 -21.818  0.00  0.00    +0.120 C 
ATOM      7  C   UNL     1      33.790 -20.080 -21.486  0.00  0.00    +0.070 C 
ATOM      8  C   UNL     1      34.789 -21.353 -19.343  0.00  0.00    +0.150 C 
ATOM      9  C   UNL     1      33.009 -20.876 -20.674  0.00  0.00    +0.116 C 
ATOM     10  H   UNL     1      36.276 -21.865 -18.074  0.00  0.00    +0.165 HD
ENDROOT
BRANCH   1  14
ATOM     11  N   UNL     1      34.350 -15.415 -26.018  0.00  0.00    -0.280 N 
ATOM     12  N   UNL     1      34.665 -16.725 -25.983  0.00  0.00    -0.173 NA
ATOM     13  C   UNL     1      34.798 -15.756 -23.934  0.00  0.00    +0.032 A 
ATOM     14  C   UNL     1      35.554 -18.025 -22.670  0.00  0.00    +0.055 C 
ATOM     15  C   UNL     1      34.950 -16.973 -24.693  0.00  0.00    +0.103 A 
ATOM     16  C   UNL     1      34.414 -14.781 -24.811  0.00  0.00    +0.053 A 
ATOM     17  C   UNL     1      35.342 -18.167 -24.059  0.00  0.00    +0.036 C 
ATOM     18  C   UNL     1      34.997 -15.584 -22.569  0.00  0.00    +0.004 C 
ATOM     19  C   UNL     1      35.388 -16.793 -21.962  0.00  0.00    +0.015 C 
ATOM     20  C   UNL     1      34.105 -13.349 -24.665  0.00  0.00    +0.051 C 
ATOM     21  H   UNL     1      34.094 -14.952 -26.848  0.00  0.00    +0.189 HD
ENDBRANCH   1  14
BRANCH   2  22
ATOM     22  C   UNL     1      34.733 -22.873 -17.257  0.00  0.00    +0.064 C 
ATOM     23  C   UNL     1      35.533 -23.489 -16.296  0.00  0.00    +0.055 C 
ATOM     24  C   UNL     1      33.356 -23.097 -17.266  0.00  0.00    +0.055 C 
ATOM     25  C   UNL     1      32.780 -23.936 -16.313  0.00  0.00    +0.177 C 
ATOM     26  C   UNL     1      34.957 -24.329 -15.343  0.00  0.00    +0.177 C 
ATOM     27  C   UNL     1      33.580 -24.553 -15.351  0.00  0.00    +0.206 C 
BRANCH  25  28
ATOM     28  O   UNL     1      31.434 -24.146 -16.332  0.00  0.00    -0.468 OA
ATOM     29  C   UNL     1      30.601 -22.997 -16.468  0.00  0.00    +0.253 C 
ENDBRANCH  25  28
BRANCH  26  30
ATOM     30  O   UNL     1      35.750 -24.926 -14.409  0.00  0.00    -0.468 OA
ATOM     31  C   UNL     1      36.988 -25.468 -14.862  0.00  0.00    +0.253 C 
ENDBRANCH  26  30
BRANCH  27  32
ATOM     32  O   UNL     1      33.017 -25.375 -14.421  0.00  0.00    -0.465 OA
ATOM     33  C   UNL     1      32.134 -24.774 -13.476  0.00  0.00    +0.253 C 
ENDBRANCH  27  32
ENDBRANCH   2  22
TORSDOF 5
ENDMDL
MODEL 4
REMARK VINA RESULT:     -10.1      1.690      3.247
REMARK  Name = 24941243
REMARK  5 active torsions:
REMARK  status: ('A' for Active; 'I' for Inactive)
REMARK    1  A    between atoms: N_1  and  C_14
REMARK    2  A    between atoms: N_2  and  C_22
REMARK    3  A    between atoms: C_25  and  O_28
REMARK    4  A    between atoms: C_26  and  O_30
REMARK    5  A    between atoms: C_27  and  O_32
REMARK                            x       y       z     vdW  Elec       q    Type
REMARK                         _______ _______ _______ _____ _____    ______ ____
ROOT
ATOM      1  N   UNL     1      35.919 -19.401 -21.811  0.00  0.00    -0.260 N 
ATOM      2  N   UNL     1      35.098 -22.115 -18.025  0.00  0.00    -0.247 N 
ATOM      3  N   UNL     1      35.526 -20.765 -19.897  0.00  0.00    -0.322 NA
ATOM      4  N   UNL     1      33.346 -21.729 -19.539  0.00  0.00    -0.170 NA
ATOM      5  C   UNL     1      35.049 -20.200 -21.025  0.00  0.00    +0.201 C 
ATOM      6  C   UNL     1      37.362 -19.542 -21.592  0.00  0.00    +0.120 C 
ATOM      7  C   UNL     1      33.751 -20.350 -21.470  0.00  0.00    +0.070 C 
ATOM      8  C   UNL     1      34.634 -21.506 -19.213  0.00  0.00    +0.150 C 
ATOM      9  C   UNL     1      32.936 -21.134 -20.679  0.00  0.00    +0.116 C 
ATOM     10  H   UNL     1      36.043 -21.924 -17.827  0.00  0.00    +0.165 HD
ENDROOT
BRANCH   1  14
ATOM     11  N   UNL     1      34.661 -14.180 -23.938  0.00  0.00    -0.280 N 
ATOM     12  N   UNL     1      35.087 -14.661 -22.754  0.00  0.00    -0.173 NA
ATOM     13  C   UNL     1      34.790 -16.306 -24.291  0.00  0.00    +0.032 A 
ATOM     14  C   UNL     1      35.540 -18.299 -22.622  0.00  0.00    +0.055 C 
ATOM     15  C   UNL     1      35.180 -15.989 -22.938  0.00  0.00    +0.103 A 
ATOM     16  C   UNL     1      34.464 -15.128 -24.901  0.00  0.00    +0.053 A 
ATOM     17  C   UNL     1      35.574 -17.008 -22.051  0.00  0.00    +0.036 C 
ATOM     18  C   UNL     1      34.746 -17.563 -24.882  0.00  0.00    +0.004 C 
ATOM     19  C   UNL     1      35.146 -18.561 -23.972  0.00  0.00    +0.015 C 
ATOM     20  C   UNL     1      33.998 -14.780 -26.253  0.00  0.00    +0.051 C 
ATOM     21  H   UNL     1      34.503 -13.222 -24.097  0.00  0.00    +0.189 HD
ENDBRANCH   1  14
BRANCH   2  22
ATOM     22  C   UNL     1      34.474 -22.939 -17.071  0.00  0.00    +0.064 C 
ATOM     23  C   UNL     1      33.099 -23.161 -17.134  0.00  0.00    +0.055 C 
ATOM     24  C   UNL     1      35.232 -23.537 -16.063  0.00  0.00    +0.055 C 
ATOM     25  C   UNL     1      34.614 -24.357 -15.121  0.00  0.00    +0.177 C 
ATOM     26  C   UNL     1      32.481 -23.982 -16.190  0.00  0.00    +0.177 C 
ATOM     27  C   UNL     1      33.239 -24.580 -15.183  0.00  0.00    +0.206 C 
BRANCH  25  28
ATOM     28  O   UNL     1      35.365 -24.936 -14.142  0.00  0.00    -0.468 OA
ATOM     29  C   UNL     1      36.614 -25.502 -14.533  0.00  0.00    +0.253 C 
ENDBRANCH  25  28
BRANCH  26  30
ATOM     30  O   UNL     1      31.136 -24.190 -16.263  0.00  0.00    -0.468 OA
ATOM     31  C   UNL     1      30.296 -23.044 -16.147  0.00  0.00    +0.253 C 
ENDBRANCH  26  30
BRANCH  27  32
ATOM     32  O   UNL     1      32.634 -25.380 -14.259  0.00  0.00    -0.465 OA
ATOM     33  C   UNL     1      31.751 -24.750 -13.336  0.00  0.00    +0.253 C 
ENDBRANCH  27  32
ENDBRANCH   2  22
TORSDOF 5
ENDMDL
MODEL 5
REMARK VINA RESULT:      -9.7      7.595     12.237
REMARK  Name = 24941243
REMARK  5 active torsions:
REMARK  status: ('A' for Active; 'I' for Inactive)
REMARK    1  A    between atoms: N_1  and  C_14
REMARK    2  A    between atoms: N_2  and  C_22
REMARK    3  A    between atoms: C_25  and  O_28
REMARK    4  A    between atoms: C_26  and  O_30
REMARK    5  A    between atoms: C_27  and  O_32
REMARK                            x       y       z     vdW  Elec       q    Type
REMARK                         _______ _______ _______ _____ _____    ______ ____
ROOT
ATOM      1  N   UNL     1      32.644  -7.765 -22.385  0.00  0.00    -0.260 N 
ATOM      2  N   UNL     1      33.339 -12.371 -23.199  0.00  0.00    -0.247 N 
ATOM      3  N   UNL     1      32.978 -10.090 -22.781  0.00  0.00    -0.322 NA
ATOM      4  N   UNL     1      34.644 -10.808 -24.369  0.00  0.00    -0.170 NA
ATOM      5  C   UNL     1      33.320  -8.814 -23.056  0.00  0.00    +0.201 C 
ATOM      6  C   UNL     1      31.904  -8.098 -21.163  0.00  0.00    +0.120 C 
ATOM      7  C   UNL     1      34.299  -8.461 -23.962  0.00  0.00    +0.070 C 
ATOM      8  C   UNL     1      33.670 -11.023 -23.462  0.00  0.00    +0.150 C 
ATOM      9  C   UNL     1      34.934  -9.510 -24.595  0.00  0.00    +0.116 C 
ATOM     10  H   UNL     1      32.624 -12.479 -22.532  0.00  0.00    +0.165 HD
ENDROOT
BRANCH   1  14
ATOM     11  N   UNL     1      30.648  -2.455 -23.474  0.00  0.00    -0.280 N 
ATOM     12  N   UNL     1      30.345  -3.438 -22.604  0.00  0.00    -0.173 NA
ATOM     13  C   UNL     1      32.060  -4.007 -23.980  0.00  0.00    +0.032 A 
ATOM     14  C   UNL     1      32.401  -6.462 -22.896  0.00  0.00    +0.055 C 
ATOM     15  C   UNL     1      31.210  -4.426 -22.891  0.00  0.00    +0.103 A 
ATOM     16  C   UNL     1      31.672  -2.744 -24.328  0.00  0.00    +0.053 A 
ATOM     17  C   UNL     1      31.368  -5.697 -22.310  0.00  0.00    +0.036 C 
ATOM     18  C   UNL     1      33.083  -4.733 -24.578  0.00  0.00    +0.004 C 
ATOM     19  C   UNL     1      33.217  -6.000 -23.976  0.00  0.00    +0.015 C 
ATOM     20  C   UNL     1      32.133  -1.786 -25.346  0.00  0.00    +0.051 C 
ATOM     21  H   UNL     1      30.167  -1.596 -23.493  0.00  0.00    +0.189 HD
ENDBRANCH   1  14
BRANCH   2  22
ATOM     22  C   UNL     1      33.832 -13.588 -23.704  0.00  0.00    +0.064 C 
ATOM     23  C   UNL     1      33.586 -13.944 -25.029  0.00  0.00    +0.055 C 
ATOM     24  C   UNL     1      34.570 -14.439 -22.878  0.00  0.00    +0.055 C 
ATOM     25  C   UNL     1      35.060 -15.643 -23.380  0.00  0.00    +0.177 C 
ATOM     26  C   UNL     1      34.077 -15.150 -25.530  0.00  0.00    +0.177 C 
ATOM     27  C   UNL     1      34.815 -15.999 -24.706  0.00  0.00    +0.206 C 
BRANCH  25  28
ATOM     28  O   UNL     1      35.779 -16.464 -22.564  0.00  0.00    -0.468 OA
ATOM     29  C   UNL     1      35.146 -16.900 -21.363  0.00  0.00    +0.253 C 
ENDBRANCH  25  28
BRANCH  26  30
ATOM     30  O   UNL     1      33.829 -15.486 -26.828  0.00  0.00    -0.468 OA
ATOM     31  C   UNL     1      33.654 -14.415 -27.752  0.00  0.00    +0.253 C 
ENDBRANCH  26  30
BRANCH  27  32
ATOM     32  O   UNL     1      35.293 -17.178 -25.195  0.00  0.00    -0.465 OA
ATOM     33  C   UNL     1      34.459 -18.325 -25.052  0.00  0.00    +0.253 C 
ENDBRANCH  27  32
ENDBRANCH   2  22
TORSDOF 5
ENDMDL
MODEL 6
REMARK VINA RESULT:      -9.7      7.593     12.110
REMARK  Name = 24941243
REMARK  5 active torsions:
REMARK  status: ('A' for Active; 'I' for Inactive)
REMARK    1  A    between atoms: N_1  and  C_14
REMARK    2  A    between atoms: N_2  and  C_22
REMARK    3  A    between atoms: C_25  and  O_28
REMARK    4  A    between atoms: C_26  and  O_30
REMARK    5  A    between atoms: C_27  and  O_32
REMARK                            x       y       z     vdW  Elec       q    Type
REMARK                         _______ _______ _______ _____ _____    ______ ____
ROOT
ATOM      1  N   UNL     1      32.646  -7.763 -22.392  0.00  0.00    -0.260 N 
ATOM      2  N   UNL     1      33.346 -12.369 -23.204  0.00  0.00    -0.247 N 
ATOM      3  N   UNL     1      32.983 -10.089 -22.787  0.00  0.00    -0.322 NA
ATOM      4  N   UNL     1      34.651 -10.807 -24.372  0.00  0.00    -0.170 NA
ATOM      5  C   UNL     1      33.324  -8.813 -23.063  0.00  0.00    +0.201 C 
ATOM      6  C   UNL     1      31.905  -8.097 -21.171  0.00  0.00    +0.120 C 
ATOM      7  C   UNL     1      34.304  -8.459 -23.967  0.00  0.00    +0.070 C 
ATOM      8  C   UNL     1      33.676 -11.021 -23.467  0.00  0.00    +0.150 C 
ATOM      9  C   UNL     1      34.941  -9.508 -24.598  0.00  0.00    +0.116 C 
ATOM     10  H   UNL     1      32.629 -12.478 -22.537  0.00  0.00    +0.165 HD
ENDROOT
BRANCH   1  14
ATOM     11  N   UNL     1      30.648  -2.455 -23.488  0.00  0.00    -0.280 N 
ATOM     12  N   UNL     1      30.345  -3.438 -22.618  0.00  0.00    -0.173 NA
ATOM     13  C   UNL     1      32.062  -4.006 -23.991  0.00  0.00    +0.032 A 
ATOM     14  C   UNL     1      32.403  -6.461 -22.905  0.00  0.00    +0.055 C 
ATOM     15  C   UNL     1      31.211  -4.426 -22.903  0.00  0.00    +0.103 A 
ATOM     16  C   UNL     1      31.675  -2.744 -24.340  0.00  0.00    +0.053 A 
ATOM     17  C   UNL     1      31.369  -5.697 -22.321  0.00  0.00    +0.036 C 
ATOM     18  C   UNL     1      33.087  -4.732 -24.586  0.00  0.00    +0.004 C 
ATOM     19  C   UNL     1      33.222  -5.998 -23.983  0.00  0.00    +0.015 C 
ATOM     20  C   UNL     1      32.137  -1.786 -25.357  0.00  0.00    +0.051 C 
ATOM     21  H   UNL     1      30.167  -1.596 -23.508  0.00  0.00    +0.189 HD
ENDBRANCH   1  14
BRANCH   2  22
ATOM     22  C   UNL     1      33.840 -13.587 -23.707  0.00  0.00    +0.064 C 
ATOM     23  C   UNL     1      34.567 -14.439 -22.878  0.00  0.00    +0.055 C 
ATOM     24  C   UNL     1      33.600 -13.942 -25.035  0.00  0.00    +0.055 C 
ATOM     25  C   UNL     1      34.087 -15.149 -25.532  0.00  0.00    +0.177 C 
ATOM     26  C   UNL     1      35.055 -15.648 -23.376  0.00  0.00    +0.177 C 
ATOM     27  C   UNL     1      34.815 -16.003 -24.703  0.00  0.00    +0.206 C 
BRANCH  25  28
ATOM     28  O   UNL     1      33.846 -15.485 -26.831  0.00  0.00    -0.468 OA
ATOM     29  C   UNL     1      33.626 -14.414 -27.746  0.00  0.00    +0.253 C 
ENDBRANCH  25  28
BRANCH  26  30
ATOM     30  O   UNL     1      35.765 -16.472 -22.555  0.00  0.00    -0.468 OA
ATOM     31  C   UNL     1      35.133 -16.882 -21.344  0.00  0.00    +0.253 C 
ENDBRANCH  26  30
BRANCH  27  32
ATOM     32  O   UNL     1      35.293 -17.183 -25.190  0.00  0.00    -0.465 OA
ATOM     33  C   UNL     1      34.493 -18.344 -24.975  0.00  0.00    +0.253 C 
ENDBRANCH  27  32
ENDBRANCH   2  22
TORSDOF 5
ENDMDL
MODEL 7
REMARK VINA RESULT:      -9.3      5.885     11.515
REMARK  Name = 24941243
REMARK  5 active torsions:
REMARK  status: ('A' for Active; 'I' for Inactive)
REMARK    1  A    between atoms: N_1  and  C_14
REMARK    2  A    between atoms: N_2  and  C_22
REMARK    3  A    between atoms: C_25  and  O_28
REMARK    4  A    between atoms: C_26  and  O_30
REMARK    5  A    between atoms: C_27  and  O_32
REMARK                            x       y       z     vdW  Elec       q    Type
REMARK                         _______ _______ _______ _____ _____    ______ ____
ROOT
ATOM      1  N   UNL     1      35.297 -18.147 -22.512  0.00  0.00    -0.260 N 
ATOM      2  N   UNL     1      34.179 -13.741 -23.818  0.00  0.00    -0.247 N 
ATOM      3  N   UNL     1      34.730 -15.934 -23.191  0.00  0.00    -0.322 NA
ATOM      4  N   UNL     1      34.702 -14.152 -21.568  0.00  0.00    -0.170 NA
ATOM      5  C   UNL     1      35.090 -16.778 -22.202  0.00  0.00    +0.201 C 
ATOM      6  C   UNL     1      35.498 -18.507 -23.920  0.00  0.00    +0.120 C 
ATOM      7  C   UNL     1      35.273 -16.391 -20.891  0.00  0.00    +0.070 C 
ATOM      8  C   UNL     1      34.556 -14.655 -22.809  0.00  0.00    +0.150 C 
ATOM      9  C   UNL     1      35.063 -15.052 -20.629  0.00  0.00    +0.116 C 
ATOM     10  H   UNL     1      34.083 -14.152 -24.708  0.00  0.00    +0.165 HD
ENDROOT
BRANCH   1  14
ATOM     11  N   UNL     1      35.857 -22.536 -18.800  0.00  0.00    -0.280 N 
ATOM     12  N   UNL     1      36.695 -21.663 -19.392  0.00  0.00    -0.173 NA
ATOM     13  C   UNL     1      34.533 -21.329 -20.003  0.00  0.00    +0.032 A 
ATOM     14  C   UNL     1      35.090 -19.245 -21.636  0.00  0.00    +0.055 C 
ATOM     15  C   UNL     1      35.900 -20.890 -20.152  0.00  0.00    +0.103 A 
ATOM     16  C   UNL     1      34.543 -22.382 -19.133  0.00  0.00    +0.053 A 
ATOM     17  C   UNL     1      36.215 -19.808 -20.995  0.00  0.00    +0.036 C 
ATOM     18  C   UNL     1      33.406 -20.796 -20.617  0.00  0.00    +0.004 C 
ATOM     19  C   UNL     1      33.752 -19.717 -21.453  0.00  0.00    +0.015 C 
ATOM     20  C   UNL     1      33.491 -23.251 -18.580  0.00  0.00    +0.051 C 
ATOM     21  H   UNL     1      36.169 -23.232 -18.177  0.00  0.00    +0.189 HD
ENDBRANCH   1  14
BRANCH   2  22
ATOM     22  C   UNL     1      33.913 -12.360 -23.802  0.00  0.00    +0.064 C 
ATOM     23  C   UNL     1      32.824 -11.868 -23.082  0.00  0.00    +0.055 C 
ATOM     24  C   UNL     1      34.740 -11.481 -24.503  0.00  0.00    +0.055 C 
ATOM     25  C   UNL     1      34.477 -10.112 -24.483  0.00  0.00    +0.177 C 
ATOM     26  C   UNL     1      32.562 -10.498 -23.063  0.00  0.00    +0.177 C 
ATOM     27  C   UNL     1      33.389  -9.620 -23.763  0.00  0.00    +0.206 C 
BRANCH  25  28
ATOM     28  O   UNL     1      35.293  -9.264 -25.172  0.00  0.00    -0.468 OA
ATOM     29  C   UNL     1      36.236  -9.855 -26.063  0.00  0.00    +0.253 C 
ENDBRANCH  25  28
BRANCH  26  30
ATOM     30  O   UNL     1      31.495 -10.031 -22.356  0.00  0.00    -0.468 OA
ATOM     31  C   UNL     1      31.348 -10.501 -21.018  0.00  0.00    +0.253 C 
ENDBRANCH  26  30
BRANCH  27  32
ATOM     32  O   UNL     1      33.132  -8.281 -23.746  0.00  0.00    -0.465 OA
ATOM     33  C   UNL     1      33.729  -7.521 -22.698  0.00  0.00    +0.253 C 
ENDBRANCH  27  32
ENDBRANCH   2  22
TORSDOF 5
ENDMDL
MODEL 8
REMARK VINA RESULT:      -9.0      5.898     11.467
REMARK  Name = 24941243
REMARK  5 active torsions:
REMARK  status: ('A' for Active; 'I' for Inactive)
REMARK    1  A    between atoms: N_1  and  C_14
REMARK    2  A    between atoms: N_2  and  C_22
REMARK    3  A    between atoms: C_25  and  O_28
REMARK    4  A    between atoms: C_26  and  O_30
REMARK    5  A    between atoms: C_27  and  O_32
REMARK                            x       y       z     vdW  Elec       q    Type
REMARK                         _______ _______ _______ _____ _____    ______ ____
ROOT
ATOM      1  N   UNL     1      35.291 -18.086 -22.499  0.00  0.00    -0.260 N 
ATOM      2  N   UNL     1      34.152 -13.668 -23.741  0.00  0.00    -0.247 N 
ATOM      3  N   UNL     1      34.713 -15.867 -23.146  0.00  0.00    -0.322 NA
ATOM      4  N   UNL     1      34.705 -14.104 -21.502  0.00  0.00    -0.170 NA
ATOM      5  C   UNL     1      35.087 -16.722 -22.171  0.00  0.00    +0.201 C 
ATOM      6  C   UNL     1      35.474 -18.431 -23.913  0.00  0.00    +0.120 C 
ATOM      7  C   UNL     1      35.286 -16.349 -20.857  0.00  0.00    +0.070 C 
ATOM      8  C   UNL     1      34.543 -14.592 -22.747  0.00  0.00    +0.150 C 
ATOM      9  C   UNL     1      35.078 -15.014 -20.578  0.00  0.00    +0.116 C 
ATOM     10  H   UNL     1      34.046 -14.069 -24.634  0.00  0.00    +0.165 HD
ENDROOT
BRANCH   1  14
ATOM     11  N   UNL     1      35.897 -22.493 -18.813  0.00  0.00    -0.280 N 
ATOM     12  N   UNL     1      36.724 -21.600 -19.392  0.00  0.00    -0.173 NA
ATOM     13  C   UNL     1      34.562 -21.300 -20.019  0.00  0.00    +0.032 A 
ATOM     14  C   UNL     1      35.096 -19.195 -21.632  0.00  0.00    +0.055 C 
ATOM     15  C   UNL     1      35.922 -20.836 -20.153  0.00  0.00    +0.103 A 
ATOM     16  C   UNL     1      34.583 -22.359 -19.157  0.00  0.00    +0.053 A 
ATOM     17  C   UNL     1      36.225 -19.743 -20.986  0.00  0.00    +0.036 C 
ATOM     18  C   UNL     1      33.431 -20.784 -20.640  0.00  0.00    +0.004 C 
ATOM     19  C   UNL     1      33.765 -19.692 -21.465  0.00  0.00    +0.015 C 
ATOM     20  C   UNL     1      33.543 -23.251 -18.620  0.00  0.00    +0.051 C 
ATOM     21  H   UNL     1      36.216 -23.187 -18.193  0.00  0.00    +0.189 HD
ENDBRANCH   1  14
BRANCH   2  22
ATOM     22  C   UNL     1      33.885 -12.287 -23.705  0.00  0.00    +0.064 C 
ATOM     23  C   UNL     1      34.709 -11.400 -24.397  0.00  0.00    +0.055 C 
ATOM     24  C   UNL     1      32.795 -11.805 -22.980  0.00  0.00    +0.055 C 
ATOM     25  C   UNL     1      32.529 -10.437 -22.947  0.00  0.00    +0.177 C 
ATOM     26  C   UNL     1      34.443 -10.030 -24.364  0.00  0.00    +0.177 C 
ATOM     27  C   UNL     1      33.352  -9.549 -23.639  0.00  0.00    +0.206 C 
BRANCH  25  28
ATOM     28  O   UNL     1      31.461  -9.980 -22.235  0.00  0.00    -0.468 OA
ATOM     29  C   UNL     1      31.572 -10.003 -20.814  0.00  0.00    +0.253 C 
ENDBRANCH  25  28
BRANCH  26  30
ATOM     30  O   UNL     1      35.256  -9.174 -25.044  0.00  0.00    -0.468 OA
ATOM     31  C   UNL     1      36.129  -9.745 -26.016  0.00  0.00    +0.253 C 
ENDBRANCH  26  30
BRANCH  27  32
ATOM     32  O   UNL     1      33.093  -8.211 -23.606  0.00  0.00    -0.465 OA
ATOM     33  C   UNL     1      31.969  -7.751 -24.352  0.00  0.00    +0.253 C 
ENDBRANCH  27  32
ENDBRANCH   2  22
TORSDOF 5
ENDMDL
