MODEL 1
REMARK VINA RESULT:     -11.1      0.000      0.000
REMARK  Name = 6419789
REMARK  3 active torsions:
REMARK  status: ('A' for Active; 'I' for Inactive)
REMARK    1  A    between atoms: N_4  and  C_13
REMARK    2  A    between atoms: C_5  and  C_19
REMARK    3  A    between atoms: C_22  and  N_25
REMARK                            x       y       z     vdW  Elec       q    Type
REMARK                         _______ _______ _______ _____ _____    ______ ____
ROOT
ATOM      1  N   UNL     1      36.146 -23.442 -14.537  0.00  0.00    -0.164 N 
ATOM      2  N   UNL     1      35.149 -23.044 -16.688  0.00  0.00    -0.374 NA
ATOM      3  N   UNL     1      35.808 -23.852 -13.287  0.00  0.00    -0.174 NA
ATOM      4  N   UNL     1      36.479 -22.306 -18.448  0.00  0.00    -0.288 N 
ATOM      5  C   UNL     1      33.969 -23.838 -14.630  0.00  0.00    +0.134 C 
ATOM      6  C   UNL     1      35.043 -23.423 -15.384  0.00  0.00    +0.194 C 
ATOM      7  C   UNL     1      34.498 -24.086 -13.357  0.00  0.00    +0.104 C 
ATOM      8  C   UNL     1      36.334 -22.692 -17.134  0.00  0.00    +0.186 C 
ATOM      9  C   UNL     1      37.402 -23.072 -14.999  0.00  0.00    +0.096 C 
ATOM     10  C   UNL     1      37.566 -22.691 -16.269  0.00  0.00    +0.066 C 
ATOM     11  H   UNL     1      37.351 -22.485 -18.869  0.00  0.00    +0.155 HD
ENDROOT
BRANCH   4  13
ATOM     12 CL   UNL     1      35.403 -18.997 -22.220  0.00  0.00    -0.082 Cl
ATOM     13  C   UNL     1      35.519 -21.687 -19.242  0.00  0.00    +0.051 C 
ATOM     14  C   UNL     1      35.891 -20.754 -20.225  0.00  0.00    +0.026 C 
ATOM     15  C   UNL     1      34.156 -21.982 -19.078  0.00  0.00    +0.015 C 
ATOM     16  C   UNL     1      34.927 -20.136 -21.021  0.00  0.00    +0.059 C 
ATOM     17  C   UNL     1      33.192 -21.362 -19.873  0.00  0.00    +0.002 C 
ATOM     18  C   UNL     1      33.577 -20.439 -20.845  0.00  0.00    +0.011 C 
ENDBRANCH   4  13
BRANCH   5  19
ATOM     19  C   UNL     1      32.631 -23.960 -15.125  0.00  0.00    -0.008 C 
ATOM     20  C   UNL     1      31.792 -24.966 -14.641  0.00  0.00    +0.011 C 
ATOM     21  C   UNL     1      32.159 -23.073 -16.095  0.00  0.00    -0.003 C 
ATOM     22  C   UNL     1      30.488 -25.085 -15.124  0.00  0.00    +0.041 C 
ATOM     23  C   UNL     1      30.856 -23.191 -16.579  0.00  0.00    +0.001 C 
ATOM     24  C   UNL     1      30.021 -24.197 -16.094  0.00  0.00    +0.014 C 
BRANCH  22  25
ATOM     25  N   UNL     1      29.644 -26.102 -14.634  0.00  0.00    -0.357 N 
ATOM     26  H   UNL     1      28.975 -26.514 -15.227  0.00  0.00    +0.142 HD
ATOM     27  H   UNL     1      29.722 -26.399 -13.699  0.00  0.00    +0.142 HD
ENDBRANCH  22  25
ENDBRANCH   5  19
TORSDOF 3
ENDMDL
MODEL 2
REMARK VINA RESULT:     -10.6      3.148      5.661
REMARK  Name = 6419789
REMARK  3 active torsions:
REMARK  status: ('A' for Active; 'I' for Inactive)
REMARK    1  A    between atoms: N_4  and  C_13
REMARK    2  A    between atoms: C_5  and  C_19
REMARK    3  A    between atoms: C_22  and  N_25
REMARK                            x       y       z     vdW  Elec       q    Type
REMARK                         _______ _______ _______ _____ _____    ______ ____
ROOT
ATOM      1  N   UNL     1      35.392 -22.112 -18.533  0.00  0.00    -0.164 N 
ATOM      2  N   UNL     1      35.619 -22.936 -16.286  0.00  0.00    -0.374 NA
ATOM      3  N   UNL     1      34.442 -21.914 -19.484  0.00  0.00    -0.174 NA
ATOM      4  N   UNL     1      37.716 -22.951 -15.278  0.00  0.00    -0.288 N 
ATOM      5  C   UNL     1      33.501 -22.800 -17.609  0.00  0.00    +0.134 C 
ATOM      6  C   UNL     1      34.849 -22.654 -17.373  0.00  0.00    +0.194 C 
ATOM      7  C   UNL     1      33.311 -22.331 -18.915  0.00  0.00    +0.104 C 
ATOM      8  C   UNL     1      36.907 -22.681 -16.359  0.00  0.00    +0.186 C 
ATOM      9  C   UNL     1      36.751 -21.840 -18.620  0.00  0.00    +0.096 C 
ATOM     10  C   UNL     1      37.555 -22.097 -17.585  0.00  0.00    +0.066 C 
ATOM     11  H   UNL     1      38.509 -22.379 -15.164  0.00  0.00    +0.155 HD
ENDROOT
BRANCH   4  13
ATOM     12 CL   UNL     1      36.027 -24.294 -10.623  0.00  0.00    -0.082 Cl
ATOM     13  C   UNL     1      37.528 -23.952 -14.330  0.00  0.00    +0.051 C 
ATOM     14  C   UNL     1      36.940 -23.663 -13.088  0.00  0.00    +0.026 C 
ATOM     15  C   UNL     1      37.923 -25.273 -14.596  0.00  0.00    +0.015 C 
ATOM     16  C   UNL     1      36.751 -24.668 -12.139  0.00  0.00    +0.059 C 
ATOM     17  C   UNL     1      37.735 -26.278 -13.647  0.00  0.00    +0.002 C 
ATOM     18  C   UNL     1      37.149 -25.976 -12.418  0.00  0.00    +0.011 C 
ENDBRANCH   4  13
BRANCH   5  19
ATOM     19  C   UNL     1      32.566 -23.329 -16.662  0.00  0.00    -0.008 C 
ATOM     20  C   UNL     1      33.013 -24.104 -15.590  0.00  0.00    +0.011 C 
ATOM     21  C   UNL     1      31.200 -23.072 -16.808  0.00  0.00    -0.003 C 
ATOM     22  C   UNL     1      32.101 -24.619 -14.668  0.00  0.00    +0.041 C 
ATOM     23  C   UNL     1      30.288 -23.587 -15.887  0.00  0.00    +0.001 C 
ATOM     24  C   UNL     1      30.738 -24.361 -14.817  0.00  0.00    +0.014 C 
BRANCH  22  25
ATOM     25  N   UNL     1      32.556 -25.402 -13.587  0.00  0.00    -0.357 N 
ATOM     26  H   UNL     1      33.250 -26.084 -13.732  0.00  0.00    +0.142 HD
ATOM     27  H   UNL     1      32.178 -25.266 -12.688  0.00  0.00    +0.142 HD
ENDBRANCH  22  25
ENDBRANCH   5  19
TORSDOF 3
ENDMDL
MODEL 3
REMARK VINA RESULT:     -10.5      3.179      5.733
REMARK  Name = 6419789
REMARK  3 active torsions:
REMARK  status: ('A' for Active; 'I' for Inactive)
REMARK    1  A    between atoms: N_4  and  C_13
REMARK    2  A    between atoms: C_5  and  C_19
REMARK    3  A    between atoms: C_22  and  N_25
REMARK                            x       y       z     vdW  Elec       q    Type
REMARK                         _______ _______ _______ _____ _____    ______ ____
ROOT
ATOM      1  N   UNL     1      35.173 -22.297 -18.246  0.00  0.00    -0.164 N 
ATOM      2  N   UNL     1      35.607 -23.068 -16.011  0.00  0.00    -0.374 NA
ATOM      3  N   UNL     1      34.151 -22.185 -19.134  0.00  0.00    -0.174 NA
ATOM      4  N   UNL     1      37.760 -22.912 -15.143  0.00  0.00    -0.288 N 
ATOM      5  C   UNL     1      33.403 -23.111 -17.192  0.00  0.00    +0.134 C 
ATOM      6  C   UNL     1      34.749 -22.861 -17.047  0.00  0.00    +0.194 C 
ATOM      7  C   UNL     1      33.094 -22.677 -18.487  0.00  0.00    +0.104 C 
ATOM      8  C   UNL     1      36.864 -22.719 -16.171  0.00  0.00    +0.186 C 
ATOM      9  C   UNL     1      36.498 -21.926 -18.426  0.00  0.00    +0.096 C 
ATOM     10  C   UNL     1      37.386 -22.106 -17.443  0.00  0.00    +0.066 C 
ATOM     11  H   UNL     1      38.513 -22.280 -15.088  0.00  0.00    +0.155 HD
ENDROOT
BRANCH   4  13
ATOM     12 CL   UNL     1      35.937 -24.527 -10.627  0.00  0.00    -0.082 Cl
ATOM     13  C   UNL     1      37.711 -23.909 -14.175  0.00  0.00    +0.051 C 
ATOM     14  C   UNL     1      36.939 -23.745 -13.013  0.00  0.00    +0.026 C 
ATOM     15  C   UNL     1      38.432 -25.103 -14.340  0.00  0.00    +0.015 C 
ATOM     16  C   UNL     1      36.889 -24.747 -12.044  0.00  0.00    +0.059 C 
ATOM     17  C   UNL     1      38.383 -26.104 -13.370  0.00  0.00    +0.002 C 
ATOM     18  C   UNL     1      37.612 -25.927 -12.222  0.00  0.00    +0.011 C 
ENDBRANCH   4  13
BRANCH   5  19
ATOM     19  C   UNL     1      32.574 -23.694 -16.181  0.00  0.00    -0.008 C 
ATOM     20  C   UNL     1      31.189 -23.743 -16.349  0.00  0.00    +0.011 C 
ATOM     21  C   UNL     1      33.149 -24.217 -15.020  0.00  0.00    -0.003 C 
ATOM     22  C   UNL     1      30.381 -24.311 -15.363  0.00  0.00    +0.041 C 
ATOM     23  C   UNL     1      32.342 -24.785 -14.033  0.00  0.00    +0.001 C 
ATOM     24  C   UNL     1      30.959 -24.832 -14.204  0.00  0.00    +0.014 C 
BRANCH  22  25
ATOM     25  N   UNL     1      28.982 -24.358 -15.535  0.00  0.00    -0.357 N 
ATOM     26  H   UNL     1      28.592 -24.936 -16.229  0.00  0.00    +0.142 HD
ATOM     27  H   UNL     1      28.398 -23.811 -14.963  0.00  0.00    +0.142 HD
ENDBRANCH  22  25
ENDBRANCH   5  19
TORSDOF 3
ENDMDL
MODEL 4
REMARK VINA RESULT:     -10.4      2.282      5.854
REMARK  Name = 6419789
REMARK  3 active torsions:
REMARK  status: ('A' for Active; 'I' for Inactive)
REMARK    1  A    between atoms: N_4  and  C_13
REMARK    2  A    between atoms: C_5  and  C_19
REMARK    3  A    between atoms: C_22  and  N_25
REMARK                            x       y       z     vdW  Elec       q    Type
REMARK                         _______ _______ _______ _____ _____    ______ ____
ROOT
ATOM      1  N   UNL     1      37.130 -23.495 -14.650  0.00  0.00    -0.164 N 
ATOM      2  N   UNL     1      34.769 -23.305 -15.064  0.00  0.00    -0.374 NA
ATOM      3  N   UNL     1      38.321 -23.288 -15.270  0.00  0.00    -0.174 NA
ATOM      4  N   UNL     1      33.262 -23.888 -13.390  0.00  0.00    -0.288 N 
ATOM      5  C   UNL     1      36.606 -22.750 -16.669  0.00  0.00    +0.134 C 
ATOM      6  C   UNL     1      36.060 -23.175 -15.479  0.00  0.00    +0.194 C 
ATOM      7  C   UNL     1      37.991 -22.840 -16.482  0.00  0.00    +0.104 C 
ATOM      8  C   UNL     1      34.555 -23.746 -13.845  0.00  0.00    +0.186 C 
ATOM      9  C   UNL     1      36.914 -23.962 -13.361  0.00  0.00    +0.096 C 
ATOM     10  C   UNL     1      35.669 -24.110 -12.900  0.00  0.00    +0.066 C 
ATOM     11  H   UNL     1      33.118 -23.770 -12.424  0.00  0.00    +0.155 HD
ENDROOT
BRANCH   4  13
ATOM     12 CL   UNL     1      29.877 -22.366 -16.934  0.00  0.00    -0.082 Cl
ATOM     13  C   UNL     1      32.140 -24.181 -14.158  0.00  0.00    +0.051 C 
ATOM     14  C   UNL     1      31.622 -23.238 -15.062  0.00  0.00    +0.026 C 
ATOM     15  C   UNL     1      31.502 -25.427 -14.046  0.00  0.00    +0.015 C 
ATOM     16  C   UNL     1      30.497 -23.534 -15.832  0.00  0.00    +0.059 C 
ATOM     17  C   UNL     1      30.376 -25.722 -14.816  0.00  0.00    +0.002 C 
ATOM     18  C   UNL     1      29.874 -24.776 -15.709  0.00  0.00    +0.011 C 
ENDBRANCH   4  13
BRANCH   5  19
ATOM     19  C   UNL     1      35.844 -22.324 -17.804  0.00  0.00    -0.008 C 
ATOM     20  C   UNL     1      36.412 -21.473 -18.754  0.00  0.00    +0.011 C 
ATOM     21  C   UNL     1      34.526 -22.759 -17.965  0.00  0.00    -0.003 C 
ATOM     22  C   UNL     1      35.669 -21.058 -19.859  0.00  0.00    +0.041 C 
ATOM     23  C   UNL     1      33.781 -22.344 -19.070  0.00  0.00    +0.001 C 
ATOM     24  C   UNL     1      34.353 -21.494 -20.017  0.00  0.00    +0.014 C 
BRANCH  22  25
ATOM     25  N   UNL     1      36.246 -20.198 -20.816  0.00  0.00    -0.357 N 
ATOM     26  H   UNL     1      37.177 -19.898 -20.709  0.00  0.00    +0.142 HD
ATOM     27  H   UNL     1      35.717 -19.897 -21.589  0.00  0.00    +0.142 HD
ENDBRANCH  22  25
ENDBRANCH   5  19
TORSDOF 3
ENDMDL
MODEL 5
REMARK VINA RESULT:     -10.4      2.954      5.869
REMARK  Name = 6419789
REMARK  3 active torsions:
REMARK  status: ('A' for Active; 'I' for Inactive)
REMARK    1  A    between atoms: N_4  and  C_13
REMARK    2  A    between atoms: C_5  and  C_19
REMARK    3  A    between atoms: C_22  and  N_25
REMARK                            x       y       z     vdW  Elec       q    Type
REMARK                         _______ _______ _______ _____ _____    ______ ____
ROOT
ATOM      1  N   UNL     1      37.115 -23.737 -14.396  0.00  0.00    -0.164 N 
ATOM      2  N   UNL     1      34.837 -23.252 -14.993  0.00  0.00    -0.374 NA
ATOM      3  N   UNL     1      38.368 -23.677 -14.916  0.00  0.00    -0.174 NA
ATOM      4  N   UNL     1      33.139 -23.651 -13.453  0.00  0.00    -0.288 N 
ATOM      5  C   UNL     1      36.852 -22.923 -16.439  0.00  0.00    +0.134 C 
ATOM      6  C   UNL     1      36.163 -23.282 -15.302  0.00  0.00    +0.194 C 
ATOM      7  C   UNL     1      38.195 -23.186 -16.143  0.00  0.00    +0.104 C 
ATOM      8  C   UNL     1      34.472 -23.669 -13.801  0.00  0.00    +0.186 C 
ATOM      9  C   UNL     1      36.739 -24.180 -13.135  0.00  0.00    +0.096 C 
ATOM     10  C   UNL     1      35.452 -24.173 -12.776  0.00  0.00    +0.066 C 
ATOM     11  H   UNL     1      32.933 -23.521 -12.499  0.00  0.00    +0.155 HD
ENDROOT
BRANCH   4  13
ATOM     12 CL   UNL     1      28.911 -26.258 -14.739  0.00  0.00    -0.082 Cl
ATOM     13  C   UNL     1      32.055 -23.798 -14.311  0.00  0.00    +0.051 C 
ATOM     14  C   UNL     1      31.126 -24.836 -14.124  0.00  0.00    +0.026 C 
ATOM     15  C   UNL     1      31.866 -22.911 -15.384  0.00  0.00    +0.015 C 
ATOM     16  C   UNL     1      30.039 -24.981 -14.985  0.00  0.00    +0.059 C 
ATOM     17  C   UNL     1      30.778 -23.058 -16.246  0.00  0.00    +0.002 C 
ATOM     18  C   UNL     1      29.865 -24.093 -16.047  0.00  0.00    +0.011 C 
ENDBRANCH   4  13
BRANCH   5  19
ATOM     19  C   UNL     1      36.242 -22.400 -17.624  0.00  0.00    -0.008 C 
ATOM     20  C   UNL     1      34.900 -22.669 -17.901  0.00  0.00    +0.011 C 
ATOM     21  C   UNL     1      36.988 -21.618 -18.509  0.00  0.00    -0.003 C 
ATOM     22  C   UNL     1      34.306 -22.159 -19.056  0.00  0.00    +0.041 C 
ATOM     23  C   UNL     1      36.395 -21.108 -19.665  0.00  0.00    +0.001 C 
ATOM     24  C   UNL     1      35.055 -21.379 -19.938  0.00  0.00    +0.014 C 
BRANCH  22  25
ATOM     25  N   UNL     1      32.951 -22.433 -19.334  0.00  0.00    -0.357 N 
ATOM     26  H   UNL     1      32.259 -21.771 -19.105  0.00  0.00    +0.142 HD
ATOM     27  H   UNL     1      32.697 -23.286 -19.755  0.00  0.00    +0.142 HD
ENDBRANCH  22  25
ENDBRANCH   5  19
TORSDOF 3
ENDMDL
MODEL 6
REMARK VINA RESULT:     -10.0      2.881      5.785
REMARK  Name = 6419789
REMARK  3 active torsions:
REMARK  status: ('A' for Active; 'I' for Inactive)
REMARK    1  A    between atoms: N_4  and  C_13
REMARK    2  A    between atoms: C_5  and  C_19
REMARK    3  A    between atoms: C_22  and  N_25
REMARK                            x       y       z     vdW  Elec       q    Type
REMARK                         _______ _______ _______ _____ _____    ______ ____
ROOT
ATOM      1  N   UNL     1      36.334 -22.060 -18.149  0.00  0.00    -0.164 N 
ATOM      2  N   UNL     1      34.509 -23.148 -17.024  0.00  0.00    -0.374 NA
ATOM      3  N   UNL     1      37.662 -21.819 -17.997  0.00  0.00    -0.174 NA
ATOM      4  N   UNL     1      32.392 -23.125 -17.988  0.00  0.00    -0.288 N 
ATOM      5  C   UNL     1      36.876 -23.017 -16.226  0.00  0.00    +0.134 C 
ATOM      6  C   UNL     1      35.822 -22.791 -17.082  0.00  0.00    +0.194 C 
ATOM      7  C   UNL     1      37.974 -22.400 -16.838  0.00  0.00    +0.104 C 
ATOM      8  C   UNL     1      33.725 -22.780 -18.012  0.00  0.00    +0.186 C 
ATOM      9  C   UNL     1      35.514 -21.666 -19.197  0.00  0.00    +0.096 C 
ATOM     10  C   UNL     1      34.217 -21.987 -19.193  0.00  0.00    +0.066 C 
ATOM     11  H   UNL     1      31.952 -23.255 -18.859  0.00  0.00    +0.155 HD
ENDROOT
BRANCH   4  13
ATOM     12 CL   UNL     1      27.806 -22.636 -15.739  0.00  0.00    -0.082 Cl
ATOM     13  C   UNL     1      31.602 -23.308 -16.857  0.00  0.00    +0.051 C 
ATOM     14  C   UNL     1      30.250 -22.925 -16.856  0.00  0.00    +0.026 C 
ATOM     15  C   UNL     1      32.141 -23.881 -15.694  0.00  0.00    +0.015 C 
ATOM     16  C   UNL     1      29.460 -23.111 -15.722  0.00  0.00    +0.059 C 
ATOM     17  C   UNL     1      31.350 -24.065 -14.559  0.00  0.00    +0.002 C 
ATOM     18  C   UNL     1      30.009 -23.680 -14.573  0.00  0.00    +0.011 C 
ENDBRANCH   4  13
BRANCH   5  19
ATOM     19  C   UNL     1      36.779 -23.741 -14.994  0.00  0.00    -0.008 C 
ATOM     20  C   UNL     1      37.068 -25.106 -14.956  0.00  0.00    +0.011 C 
ATOM     21  C   UNL     1      36.394 -23.082 -13.824  0.00  0.00    -0.003 C 
ATOM     22  C   UNL     1      36.972 -25.811 -13.756  0.00  0.00    +0.041 C 
ATOM     23  C   UNL     1      36.298 -23.785 -12.623  0.00  0.00    +0.001 C 
ATOM     24  C   UNL     1      36.587 -25.149 -12.589  0.00  0.00    +0.014 C 
BRANCH  22  25
ATOM     25  N   UNL     1      37.264 -27.190 -13.721  0.00  0.00    -0.357 N 
ATOM     26  H   UNL     1      38.180 -27.503 -13.896  0.00  0.00    +0.142 HD
ATOM     27  H   UNL     1      36.550 -27.838 -13.523  0.00  0.00    +0.142 HD
ENDBRANCH  22  25
ENDBRANCH   5  19
TORSDOF 3
ENDMDL
MODEL 7
REMARK VINA RESULT:     -10.0      3.080      6.870
REMARK  Name = 6419789
REMARK  3 active torsions:
REMARK  status: ('A' for Active; 'I' for Inactive)
REMARK    1  A    between atoms: N_4  and  C_13
REMARK    2  A    between atoms: C_5  and  C_19
REMARK    3  A    between atoms: C_22  and  N_25
REMARK                            x       y       z     vdW  Elec       q    Type
REMARK                         _______ _______ _______ _____ _____    ______ ____
ROOT
ATOM      1  N   UNL     1      31.760 -23.818 -15.606  0.00  0.00    -0.164 N 
ATOM      2  N   UNL     1      34.063 -24.132 -14.994  0.00  0.00    -0.374 NA
ATOM      3  N   UNL     1      31.005 -23.268 -16.593  0.00  0.00    -0.174 NA
ATOM      4  N   UNL     1      34.582 -25.250 -13.021  0.00  0.00    -0.288 N 
ATOM      5  C   UNL     1      33.218 -22.978 -17.046  0.00  0.00    +0.134 C 
ATOM      6  C   UNL     1      33.119 -23.657 -15.853  0.00  0.00    +0.194 C 
ATOM      7  C   UNL     1      31.895 -22.767 -17.451  0.00  0.00    +0.104 C 
ATOM      8  C   UNL     1      33.655 -24.754 -13.911  0.00  0.00    +0.186 C 
ATOM      9  C   UNL     1      31.319 -24.472 -14.465  0.00  0.00    +0.096 C 
ATOM     10  C   UNL     1      32.200 -24.959 -13.586  0.00  0.00    +0.066 C 
ATOM     11  H   UNL     1      34.321 -26.050 -12.509  0.00  0.00    +0.155 HD
ENDROOT
BRANCH   4  13
ATOM     12 CL   UNL     1      39.650 -25.576 -13.752  0.00  0.00    -0.082 Cl
ATOM     13  C   UNL     1      35.850 -24.735 -12.770  0.00  0.00    +0.051 C 
ATOM     14  C   UNL     1      36.992 -25.340 -13.320  0.00  0.00    +0.026 C 
ATOM     15  C   UNL     1      36.013 -23.599 -11.961  0.00  0.00    +0.015 C 
ATOM     16  C   UNL     1      38.263 -24.822 -13.069  0.00  0.00    +0.059 C 
ATOM     17  C   UNL     1      37.284 -23.082 -11.709  0.00  0.00    +0.002 C 
ATOM     18  C   UNL     1      38.409 -23.693 -12.263  0.00  0.00    +0.011 C 
ENDBRANCH   4  13
BRANCH   5  19
ATOM     19  C   UNL     1      34.454 -22.607 -17.667  0.00  0.00    -0.008 C 
ATOM     20  C   UNL     1      35.628 -22.541 -16.912  0.00  0.00    +0.011 C 
ATOM     21  C   UNL     1      34.491 -22.308 -19.031  0.00  0.00    -0.003 C 
ATOM     22  C   UNL     1      36.832 -22.180 -17.517  0.00  0.00    +0.041 C 
ATOM     23  C   UNL     1      35.694 -21.946 -19.637  0.00  0.00    +0.001 C 
ATOM     24  C   UNL     1      36.864 -21.881 -18.880  0.00  0.00    +0.014 C 
BRANCH  22  25
ATOM     25  N   UNL     1      38.015 -22.114 -16.753  0.00  0.00    -0.357 N 
ATOM     26  H   UNL     1      38.415 -21.240 -16.540  0.00  0.00    +0.142 HD
ATOM     27  H   UNL     1      38.441 -22.942 -16.434  0.00  0.00    +0.142 HD
ENDBRANCH  22  25
ENDBRANCH   5  19
TORSDOF 3
ENDMDL
MODEL 8
REMARK VINA RESULT:      -9.7     11.259     14.436
REMARK  Name = 6419789
REMARK  3 active torsions:
REMARK  status: ('A' for Active; 'I' for Inactive)
REMARK    1  A    between atoms: N_4  and  C_13
REMARK    2  A    between atoms: C_5  and  C_19
REMARK    3  A    between atoms: C_22  and  N_25
REMARK                            x       y       z     vdW  Elec       q    Type
REMARK                         _______ _______ _______ _____ _____    ______ ____
ROOT
ATOM      1  N   UNL     1      32.055 -11.935 -20.049  0.00  0.00    -0.164 N 
ATOM      2  N   UNL     1      32.695 -10.239 -21.628  0.00  0.00    -0.374 NA
ATOM      3  N   UNL     1      31.965 -13.287 -19.945  0.00  0.00    -0.174 NA
ATOM      4  N   UNL     1      32.561  -7.997 -21.019  0.00  0.00    -0.288 N 
ATOM      5  C   UNL     1      32.738 -12.711 -22.008  0.00  0.00    +0.134 C 
ATOM      6  C   UNL     1      32.525 -11.550 -21.300  0.00  0.00    +0.194 C 
ATOM      7  C   UNL     1      32.379 -13.739 -21.128  0.00  0.00    +0.104 C 
ATOM      8  C   UNL     1      32.400  -9.333 -20.723  0.00  0.00    +0.186 C 
ATOM      9  C   UNL     1      31.740 -10.986 -19.087  0.00  0.00    +0.096 C 
ATOM     10  C   UNL     1      31.886  -9.685 -19.352  0.00  0.00    +0.066 C 
ATOM     11  H   UNL     1      32.778  -7.400 -20.266  0.00  0.00    +0.155 HD
ENDROOT
BRANCH   4  13
ATOM     12 CL   UNL     1      34.854  -5.630 -24.951  0.00  0.00    -0.082 Cl
ATOM     13  C   UNL     1      32.448  -7.406 -22.272  0.00  0.00    +0.051 C 
ATOM     14  C   UNL     1      33.576  -6.871 -22.918  0.00  0.00    +0.026 C 
ATOM     15  C   UNL     1      31.204  -7.331 -22.920  0.00  0.00    +0.015 C 
ATOM     16  C   UNL     1      33.461  -6.279 -24.176  0.00  0.00    +0.059 C 
ATOM     17  C   UNL     1      31.090  -6.738 -24.177  0.00  0.00    +0.002 C 
ATOM     18  C   UNL     1      32.218  -6.212 -24.806  0.00  0.00    +0.011 C 
ENDBRANCH   4  13
BRANCH   5  19
ATOM     19  C   UNL     1      33.226 -12.761 -23.354  0.00  0.00    -0.008 C 
ATOM     20  C   UNL     1      33.095 -13.931 -24.105  0.00  0.00    +0.011 C 
ATOM     21  C   UNL     1      33.835 -11.639 -23.920  0.00  0.00    -0.003 C 
ATOM     22  C   UNL     1      33.571 -13.980 -25.416  0.00  0.00    +0.041 C 
ATOM     23  C   UNL     1      34.311 -11.687 -25.231  0.00  0.00    +0.001 C 
ATOM     24  C   UNL     1      34.180 -12.857 -25.978  0.00  0.00    +0.014 C 
BRANCH  22  25
ATOM     25  N   UNL     1      33.438 -15.163 -26.172  0.00  0.00    -0.357 N 
ATOM     26  H   UNL     1      34.222 -15.544 -26.630  0.00  0.00    +0.142 HD
ATOM     27  H   UNL     1      32.563 -15.606 -26.242  0.00  0.00    +0.142 HD
ENDBRANCH  22  25
ENDBRANCH   5  19
TORSDOF 3
ENDMDL
MODEL 9
REMARK VINA RESULT:      -9.7      1.502      4.605
REMARK  Name = 6419789
REMARK  3 active torsions:
REMARK  status: ('A' for Active; 'I' for Inactive)
REMARK    1  A    between atoms: N_4  and  C_13
REMARK    2  A    between atoms: C_5  and  C_19
REMARK    3  A    between atoms: C_22  and  N_25
REMARK                            x       y       z     vdW  Elec       q    Type
REMARK                         _______ _______ _______ _____ _____    ______ ____
ROOT
ATOM      1  N   UNL     1      31.366 -24.547 -15.117  0.00  0.00    -0.164 N 
ATOM      2  N   UNL     1      32.889 -23.140 -16.334  0.00  0.00    -0.374 NA
ATOM      3  N   UNL     1      31.331 -25.348 -14.020  0.00  0.00    -0.174 NA
ATOM      4  N   UNL     1      32.148 -22.028 -18.239  0.00  0.00    -0.288 N 
ATOM      5  C   UNL     1      33.408 -24.446 -14.264  0.00  0.00    +0.134 C 
ATOM      6  C   UNL     1      32.624 -23.980 -15.295  0.00  0.00    +0.194 C 
ATOM      7  C   UNL     1      32.564 -25.277 -13.518  0.00  0.00    +0.104 C 
ATOM      8  C   UNL     1      31.917 -22.875 -17.177  0.00  0.00    +0.186 C 
ATOM      9  C   UNL     1      30.333 -24.274 -16.002  0.00  0.00    +0.096 C 
ATOM     10  C   UNL     1      30.535 -23.458 -17.040  0.00  0.00    +0.066 C 
ATOM     11  H   UNL     1      31.381 -21.503 -18.562  0.00  0.00    +0.155 HD
ENDROOT
BRANCH   4  13
ATOM     12 CL   UNL     1      34.730 -19.762 -22.050  0.00  0.00    -0.082 Cl
ATOM     13  C   UNL     1      33.356 -21.840 -18.902  0.00  0.00    +0.051 C 
ATOM     14  C   UNL     1      33.437 -20.993 -20.020  0.00  0.00    +0.026 C 
ATOM     15  C   UNL     1      34.521 -22.494 -18.467  0.00  0.00    +0.015 C 
ATOM     16  C   UNL     1      34.650 -20.805 -20.683  0.00  0.00    +0.059 C 
ATOM     17  C   UNL     1      35.733 -22.306 -19.132  0.00  0.00    +0.002 C 
ATOM     18  C   UNL     1      35.798 -21.462 -20.239  0.00  0.00    +0.011 C 
ENDBRANCH   4  13
BRANCH   5  19
ATOM     19  C   UNL     1      34.785 -24.101 -14.074  0.00  0.00    -0.008 C 
ATOM     20  C   UNL     1      35.616 -23.894 -15.177  0.00  0.00    +0.011 C 
ATOM     21  C   UNL     1      35.302 -23.970 -12.783  0.00  0.00    -0.003 C 
ATOM     22  C   UNL     1      36.958 -23.559 -14.992  0.00  0.00    +0.041 C 
ATOM     23  C   UNL     1      36.643 -23.634 -12.597  0.00  0.00    +0.001 C 
ATOM     24  C   UNL     1      37.471 -23.429 -13.700  0.00  0.00    +0.014 C 
BRANCH  22  25
ATOM     25  N   UNL     1      37.795 -23.351 -16.107  0.00  0.00    -0.357 N 
ATOM     26  H   UNL     1      38.586 -23.921 -16.240  0.00  0.00    +0.142 HD
ATOM     27  H   UNL     1      37.588 -22.636 -16.751  0.00  0.00    +0.142 HD
ENDBRANCH  22  25
ENDBRANCH   5  19
TORSDOF 3
ENDMDL
