MODEL 1
REMARK VINA RESULT:     -11.1      0.000      0.000
REMARK  Name = 491941
REMARK  5 active torsions:
REMARK  status: ('A' for Active; 'I' for Inactive)
REMARK    1  A    between atoms: C_5  and  C_17
REMARK    2  A    between atoms: C_7  and  S_11
REMARK    3  A    between atoms: S_11  and  N_14
REMARK    4  A    between atoms: C_17  and  C_18
REMARK    5  A    between atoms: C_21  and  C_25
REMARK                            x       y       z     vdW  Elec       q    Type
REMARK                         _______ _______ _______ _____ _____    ______ ____
ROOT
ATOM      1  S   UNL     1      34.579 -24.609 -13.799  0.00  0.00    -0.035 S 
ATOM      2  O   UNL     1      35.962 -22.858 -17.593  0.00  0.00    -0.274 OA
ATOM      3  N   UNL     1      34.229 -23.378 -16.086  0.00  0.00    -0.227 N 
ATOM      4  N   UNL     1      36.211 -22.877 -14.810  0.00  0.00    -0.386 NA
ATOM      5  C   UNL     1      34.765 -23.048 -17.356  0.00  0.00    +0.236 C 
ATOM      6  C   UNL     1      35.108 -23.509 -14.969  0.00  0.00    +0.217 C 
ATOM      7  C   UNL     1      35.998 -24.232 -12.915  0.00  0.00    +0.247 C 
ATOM      8  C   UNL     1      36.740 -23.297 -13.605  0.00  0.00    +0.123 C 
ATOM      9  C   UNL     1      32.785 -23.587 -15.894  0.00  0.00    +0.123 C 
ATOM     10  C   UNL     1      38.027 -22.720 -13.168  0.00  0.00    +0.064 C 
ENDROOT
BRANCH   7  11
ATOM     11  S   UNL     1      36.187 -25.079 -11.392  0.00  0.00    +0.052 S 
ATOM     12  O   UNL     1      34.840 -25.444 -10.961  0.00  0.00    -0.157 OA
ATOM     13  O   UNL     1      37.185 -26.111 -11.647  0.00  0.00    -0.157 OA
BRANCH  11  14
ATOM     14  N   UNL     1      36.826 -23.988 -10.226  0.00  0.00    -0.206 NA
ATOM     15  H   UNL     1      37.616 -24.424  -9.751  0.00  0.00    +0.144 HD
ATOM     16  H   UNL     1      36.103 -23.757  -9.544  0.00  0.00    +0.144 HD
ENDBRANCH  11  14
ENDBRANCH   7  11
BRANCH   5  17
ATOM     17  C   UNL     1      33.762 -22.968 -18.513  0.00  0.00    +0.112 C 
BRANCH  17  18
ATOM     18  C   UNL     1      34.069 -21.904 -19.510  0.00  0.00    -0.013 C 
ATOM     19  C   UNL     1      35.391 -21.649 -19.875  0.00  0.00    -0.004 C 
ATOM     20  C   UNL     1      33.033 -21.162 -20.080  0.00  0.00    -0.004 C 
ATOM     21  C   UNL     1      34.643 -19.911 -21.376  0.00  0.00    +0.018 C 
ATOM     22  C   UNL     1      35.678 -20.653 -20.808  0.00  0.00    +0.001 C 
ATOM     23  C   UNL     1      33.320 -20.165 -21.013  0.00  0.00    +0.001 C 
BRANCH  21  25
ATOM     24  N   UNL     1      35.384 -17.716 -21.818  0.00  0.00    -0.244 NA
ATOM     25  C   UNL     1      34.940 -18.877 -22.345  0.00  0.00    +0.081 C 
ATOM     26  C   UNL     1      34.768 -19.104 -23.699  0.00  0.00    +0.019 C 
ATOM     27  C   UNL     1      35.073 -18.066 -24.573  0.00  0.00    +0.003 C 
ATOM     28  C   UNL     1      35.670 -16.730 -22.698  0.00  0.00    +0.099 C 
ATOM     29  C   UNL     1      35.534 -16.854 -24.071  0.00  0.00    +0.021 C 
ENDBRANCH  21  25
ENDBRANCH  17  18
ENDBRANCH   5  17
TORSDOF 5
ENDMDL
MODEL 2
REMARK VINA RESULT:     -10.1      2.397      3.407
REMARK  Name = 491941
REMARK  5 active torsions:
REMARK  status: ('A' for Active; 'I' for Inactive)
REMARK    1  A    between atoms: C_5  and  C_17
REMARK    2  A    between atoms: C_7  and  S_11
REMARK    3  A    between atoms: S_11  and  N_14
REMARK    4  A    between atoms: C_17  and  C_18
REMARK    5  A    between atoms: C_21  and  C_25
REMARK                            x       y       z     vdW  Elec       q    Type
REMARK                         _______ _______ _______ _____ _____    ______ ____
ROOT
ATOM      1  S   UNL     1      35.002 -23.124 -15.128  0.00  0.00    -0.035 S 
ATOM      2  O   UNL     1      34.265 -21.639 -19.206  0.00  0.00    -0.274 OA
ATOM      3  N   UNL     1      35.709 -22.553 -17.587  0.00  0.00    -0.227 N 
ATOM      4  N   UNL     1      33.499 -23.437 -17.209  0.00  0.00    -0.386 NA
ATOM      5  C   UNL     1      35.404 -21.857 -18.783  0.00  0.00    +0.236 C 
ATOM      6  C   UNL     1      34.644 -23.056 -16.780  0.00  0.00    +0.217 C 
ATOM      7  C   UNL     1      33.424 -23.750 -14.892  0.00  0.00    +0.247 C 
ATOM      8  C   UNL     1      32.777 -23.846 -16.106  0.00  0.00    +0.123 C 
ATOM      9  C   UNL     1      37.101 -22.769 -17.158  0.00  0.00    +0.123 C 
ATOM     10  C   UNL     1      31.401 -24.343 -16.316  0.00  0.00    +0.064 C 
ENDROOT
BRANCH   7  11
ATOM     11  S   UNL     1      32.998 -24.118 -13.232  0.00  0.00    +0.052 S 
ATOM     12  O   UNL     1      32.050 -25.227 -13.292  0.00  0.00    -0.157 OA
ATOM     13  O   UNL     1      34.270 -24.270 -12.534  0.00  0.00    -0.157 OA
BRANCH  11  14
ATOM     14  N   UNL     1      32.173 -22.767 -12.558  0.00  0.00    -0.206 NA
ATOM     15  H   UNL     1      31.169 -22.936 -12.582  0.00  0.00    +0.144 HD
ATOM     16  H   UNL     1      32.392 -21.931 -13.100  0.00  0.00    +0.144 HD
ENDBRANCH  11  14
ENDBRANCH   7  11
BRANCH   5  17
ATOM     17  C   UNL     1      36.601 -21.311 -19.572  0.00  0.00    +0.112 C 
BRANCH  17  18
ATOM     18  C   UNL     1      36.234 -20.331 -20.632  0.00  0.00    -0.013 C 
ATOM     19  C   UNL     1      37.153 -19.361 -21.035  0.00  0.00    -0.004 C 
ATOM     20  C   UNL     1      34.971 -20.383 -21.223  0.00  0.00    -0.004 C 
ATOM     21  C   UNL     1      35.547 -18.496 -22.618  0.00  0.00    +0.018 C 
ATOM     22  C   UNL     1      36.809 -18.444 -22.028  0.00  0.00    +0.001 C 
ATOM     23  C   UNL     1      34.627 -19.465 -22.216  0.00  0.00    +0.001 C 
BRANCH  21  25
ATOM     24  N   UNL     1      34.786 -18.094 -24.813  0.00  0.00    -0.244 NA
ATOM     25  C   UNL     1      35.189 -17.544 -23.648  0.00  0.00    +0.081 C 
ATOM     26  C   UNL     1      35.268 -16.183 -23.414  0.00  0.00    +0.019 C 
ATOM     27  C   UNL     1      34.909 -15.326 -24.449  0.00  0.00    +0.003 C 
ATOM     28  C   UNL     1      34.445 -17.230 -25.796  0.00  0.00    +0.099 C 
ATOM     29  C   UNL     1      34.488 -15.851 -25.666  0.00  0.00    +0.021 C 
ENDBRANCH  21  25
ENDBRANCH  17  18
ENDBRANCH   5  17
TORSDOF 5
ENDMDL
MODEL 3
REMARK VINA RESULT:     -10.0      6.143     11.150
REMARK  Name = 491941
REMARK  5 active torsions:
REMARK  status: ('A' for Active; 'I' for Inactive)
REMARK    1  A    between atoms: C_5  and  C_17
REMARK    2  A    between atoms: C_7  and  S_11
REMARK    3  A    between atoms: S_11  and  N_14
REMARK    4  A    between atoms: C_17  and  C_18
REMARK    5  A    between atoms: C_21  and  C_25
REMARK                            x       y       z     vdW  Elec       q    Type
REMARK                         _______ _______ _______ _____ _____    ______ ____
ROOT
ATOM      1  S   UNL     1      34.605 -16.813 -25.260  0.00  0.00    -0.035 S 
ATOM      2  O   UNL     1      35.244 -17.946 -21.055  0.00  0.00    -0.274 OA
ATOM      3  N   UNL     1      35.699 -18.232 -23.347  0.00  0.00    -0.227 N 
ATOM      4  N   UNL     1      35.297 -15.890 -22.946  0.00  0.00    -0.386 NA
ATOM      5  C   UNL     1      35.652 -18.640 -21.991  0.00  0.00    +0.236 C 
ATOM      6  C   UNL     1      35.247 -16.924 -23.699  0.00  0.00    +0.217 C 
ATOM      7  C   UNL     1      34.331 -15.150 -24.945  0.00  0.00    +0.247 C 
ATOM      8  C   UNL     1      34.761 -14.844 -23.670  0.00  0.00    +0.123 C 
ATOM      9  C   UNL     1      36.204 -19.127 -24.400  0.00  0.00    +0.123 C 
ATOM     10  C   UNL     1      34.696 -13.513 -23.033  0.00  0.00    +0.064 C 
ENDROOT
BRANCH   7  11
ATOM     11  S   UNL     1      33.600 -14.243 -26.254  0.00  0.00    +0.052 S 
ATOM     12  O   UNL     1      33.783 -15.049 -27.458  0.00  0.00    -0.157 OA
ATOM     13  O   UNL     1      32.260 -13.907 -25.787  0.00  0.00    -0.157 OA
BRANCH  11  14
ATOM     14  N   UNL     1      34.476 -12.779 -26.472  0.00  0.00    -0.206 NA
ATOM     15  H   UNL     1      33.907 -11.993 -26.160  0.00  0.00    +0.144 HD
ATOM     16  H   UNL     1      34.705 -12.664 -27.460  0.00  0.00    +0.144 HD
ENDBRANCH  11  14
ENDBRANCH   7  11
BRANCH   5  17
ATOM     17  C   UNL     1      36.115 -20.073 -21.699  0.00  0.00    +0.112 C 
BRANCH  17  18
ATOM     18  C   UNL     1      35.326 -20.762 -20.639  0.00  0.00    -0.013 C 
ATOM     19  C   UNL     1      35.981 -21.486 -19.641  0.00  0.00    -0.004 C 
ATOM     20  C   UNL     1      33.933 -20.683 -20.643  0.00  0.00    -0.004 C 
ATOM     21  C   UNL     1      33.851 -22.052 -18.653  0.00  0.00    +0.018 C 
ATOM     22  C   UNL     1      35.244 -22.130 -18.648  0.00  0.00    +0.001 C 
ATOM     23  C   UNL     1      33.196 -21.329 -19.650  0.00  0.00    +0.001 C 
BRANCH  21  25
ATOM     24  N   UNL     1      31.747 -22.566 -17.720  0.00  0.00    -0.244 NA
ATOM     25  C   UNL     1      33.085 -22.721 -17.624  0.00  0.00    +0.081 C 
ATOM     26  C   UNL     1      33.715 -23.454 -16.634  0.00  0.00    +0.019 C 
ATOM     27  C   UNL     1      32.917 -24.071 -15.676  0.00  0.00    +0.003 C 
ATOM     28  C   UNL     1      31.003 -23.179 -16.772  0.00  0.00    +0.099 C 
ATOM     29  C   UNL     1      31.534 -23.936 -15.740  0.00  0.00    +0.021 C 
ENDBRANCH  21  25
ENDBRANCH  17  18
ENDBRANCH   5  17
TORSDOF 5
ENDMDL
MODEL 4
REMARK VINA RESULT:      -9.8      9.063     13.585
REMARK  Name = 491941
REMARK  5 active torsions:
REMARK  status: ('A' for Active; 'I' for Inactive)
REMARK    1  A    between atoms: C_5  and  C_17
REMARK    2  A    between atoms: C_7  and  S_11
REMARK    3  A    between atoms: S_11  and  N_14
REMARK    4  A    between atoms: C_17  and  C_18
REMARK    5  A    between atoms: C_21  and  C_25
REMARK                            x       y       z     vdW  Elec       q    Type
REMARK                         _______ _______ _______ _____ _____    ______ ____
ROOT
ATOM      1  S   UNL     1      33.193  -8.737 -23.948  0.00  0.00    -0.035 S 
ATOM      2  O   UNL     1      32.647 -12.955 -22.814  0.00  0.00    -0.274 OA
ATOM      3  N   UNL     1      33.884 -11.265 -23.888  0.00  0.00    -0.227 N 
ATOM      4  N   UNL     1      32.857 -10.314 -21.926  0.00  0.00    -0.386 NA
ATOM      5  C   UNL     1      33.486 -12.603 -23.649  0.00  0.00    +0.236 C 
ATOM      6  C   UNL     1      33.292 -10.212 -23.127  0.00  0.00    +0.217 C 
ATOM      7  C   UNL     1      32.464  -8.090 -22.537  0.00  0.00    +0.247 C 
ATOM      8  C   UNL     1      32.370  -9.072 -21.573  0.00  0.00    +0.123 C 
ATOM      9  C   UNL     1      34.895 -10.936 -24.906  0.00  0.00    +0.123 C 
ATOM     10  C   UNL     1      31.800  -8.903 -20.221  0.00  0.00    +0.064 C 
ENDROOT
BRANCH   7  11
ATOM     11  S   UNL     1      32.021  -6.396 -22.625  0.00  0.00    +0.052 S 
ATOM     12  O   UNL     1      32.742  -5.847 -23.770  0.00  0.00    -0.157 OA
ATOM     13  O   UNL     1      30.563  -6.378 -22.592  0.00  0.00    -0.157 OA
BRANCH  11  14
ATOM     14  N   UNL     1      32.601  -5.598 -21.216  0.00  0.00    -0.206 NA
ATOM     15  H   UNL     1      32.330  -4.616 -21.247  0.00  0.00    +0.144 HD
ATOM     16  H   UNL     1      33.618  -5.670 -21.179  0.00  0.00    +0.144 HD
ENDBRANCH  11  14
ENDBRANCH   7  11
BRANCH   5  17
ATOM     17  C   UNL     1      34.136 -13.672 -24.537  0.00  0.00    +0.112 C 
BRANCH  17  18
ATOM     18  C   UNL     1      34.542 -14.905 -23.805  0.00  0.00    -0.013 C 
ATOM     19  C   UNL     1      34.814 -16.078 -24.511  0.00  0.00    -0.004 C 
ATOM     20  C   UNL     1      34.650 -14.887 -22.414  0.00  0.00    -0.004 C 
ATOM     21  C   UNL     1      35.301 -17.214 -22.436  0.00  0.00    +0.018 C 
ATOM     22  C   UNL     1      35.194 -17.232 -23.827  0.00  0.00    +0.001 C 
ATOM     23  C   UNL     1      35.029 -16.042 -21.730  0.00  0.00    +0.001 C 
BRANCH  21  25
ATOM     24  N   UNL     1      36.987 -18.440 -21.334  0.00  0.00    -0.244 NA
ATOM     25  C   UNL     1      35.695 -18.411 -21.725  0.00  0.00    +0.081 C 
ATOM     26  C   UNL     1      34.785 -19.425 -21.485  0.00  0.00    +0.019 C 
ATOM     27  C   UNL     1      35.232 -20.548 -20.795  0.00  0.00    +0.003 C 
ATOM     28  C   UNL     1      37.386 -19.546 -20.667  0.00  0.00    +0.099 C 
ATOM     29  C   UNL     1      36.556 -20.617 -20.375  0.00  0.00    +0.021 C 
ENDBRANCH  21  25
ENDBRANCH  17  18
ENDBRANCH   5  17
TORSDOF 5
ENDMDL
MODEL 5
REMARK VINA RESULT:      -9.6      3.143      5.451
REMARK  Name = 491941
REMARK  5 active torsions:
REMARK  status: ('A' for Active; 'I' for Inactive)
REMARK    1  A    between atoms: C_5  and  C_17
REMARK    2  A    between atoms: C_7  and  S_11
REMARK    3  A    between atoms: S_11  and  N_14
REMARK    4  A    between atoms: C_17  and  C_18
REMARK    5  A    between atoms: C_21  and  C_25
REMARK                            x       y       z     vdW  Elec       q    Type
REMARK                         _______ _______ _______ _____ _____    ______ ____
ROOT
ATOM      1  S   UNL     1      36.527 -21.967 -18.024  0.00  0.00    -0.035 S 
ATOM      2  O   UNL     1      34.135 -19.753 -20.982  0.00  0.00    -0.274 OA
ATOM      3  N   UNL     1      36.121 -20.853 -20.362  0.00  0.00    -0.227 N 
ATOM      4  N   UNL     1      34.275 -21.975 -19.294  0.00  0.00    -0.386 NA
ATOM      5  C   UNL     1      35.342 -19.957 -21.136  0.00  0.00    +0.236 C 
ATOM      6  C   UNL     1      35.498 -21.595 -19.314  0.00  0.00    +0.217 C 
ATOM      7  C   UNL     1      35.195 -22.756 -17.290  0.00  0.00    +0.247 C 
ATOM      8  C   UNL     1      34.089 -22.658 -18.109  0.00  0.00    +0.123 C 
ATOM      9  C   UNL     1      37.560 -21.036 -20.616  0.00  0.00    +0.123 C 
ATOM     10  C   UNL     1      32.751 -23.214 -17.824  0.00  0.00    +0.064 C 
ENDROOT
BRANCH   7  11
ATOM     11  S   UNL     1      35.516 -23.487 -15.729  0.00  0.00    +0.052 S 
ATOM     12  O   UNL     1      35.533 -24.929 -15.952  0.00  0.00    -0.157 OA
ATOM     13  O   UNL     1      36.701 -22.804 -15.222  0.00  0.00    -0.157 OA
BRANCH  11  14
ATOM     14  N   UNL     1      34.203 -23.140 -14.673  0.00  0.00    -0.206 NA
ATOM     15  H   UNL     1      33.343 -23.525 -15.063  0.00  0.00    +0.144 HD
ATOM     16  H   UNL     1      34.108 -22.129 -14.570  0.00  0.00    +0.144 HD
ENDBRANCH  11  14
ENDBRANCH   7  11
BRANCH   5  17
ATOM     17  C   UNL     1      36.093 -19.166 -22.214  0.00  0.00    +0.112 C 
BRANCH  17  18
ATOM     18  C   UNL     1      35.575 -17.785 -22.425  0.00  0.00    -0.013 C 
ATOM     19  C   UNL     1      35.338 -17.318 -23.719  0.00  0.00    -0.004 C 
ATOM     20  C   UNL     1      35.326 -16.958 -21.330  0.00  0.00    -0.004 C 
ATOM     21  C   UNL     1      34.605 -15.199 -22.821  0.00  0.00    +0.018 C 
ATOM     22  C   UNL     1      34.853 -16.026 -23.917  0.00  0.00    +0.001 C 
ATOM     23  C   UNL     1      34.841 -15.664 -21.528  0.00  0.00    +0.001 C 
BRANCH  21  25
ATOM     24  N   UNL     1      34.634 -13.206 -24.082  0.00  0.00    -0.244 NA
ATOM     25  C   UNL     1      34.102 -13.858 -23.026  0.00  0.00    +0.081 C 
ATOM     26  C   UNL     1      33.146 -13.322 -22.180  0.00  0.00    +0.019 C 
ATOM     27  C   UNL     1      32.707 -12.028 -22.436  0.00  0.00    +0.003 C 
ATOM     28  C   UNL     1      34.183 -11.950 -24.299  0.00  0.00    +0.099 C 
ATOM     29  C   UNL     1      33.230 -11.322 -23.514  0.00  0.00    +0.021 C 
ENDBRANCH  21  25
ENDBRANCH  17  18
ENDBRANCH   5  17
TORSDOF 5
ENDMDL
MODEL 6
REMARK VINA RESULT:      -9.6      3.386      5.672
REMARK  Name = 491941
REMARK  5 active torsions:
REMARK  status: ('A' for Active; 'I' for Inactive)
REMARK    1  A    between atoms: C_5  and  C_17
REMARK    2  A    between atoms: C_7  and  S_11
REMARK    3  A    between atoms: S_11  and  N_14
REMARK    4  A    between atoms: C_17  and  C_18
REMARK    5  A    between atoms: C_21  and  C_25
REMARK                            x       y       z     vdW  Elec       q    Type
REMARK                         _______ _______ _______ _____ _____    ______ ____
ROOT
ATOM      1  S   UNL     1      35.205 -21.991 -19.172  0.00  0.00    -0.035 S 
ATOM      2  O   UNL     1      37.882 -19.527 -21.649  0.00  0.00    -0.274 OA
ATOM      3  N   UNL     1      35.717 -20.196 -21.012  0.00  0.00    -0.227 N 
ATOM      4  N   UNL     1      37.131 -20.269 -19.062  0.00  0.00    -0.386 NA
ATOM      5  C   UNL     1      36.675 -19.627 -21.887  0.00  0.00    +0.236 C 
ATOM      6  C   UNL     1      36.141 -20.705 -19.747  0.00  0.00    +0.217 C 
ATOM      7  C   UNL     1      36.229 -22.018 -17.797  0.00  0.00    +0.247 C 
ATOM      8  C   UNL     1      37.189 -21.035 -17.915  0.00  0.00    +0.123 C 
ATOM      9  C   UNL     1      34.294 -20.274 -21.379  0.00  0.00    +0.123 C 
ATOM     10  C   UNL     1      38.252 -20.743 -16.932  0.00  0.00    +0.064 C 
ENDROOT
BRANCH   7  11
ATOM     11  S   UNL     1      35.846 -23.234 -16.594  0.00  0.00    +0.052 S 
ATOM     12  O   UNL     1      34.731 -24.005 -17.136  0.00  0.00    -0.157 OA
ATOM     13  O   UNL     1      37.115 -23.885 -16.289  0.00  0.00    -0.157 OA
BRANCH  11  14
ATOM     14  N   UNL     1      35.289 -22.448 -15.169  0.00  0.00    -0.206 NA
ATOM     15  H   UNL     1      36.083 -22.226 -14.570  0.00  0.00    +0.144 HD
ATOM     16  H   UNL     1      34.647 -23.065 -14.669  0.00  0.00    +0.144 HD
ENDBRANCH  11  14
ENDBRANCH   7  11
BRANCH   5  17
ATOM     17  C   UNL     1      36.149 -19.142 -23.244  0.00  0.00    +0.112 C 
BRANCH  17  18
ATOM     18  C   UNL     1      35.597 -17.758 -23.222  0.00  0.00    -0.013 C 
ATOM     19  C   UNL     1      35.484 -17.070 -22.012  0.00  0.00    -0.004 C 
ATOM     20  C   UNL     1      35.195 -17.148 -24.410  0.00  0.00    -0.004 C 
ATOM     21  C   UNL     1      34.565 -15.166 -23.180  0.00  0.00    +0.018 C 
ATOM     22  C   UNL     1      34.968 -15.775 -21.991  0.00  0.00    +0.001 C 
ATOM     23  C   UNL     1      34.678 -15.852 -24.389  0.00  0.00    +0.001 C 
BRANCH  21  25
ATOM     24  N   UNL     1      34.522 -13.000 -24.111  0.00  0.00    -0.244 NA
ATOM     25  C   UNL     1      34.030 -13.822 -23.159  0.00  0.00    +0.081 C 
ATOM     26  C   UNL     1      33.085 -13.449 -22.219  0.00  0.00    +0.019 C 
ATOM     27  C   UNL     1      32.614 -12.141 -22.258  0.00  0.00    +0.003 C 
ATOM     28  C   UNL     1      34.041 -11.736 -24.117  0.00  0.00    +0.099 C 
ATOM     29  C   UNL     1      33.095 -11.262 -23.222  0.00  0.00    +0.021 C 
ENDBRANCH  21  25
ENDBRANCH  17  18
ENDBRANCH   5  17
TORSDOF 5
ENDMDL
MODEL 7
REMARK VINA RESULT:      -9.6      2.938      4.396
REMARK  Name = 491941
REMARK  5 active torsions:
REMARK  status: ('A' for Active; 'I' for Inactive)
REMARK    1  A    between atoms: C_5  and  C_17
REMARK    2  A    between atoms: C_7  and  S_11
REMARK    3  A    between atoms: S_11  and  N_14
REMARK    4  A    between atoms: C_17  and  C_18
REMARK    5  A    between atoms: C_21  and  C_25
REMARK                            x       y       z     vdW  Elec       q    Type
REMARK                         _______ _______ _______ _____ _____    ______ ____
ROOT
ATOM      1  S   UNL     1      35.065 -22.805 -16.636  0.00  0.00    -0.035 S 
ATOM      2  O   UNL     1      33.878 -20.645 -20.283  0.00  0.00    -0.274 OA
ATOM      3  N   UNL     1      35.432 -21.943 -19.084  0.00  0.00    -0.227 N 
ATOM      4  N   UNL     1      33.217 -22.635 -18.437  0.00  0.00    -0.386 NA
ATOM      5  C   UNL     1      35.032 -21.045 -20.104  0.00  0.00    +0.236 C 
ATOM      6  C   UNL     1      34.456 -22.448 -18.173  0.00  0.00    +0.217 C 
ATOM      7  C   UNL     1      33.478 -23.289 -16.205  0.00  0.00    +0.247 C 
ATOM      8  C   UNL     1      32.636 -23.129 -17.286  0.00  0.00    +0.123 C 
ATOM      9  C   UNL     1      36.835 -22.369 -18.944  0.00  0.00    +0.123 C 
ATOM     10  C   UNL     1      31.191 -23.439 -17.310  0.00  0.00    +0.064 C 
ENDROOT
BRANCH   7  11
ATOM     11  S   UNL     1      33.282 -23.858 -14.560  0.00  0.00    +0.052 S 
ATOM     12  O   UNL     1      34.622 -23.893 -13.980  0.00  0.00    -0.157 OA
ATOM     13  O   UNL     1      32.248 -23.009 -13.979  0.00  0.00    -0.157 OA
BRANCH  11  14
ATOM     14  N   UNL     1      32.692 -25.474 -14.598  0.00  0.00    -0.206 NA
ATOM     15  H   UNL     1      32.384 -25.700 -15.543  0.00  0.00    +0.144 HD
ATOM     16  H   UNL     1      31.907 -25.564 -13.952  0.00  0.00    +0.144 HD
ENDBRANCH  11  14
ENDBRANCH   7  11
BRANCH   5  17
ATOM     17  C   UNL     1      36.146 -20.515 -21.015  0.00  0.00    +0.112 C 
BRANCH  17  18
ATOM     18  C   UNL     1      35.737 -19.364 -21.869  0.00  0.00    -0.013 C 
ATOM     19  C   UNL     1      35.294 -19.585 -23.174  0.00  0.00    -0.004 C 
ATOM     20  C   UNL     1      35.796 -18.065 -21.364  0.00  0.00    -0.004 C 
ATOM     21  C   UNL     1      34.971 -17.210 -23.468  0.00  0.00    +0.018 C 
ATOM     22  C   UNL     1      34.911 -18.509 -23.973  0.00  0.00    +0.001 C 
ATOM     23  C   UNL     1      35.413 -16.987 -22.164  0.00  0.00    +0.001 C 
BRANCH  21  25
ATOM     24  N   UNL     1      34.615 -14.889 -23.685  0.00  0.00    -0.244 NA
ATOM     25  C   UNL     1      34.573 -16.092 -24.296  0.00  0.00    +0.081 C 
ATOM     26  C   UNL     1      34.188 -16.286 -25.611  0.00  0.00    +0.019 C 
ATOM     27  C   UNL     1      33.819 -15.166 -26.350  0.00  0.00    +0.003 C 
ATOM     28  C   UNL     1      34.249 -13.824 -24.434  0.00  0.00    +0.099 C 
ATOM     29  C   UNL     1      33.847 -13.908 -25.757  0.00  0.00    +0.021 C 
ENDBRANCH  21  25
ENDBRANCH  17  18
ENDBRANCH   5  17
TORSDOF 5
ENDMDL
MODEL 8
REMARK VINA RESULT:      -9.1      8.305     12.246
REMARK  Name = 491941
REMARK  5 active torsions:
REMARK  status: ('A' for Active; 'I' for Inactive)
REMARK    1  A    between atoms: C_5  and  C_17
REMARK    2  A    between atoms: C_7  and  S_11
REMARK    3  A    between atoms: S_11  and  N_14
REMARK    4  A    between atoms: C_17  and  C_18
REMARK    5  A    between atoms: C_21  and  C_25
REMARK                            x       y       z     vdW  Elec       q    Type
REMARK                         _______ _______ _______ _____ _____    ______ ____
ROOT
ATOM      1  S   UNL     1      34.954 -16.270 -21.509  0.00  0.00    -0.035 S 
ATOM      2  O   UNL     1      32.254 -13.449 -23.541  0.00  0.00    -0.274 OA
ATOM      3  N   UNL     1      33.791 -13.942 -21.828  0.00  0.00    -0.227 N 
ATOM      4  N   UNL     1      34.434 -15.178 -23.795  0.00  0.00    -0.386 NA
ATOM      5  C   UNL     1      32.741 -13.208 -22.433  0.00  0.00    +0.236 C 
ATOM      6  C   UNL     1      34.357 -15.055 -22.522  0.00  0.00    +0.217 C 
ATOM      7  C   UNL     1      35.398 -17.125 -22.927  0.00  0.00    +0.247 C 
ATOM      8  C   UNL     1      35.045 -16.392 -24.040  0.00  0.00    +0.123 C 
ATOM      9  C   UNL     1      34.313 -13.583 -20.499  0.00  0.00    +0.123 C 
ATOM     10  C   UNL     1      35.264 -16.793 -25.445  0.00  0.00    +0.064 C 
ENDROOT
BRANCH   7  11
ATOM     11  S   UNL     1      36.173 -18.675 -22.662  0.00  0.00    +0.052 S 
ATOM     12  O   UNL     1      35.911 -19.028 -21.270  0.00  0.00    -0.157 OA
ATOM     13  O   UNL     1      35.699 -19.531 -23.743  0.00  0.00    -0.157 OA
BRANCH  11  14
ATOM     14  N   UNL     1      37.874 -18.482 -22.836  0.00  0.00    -0.206 NA
ATOM     15  H   UNL     1      38.121 -17.503 -22.692  0.00  0.00    +0.144 HD
ATOM     16  H   UNL     1      38.154 -18.769 -23.774  0.00  0.00    +0.144 HD
ENDBRANCH  11  14
ENDBRANCH   7  11
BRANCH   5  17
ATOM     17  C   UNL     1      32.159 -12.055 -21.605  0.00  0.00    +0.112 C 
BRANCH  17  18
ATOM     18  C   UNL     1      32.364 -10.709 -22.211  0.00  0.00    -0.013 C 
ATOM     19  C   UNL     1      31.821  -9.578 -21.600  0.00  0.00    -0.004 C 
ATOM     20  C   UNL     1      33.101 -10.579 -23.388  0.00  0.00    -0.004 C 
ATOM     21  C   UNL     1      32.749  -8.189 -23.344  0.00  0.00    +0.018 C 
ATOM     22  C   UNL     1      32.014  -8.318 -22.166  0.00  0.00    +0.001 C 
ATOM     23  C   UNL     1      33.293  -9.318 -23.955  0.00  0.00    +0.001 C 
BRANCH  21  25
ATOM     24  N   UNL     1      31.907  -6.034 -23.801  0.00  0.00    -0.244 NA
ATOM     25  C   UNL     1      32.950  -6.882 -23.932  0.00  0.00    +0.081 C 
ATOM     26  C   UNL     1      34.136  -6.565 -24.570  0.00  0.00    +0.019 C 
ATOM     27  C   UNL     1      34.261  -5.291 -25.112  0.00  0.00    +0.003 C 
ATOM     28  C   UNL     1      32.064  -4.804 -24.341  0.00  0.00    +0.099 C 
ATOM     29  C   UNL     1      33.209  -4.387 -24.999  0.00  0.00    +0.021 C 
ENDBRANCH  21  25
ENDBRANCH  17  18
ENDBRANCH   5  17
TORSDOF 5
ENDMDL
MODEL 9
REMARK VINA RESULT:      -9.0     12.291     17.209
REMARK  Name = 491941
REMARK  5 active torsions:
REMARK  status: ('A' for Active; 'I' for Inactive)
REMARK    1  A    between atoms: C_5  and  C_17
REMARK    2  A    between atoms: C_7  and  S_11
REMARK    3  A    between atoms: S_11  and  N_14
REMARK    4  A    between atoms: C_17  and  C_18
REMARK    5  A    between atoms: C_21  and  C_25
REMARK                            x       y       z     vdW  Elec       q    Type
REMARK                         _______ _______ _______ _____ _____    ______ ____
ROOT
ATOM      1  S   UNL     1      31.932  -4.784 -24.541  0.00  0.00    -0.035 S 
ATOM      2  O   UNL     1      34.452  -8.217 -23.431  0.00  0.00    -0.274 OA
ATOM      3  N   UNL     1      32.339  -7.293 -23.904  0.00  0.00    -0.227 N 
ATOM      4  N   UNL     1      33.971  -6.186 -25.289  0.00  0.00    -0.386 NA
ATOM      5  C   UNL     1      33.221  -8.253 -23.347  0.00  0.00    +0.236 C 
ATOM      6  C   UNL     1      32.877  -6.184 -24.623  0.00  0.00    +0.217 C 
ATOM      7  C   UNL     1      33.111  -4.024 -25.527  0.00  0.00    +0.247 C 
ATOM      8  C   UNL     1      34.115  -4.922 -25.823  0.00  0.00    +0.123 C 
ATOM      9  C   UNL     1      30.879  -7.416 -23.756  0.00  0.00    +0.123 C 
ATOM     10  C   UNL     1      35.308  -4.643 -26.649  0.00  0.00    +0.064 C 
ENDROOT
BRANCH   7  11
ATOM     11  S   UNL     1      32.794  -2.347 -25.928  0.00  0.00    +0.052 S 
ATOM     12  O   UNL     1      32.033  -1.799 -24.809  0.00  0.00    -0.157 OA
ATOM     13  O   UNL     1      34.092  -1.786 -26.284  0.00  0.00    -0.157 OA
BRANCH  11  14
ATOM     14  N   UNL     1      31.784  -2.291 -27.319  0.00  0.00    -0.206 NA
ATOM     15  H   UNL     1      31.208  -3.132 -27.355  0.00  0.00    +0.144 HD
ATOM     16  H   UNL     1      32.363  -2.238 -28.157  0.00  0.00    +0.144 HD
ENDBRANCH  11  14
ENDBRANCH   7  11
BRANCH   5  17
ATOM     17  C   UNL     1      32.567  -9.391 -22.553  0.00  0.00    +0.112 C 
BRANCH  17  18
ATOM     18  C   UNL     1      32.975 -10.754 -22.998  0.00  0.00    -0.013 C 
ATOM     19  C   UNL     1      32.604 -11.873 -22.251  0.00  0.00    -0.004 C 
ATOM     20  C   UNL     1      33.726 -10.912 -24.163  0.00  0.00    -0.004 C 
ATOM     21  C   UNL     1      33.737 -13.305 -23.831  0.00  0.00    +0.018 C 
ATOM     22  C   UNL     1      32.984 -13.148 -22.667  0.00  0.00    +0.001 C 
ATOM     23  C   UNL     1      34.108 -12.188 -24.579  0.00  0.00    +0.001 C 
BRANCH  21  25
ATOM     24  N   UNL     1      33.706 -14.973 -25.497  0.00  0.00    -0.244 NA
ATOM     25  C   UNL     1      34.132 -14.628 -24.264  0.00  0.00    +0.081 C 
ATOM     26  C   UNL     1      34.891 -15.445 -23.444  0.00  0.00    +0.019 C 
ATOM     27  C   UNL     1      35.236 -16.704 -23.924  0.00  0.00    +0.003 C 
ATOM     28  C   UNL     1      34.060 -16.205 -25.931  0.00  0.00    +0.099 C 
ATOM     29  C   UNL     1      34.816 -17.099 -25.190  0.00  0.00    +0.021 C 
ENDBRANCH  21  25
ENDBRANCH  17  18
ENDBRANCH   5  17
TORSDOF 5
ENDMDL
