MODEL 1
REMARK VINA RESULT:     -11.5      0.000      0.000
REMARK  Name = 5312137
REMARK  3 active torsions:
REMARK  status: ('A' for Active; 'I' for Inactive)
REMARK    1  A    between atoms: C_3  and  C_20
REMARK    2  A    between atoms: C_7  and  S_23
REMARK    3  A    between atoms: S_23  and  N_26
REMARK                            x       y       z     vdW  Elec       q    Type
REMARK                         _______ _______ _______ _____ _____    ______ ____
ROOT
ATOM      1  O   UNL     1      33.086 -20.962 -20.930  0.00  0.00    -0.270 OA
ATOM      2  N   UNL     1      33.082 -22.320 -18.997  0.00  0.00    -0.280 N 
ATOM      3  C   UNL     1      35.955 -20.564 -20.241  0.00  0.00    +0.019 C 
ATOM      4  C   UNL     1      35.063 -21.320 -19.556  0.00  0.00    +0.056 C 
ATOM      5  C   UNL     1      35.276 -22.105 -18.345  0.00  0.00    +0.019 C 
ATOM      6  C   UNL     1      34.043 -22.691 -18.049  0.00  0.00    +0.051 C 
ATOM      7  C   UNL     1      36.212 -23.163 -16.426  0.00  0.00    +0.122 C 
ATOM      8  C   UNL     1      36.376 -22.331 -17.539  0.00  0.00    +0.021 C 
ATOM      9  C   UNL     1      33.627 -21.472 -19.966  0.00  0.00    +0.250 C 
ATOM     10  C   UNL     1      33.858 -23.514 -16.957  0.00  0.00    +0.016 C 
ATOM     11  C   UNL     1      34.965 -23.749 -16.138  0.00  0.00    +0.021 C 
ATOM     12  H   UNL     1      32.144 -22.618 -18.984  0.00  0.00    +0.155 HD
ENDROOT
BRANCH   3  20
ATOM     13  N   UNL     1      35.758 -18.463 -21.341  0.00  0.00    -0.316 N 
ATOM     14  C   UNL     1      35.459 -17.940 -22.568  0.00  0.00    +0.021 C 
ATOM     15  C   UNL     1      35.180 -18.982 -23.429  0.00  0.00    -0.012 C 
ATOM     16  C   UNL     1      35.411 -16.491 -22.895  0.00  0.00    +0.041 C 
ATOM     17  C   UNL     1      34.828 -18.765 -24.859  0.00  0.00    +0.027 C 
ATOM     18  C   UNL     1      35.383 -16.306 -24.424  0.00  0.00    +0.006 C 
ATOM     19  C   UNL     1      34.428 -17.298 -25.116  0.00  0.00    +0.005 C 
ATOM     20  C   UNL     1      35.679 -19.831 -21.406  0.00  0.00    +0.048 C 
ATOM     21  C   UNL     1      35.324 -20.182 -22.691  0.00  0.00    +0.011 C 
ATOM     22  H   UNL     1      35.992 -17.940 -20.539  0.00  0.00    +0.152 HD
ENDBRANCH   3  20
BRANCH   7  23
ATOM     23  S   UNL     1      37.574 -23.479 -15.378  0.00  0.00    +0.063 S 
ATOM     24  O   UNL     1      38.786 -23.457 -16.190  0.00  0.00    -0.153 OA
ATOM     25  O   UNL     1      37.486 -22.580 -14.234  0.00  0.00    -0.153 OA
BRANCH  23  26
ATOM     26  N   UNL     1      37.295 -25.100 -14.839  0.00  0.00    -0.153 NA
ATOM     27  C   UNL     1      38.329 -26.117 -15.158  0.00  0.00    +0.115 C 
ATOM     28  C   UNL     1      36.736 -25.283 -13.475  0.00  0.00    +0.115 C 
ENDBRANCH  23  26
ENDBRANCH   7  23
TORSDOF 3
ENDMDL
MODEL 2
REMARK VINA RESULT:     -10.5      2.628      8.784
REMARK  Name = 5312137
REMARK  3 active torsions:
REMARK  status: ('A' for Active; 'I' for Inactive)
REMARK    1  A    between atoms: C_3  and  C_20
REMARK    2  A    between atoms: C_7  and  S_23
REMARK    3  A    between atoms: S_23  and  N_26
REMARK                            x       y       z     vdW  Elec       q    Type
REMARK                         _______ _______ _______ _____ _____    ______ ____
ROOT
ATOM      1  O   UNL     1      34.627 -23.824 -16.785  0.00  0.00    -0.270 OA
ATOM      2  N   UNL     1      33.677 -22.745 -18.660  0.00  0.00    -0.280 N 
ATOM      3  C   UNL     1      36.972 -22.095 -17.395  0.00  0.00    +0.019 C 
ATOM      4  C   UNL     1      35.802 -22.130 -18.078  0.00  0.00    +0.056 C 
ATOM      5  C   UNL     1      35.409 -21.352 -19.248  0.00  0.00    +0.019 C 
ATOM      6  C   UNL     1      34.111 -21.765 -19.560  0.00  0.00    +0.051 C 
ATOM      7  C   UNL     1      35.345 -19.842 -21.090  0.00  0.00    +0.122 C 
ATOM      8  C   UNL     1      36.044 -20.388 -20.007  0.00  0.00    +0.021 C 
ATOM      9  C   UNL     1      34.661 -23.032 -17.709  0.00  0.00    +0.250 C 
ATOM     10  C   UNL     1      33.403 -21.241 -20.623  0.00  0.00    +0.016 C 
ATOM     11  C   UNL     1      34.038 -20.265 -21.395  0.00  0.00    +0.021 C 
ATOM     12  H   UNL     1      32.792 -23.177 -18.692  0.00  0.00    +0.155 HD
ENDROOT
BRANCH   3  20
ATOM     13  N   UNL     1      36.554 -22.680 -15.126  0.00  0.00    -0.316 N 
ATOM     14  C   UNL     1      37.008 -23.530 -14.157  0.00  0.00    +0.021 C 
ATOM     15  C   UNL     1      38.044 -24.277 -14.681  0.00  0.00    -0.012 C 
ATOM     16  C   UNL     1      36.487 -23.602 -12.767  0.00  0.00    +0.041 C 
ATOM     17  C   UNL     1      38.759 -25.317 -13.893  0.00  0.00    +0.027 C 
ATOM     18  C   UNL     1      36.996 -24.889 -12.089  0.00  0.00    +0.006 C 
ATOM     19  C   UNL     1      38.485 -25.156 -12.385  0.00  0.00    +0.005 C 
ATOM     20  C   UNL     1      37.285 -22.876 -16.271  0.00  0.00    +0.048 C 
ATOM     21  C   UNL     1      38.216 -23.863 -16.025  0.00  0.00    +0.011 C 
ATOM     22  H   UNL     1      35.821 -22.031 -15.019  0.00  0.00    +0.152 HD
ENDBRANCH   3  20
BRANCH   7  23
ATOM     23  S   UNL     1      36.107 -18.619 -22.079  0.00  0.00    +0.063 S 
ATOM     24  O   UNL     1      35.914 -17.326 -21.430  0.00  0.00    -0.153 OA
ATOM     25  O   UNL     1      37.467 -19.055 -22.373  0.00  0.00    -0.153 OA
BRANCH  23  26
ATOM     26  N   UNL     1      35.180 -18.652 -23.539  0.00  0.00    -0.153 NA
ATOM     27  C   UNL     1      35.084 -17.393 -24.321  0.00  0.00    +0.115 C 
ATOM     28  C   UNL     1      35.323 -19.842 -24.417  0.00  0.00    +0.115 C 
ENDBRANCH  23  26
ENDBRANCH   7  23
TORSDOF 3
ENDMDL
MODEL 3
REMARK VINA RESULT:     -10.0      1.631      2.450
REMARK  Name = 5312137
REMARK  3 active torsions:
REMARK  status: ('A' for Active; 'I' for Inactive)
REMARK    1  A    between atoms: C_3  and  C_20
REMARK    2  A    between atoms: C_7  and  S_23
REMARK    3  A    between atoms: S_23  and  N_26
REMARK                            x       y       z     vdW  Elec       q    Type
REMARK                         _______ _______ _______ _____ _____    ______ ____
ROOT
ATOM      1  O   UNL     1      33.096 -21.911 -19.085  0.00  0.00    -0.270 OA
ATOM      2  N   UNL     1      32.859 -23.196 -17.117  0.00  0.00    -0.280 N 
ATOM      3  C   UNL     1      35.985 -21.952 -18.368  0.00  0.00    +0.019 C 
ATOM      4  C   UNL     1      34.978 -22.537 -17.675  0.00  0.00    +0.056 C 
ATOM      5  C   UNL     1      35.054 -23.311 -16.441  0.00  0.00    +0.019 C 
ATOM      6  C   UNL     1      33.740 -23.687 -16.146  0.00  0.00    +0.051 C 
ATOM      7  C   UNL     1      35.792 -24.450 -14.482  0.00  0.00    +0.122 C 
ATOM      8  C   UNL     1      36.096 -23.686 -15.615  0.00  0.00    +0.021 C 
ATOM      9  C   UNL     1      33.540 -22.472 -18.100  0.00  0.00    +0.250 C 
ATOM     10  C   UNL     1      33.418 -24.440 -15.035  0.00  0.00    +0.016 C 
ATOM     11  C   UNL     1      34.465 -24.822 -14.195  0.00  0.00    +0.021 C 
ATOM     12  H   UNL     1      31.885 -23.342 -17.108  0.00  0.00    +0.155 HD
ENDROOT
BRANCH   3  20
ATOM     13  N   UNL     1      36.834 -20.334 -19.893  0.00  0.00    -0.316 N 
ATOM     14  C   UNL     1      36.507 -19.726 -21.073  0.00  0.00    +0.021 C 
ATOM     15  C   UNL     1      35.289 -20.219 -21.496  0.00  0.00    -0.012 C 
ATOM     16  C   UNL     1      37.319 -18.685 -21.755  0.00  0.00    +0.041 C 
ATOM     17  C   UNL     1      34.643 -19.779 -22.762  0.00  0.00    +0.027 C 
ATOM     18  C   UNL     1      36.815 -18.498 -23.200  0.00  0.00    +0.006 C 
ATOM     19  C   UNL     1      35.276 -18.472 -23.282  0.00  0.00    +0.005 C 
ATOM     20  C   UNL     1      35.839 -21.218 -19.555  0.00  0.00    +0.048 C 
ATOM     21  C   UNL     1      34.868 -21.169 -20.533  0.00  0.00    +0.011 C 
ATOM     22  H   UNL     1      37.651 -20.164 -19.371  0.00  0.00    +0.152 HD
ENDBRANCH   3  20
BRANCH   7  23
ATOM     23  S   UNL     1      37.078 -24.947 -13.407  0.00  0.00    +0.063 S 
ATOM     24  O   UNL     1      37.953 -23.801 -13.187  0.00  0.00    -0.153 OA
ATOM     25  O   UNL     1      36.476 -25.597 -12.250  0.00  0.00    -0.153 OA
BRANCH  23  26
ATOM     26  N   UNL     1      37.935 -26.133 -14.332  0.00  0.00    -0.153 NA
ATOM     27  C   UNL     1      37.145 -26.981 -15.261  0.00  0.00    +0.115 C 
ATOM     28  C   UNL     1      39.241 -25.736 -14.916  0.00  0.00    +0.115 C 
ENDBRANCH  23  26
ENDBRANCH   7  23
TORSDOF 3
ENDMDL
MODEL 4
REMARK VINA RESULT:      -9.7      8.458     13.004
REMARK  Name = 5312137
REMARK  3 active torsions:
REMARK  status: ('A' for Active; 'I' for Inactive)
REMARK    1  A    between atoms: C_3  and  C_20
REMARK    2  A    between atoms: C_7  and  S_23
REMARK    3  A    between atoms: S_23  and  N_26
REMARK                            x       y       z     vdW  Elec       q    Type
REMARK                         _______ _______ _______ _____ _____    ______ ____
ROOT
ATOM      1  O   UNL     1      32.427 -14.123 -21.555  0.00  0.00    -0.270 OA
ATOM      2  N   UNL     1      31.811 -12.121 -20.462  0.00  0.00    -0.280 N 
ATOM      3  C   UNL     1      33.601 -12.274 -23.570  0.00  0.00    +0.019 C 
ATOM      4  C   UNL     1      32.950 -11.916 -22.436  0.00  0.00    +0.056 C 
ATOM      5  C   UNL     1      32.670 -10.576 -21.933  0.00  0.00    +0.019 C 
ATOM      6  C   UNL     1      31.976 -10.758 -20.733  0.00  0.00    +0.051 C 
ATOM      7  C   UNL     1      32.514  -8.217 -21.637  0.00  0.00    +0.122 C 
ATOM      8  C   UNL     1      32.947  -9.306 -22.402  0.00  0.00    +0.021 C 
ATOM      9  C   UNL     1      32.383 -12.910 -21.465  0.00  0.00    +0.250 C 
ATOM     10  C   UNL     1      31.540  -9.699 -19.963  0.00  0.00    +0.016 C 
ATOM     11  C   UNL     1      31.817  -8.412 -20.429  0.00  0.00    +0.021 C 
ATOM     12  H   UNL     1      31.352 -12.479 -19.668  0.00  0.00    +0.155 HD
ENDROOT
BRANCH   3  20
ATOM     13  N   UNL     1      34.668 -14.375 -23.236  0.00  0.00    -0.316 N 
ATOM     14  C   UNL     1      34.765 -15.610 -23.813  0.00  0.00    +0.021 C 
ATOM     15  C   UNL     1      33.993 -15.619 -24.957  0.00  0.00    -0.012 C 
ATOM     16  C   UNL     1      35.594 -16.732 -23.302  0.00  0.00    +0.041 C 
ATOM     17  C   UNL     1      33.860 -16.823 -25.823  0.00  0.00    +0.027 C 
ATOM     18  C   UNL     1      35.184 -18.042 -24.004  0.00  0.00    +0.006 C 
ATOM     19  C   UNL     1      34.969 -17.850 -25.518  0.00  0.00    +0.005 C 
ATOM     20  C   UNL     1      33.836 -13.590 -23.995  0.00  0.00    +0.048 C 
ATOM     21  C   UNL     1      33.401 -14.338 -25.070  0.00  0.00    +0.011 C 
ATOM     22  H   UNL     1      35.123 -14.094 -22.409  0.00  0.00    +0.152 HD
ENDBRANCH   3  20
BRANCH   7  23
ATOM     23  S   UNL     1      32.843  -6.591 -22.189  0.00  0.00    +0.063 S 
ATOM     24  O   UNL     1      32.816  -5.705 -21.030  0.00  0.00    -0.153 OA
ATOM     25  O   UNL     1      34.045  -6.626 -23.012  0.00  0.00    -0.153 OA
BRANCH  23  26
ATOM     26  N   UNL     1      31.483  -6.230 -23.197  0.00  0.00    -0.153 NA
ATOM     27  C   UNL     1      31.177  -4.799 -23.450  0.00  0.00    +0.115 C 
ATOM     28  C   UNL     1      31.287  -7.064 -24.410  0.00  0.00    +0.115 C 
ENDBRANCH  23  26
ENDBRANCH   7  23
TORSDOF 3
ENDMDL
MODEL 5
REMARK VINA RESULT:      -9.3      6.299     10.145
REMARK  Name = 5312137
REMARK  3 active torsions:
REMARK  status: ('A' for Active; 'I' for Inactive)
REMARK    1  A    between atoms: C_3  and  C_20
REMARK    2  A    between atoms: C_7  and  S_23
REMARK    3  A    between atoms: S_23  and  N_26
REMARK                            x       y       z     vdW  Elec       q    Type
REMARK                         _______ _______ _______ _____ _____    ______ ____
ROOT
ATOM      1  O   UNL     1      33.396 -11.659 -26.271  0.00  0.00    -0.270 OA
ATOM      2  N   UNL     1      33.751 -13.985 -26.484  0.00  0.00    -0.280 N 
ATOM      3  C   UNL     1      34.388 -12.097 -23.499  0.00  0.00    +0.019 C 
ATOM      4  C   UNL     1      34.245 -13.043 -24.458  0.00  0.00    +0.056 C 
ATOM      5  C   UNL     1      34.533 -14.471 -24.378  0.00  0.00    +0.019 C 
ATOM      6  C   UNL     1      34.215 -14.995 -25.634  0.00  0.00    +0.051 C 
ATOM      7  C   UNL     1      35.168 -16.651 -23.656  0.00  0.00    +0.122 C 
ATOM      8  C   UNL     1      35.012 -15.289 -23.372  0.00  0.00    +0.021 C 
ATOM      9  C   UNL     1      33.737 -12.745 -25.839  0.00  0.00    +0.250 C 
ATOM     10  C   UNL     1      34.361 -16.334 -25.935  0.00  0.00    +0.016 C 
ATOM     11  C   UNL     1      34.845 -17.168 -24.925  0.00  0.00    +0.021 C 
ATOM     12  H   UNL     1      33.472 -14.129 -27.418  0.00  0.00    +0.155 HD
ENDROOT
BRANCH   3  20
ATOM     13  N   UNL     1      32.812 -10.318 -23.365  0.00  0.00    -0.316 N 
ATOM     14  C   UNL     1      32.728  -8.968 -23.567  0.00  0.00    +0.021 C 
ATOM     15  C   UNL     1      33.961  -8.512 -23.987  0.00  0.00    -0.012 C 
ATOM     16  C   UNL     1      31.500  -8.150 -23.393  0.00  0.00    +0.041 C 
ATOM     17  C   UNL     1      34.225  -7.078 -24.283  0.00  0.00    +0.027 C 
ATOM     18  C   UNL     1      31.872  -6.655 -23.372  0.00  0.00    +0.006 C 
ATOM     19  C   UNL     1      32.908  -6.296 -24.456  0.00  0.00    +0.005 C 
ATOM     20  C   UNL     1      34.090 -10.734 -23.646  0.00  0.00    +0.048 C 
ATOM     21  C   UNL     1      34.826  -9.633 -24.033  0.00  0.00    +0.011 C 
ATOM     22  H   UNL     1      32.074 -10.897 -23.066  0.00  0.00    +0.152 HD
ENDBRANCH   3  20
BRANCH   7  23
ATOM     23  S   UNL     1      35.771 -17.726 -22.416  0.00  0.00    +0.063 S 
ATOM     24  O   UNL     1      37.160 -18.044 -22.729  0.00  0.00    -0.153 OA
ATOM     25  O   UNL     1      35.466 -17.138 -21.118  0.00  0.00    -0.153 OA
BRANCH  23  26
ATOM     26  N   UNL     1      34.812 -19.152 -22.624  0.00  0.00    -0.153 NA
ATOM     27  C   UNL     1      35.016 -19.941 -23.866  0.00  0.00    +0.115 C 
ATOM     28  C   UNL     1      34.610 -20.022 -21.438  0.00  0.00    +0.115 C 
ENDBRANCH  23  26
ENDBRANCH   7  23
TORSDOF 3
ENDMDL
MODEL 6
REMARK VINA RESULT:      -9.3      3.360      4.648
REMARK  Name = 5312137
REMARK  3 active torsions:
REMARK  status: ('A' for Active; 'I' for Inactive)
REMARK    1  A    between atoms: C_3  and  C_20
REMARK    2  A    between atoms: C_7  and  S_23
REMARK    3  A    between atoms: S_23  and  N_26
REMARK                            x       y       z     vdW  Elec       q    Type
REMARK                         _______ _______ _______ _____ _____    ______ ____
ROOT
ATOM      1  O   UNL     1      36.573 -21.723 -18.793  0.00  0.00    -0.270 OA
ATOM      2  N   UNL     1      36.064 -23.014 -16.881  0.00  0.00    -0.280 N 
ATOM      3  C   UNL     1      33.618 -21.695 -19.152  0.00  0.00    +0.019 C 
ATOM      4  C   UNL     1      34.298 -22.304 -18.151  0.00  0.00    +0.056 C 
ATOM      5  C   UNL     1      33.771 -23.077 -17.031  0.00  0.00    +0.019 C 
ATOM      6  C   UNL     1      34.885 -23.484 -16.292  0.00  0.00    +0.051 C 
ATOM      7  C   UNL     1      32.358 -24.199 -15.475  0.00  0.00    +0.122 C 
ATOM      8  C   UNL     1      32.495 -23.428 -16.636  0.00  0.00    +0.021 C 
ATOM      9  C   UNL     1      35.795 -22.275 -18.037  0.00  0.00    +0.250 C 
ATOM     10  C   UNL     1      34.774 -24.245 -15.146  0.00  0.00    +0.016 C 
ATOM     11  C   UNL     1      33.487 -24.604 -14.738  0.00  0.00    +0.021 C 
ATOM     12  H   UNL     1      36.968 -23.183 -16.527  0.00  0.00    +0.155 HD
ENDROOT
BRANCH   3  20
ATOM     13  N   UNL     1      35.459 -20.466 -20.026  0.00  0.00    -0.316 N 
ATOM     14  C   UNL     1      35.836 -19.794 -21.155  0.00  0.00    +0.021 C 
ATOM     15  C   UNL     1      34.801 -19.856 -22.066  0.00  0.00    -0.012 C 
ATOM     16  C   UNL     1      37.131 -19.090 -21.342  0.00  0.00    +0.041 C 
ATOM     17  C   UNL     1      34.885 -19.236 -23.416  0.00  0.00    +0.027 C 
ATOM     18  C   UNL     1      37.330 -18.757 -22.834  0.00  0.00    +0.006 C 
ATOM     19  C   UNL     1      36.042 -18.220 -23.488  0.00  0.00    +0.005 C 
ATOM     20  C   UNL     1      34.193 -20.965 -20.203  0.00  0.00    +0.048 C 
ATOM     21  C   UNL     1      33.760 -20.602 -21.462  0.00  0.00    +0.011 C 
ATOM     22  H   UNL     1      36.009 -20.574 -19.216  0.00  0.00    +0.152 HD
ENDBRANCH   3  20
BRANCH   7  23
ATOM     23  S   UNL     1      30.763 -24.668 -14.934  0.00  0.00    +0.063 S 
ATOM     24  O   UNL     1      30.573 -26.078 -15.255  0.00  0.00    -0.153 OA
ATOM     25  O   UNL     1      30.611 -24.241 -13.549  0.00  0.00    -0.153 OA
BRANCH  23  26
ATOM     26  N   UNL     1      29.710 -23.723 -15.930  0.00  0.00    -0.153 NA
ATOM     27  C   UNL     1      28.713 -24.449 -16.757  0.00  0.00    +0.115 C 
ATOM     28  C   UNL     1      29.151 -22.476 -15.349  0.00  0.00    +0.115 C 
ENDBRANCH  23  26
ENDBRANCH   7  23
TORSDOF 3
ENDMDL
MODEL 7
REMARK VINA RESULT:      -9.0     13.209     18.380
REMARK  Name = 5312137
REMARK  3 active torsions:
REMARK  status: ('A' for Active; 'I' for Inactive)
REMARK    1  A    between atoms: C_3  and  C_20
REMARK    2  A    between atoms: C_7  and  S_23
REMARK    3  A    between atoms: S_23  and  N_26
REMARK                            x       y       z     vdW  Elec       q    Type
REMARK                         _______ _______ _______ _____ _____    ______ ____
ROOT
ATOM      1  O   UNL     1      30.797  -5.795 -21.769  0.00  0.00    -0.270 OA
ATOM      2  N   UNL     1      30.896  -3.927 -23.212  0.00  0.00    -0.280 N 
ATOM      3  C   UNL     1      32.860  -6.906 -23.606  0.00  0.00    +0.019 C 
ATOM      4  C   UNL     1      32.266  -5.692 -23.707  0.00  0.00    +0.056 C 
ATOM      5  C   UNL     1      32.480  -4.655 -24.711  0.00  0.00    +0.019 C 
ATOM      6  C   UNL     1      31.624  -3.607 -24.363  0.00  0.00    +0.051 C 
ATOM      7  C   UNL     1      33.241  -3.383 -26.576  0.00  0.00    +0.122 C 
ATOM      8  C   UNL     1      33.299  -4.560 -25.820  0.00  0.00    +0.021 C 
ATOM      9  C   UNL     1      31.229  -5.200 -22.739  0.00  0.00    +0.250 C 
ATOM     10  C   UNL     1      31.551  -2.438 -25.095  0.00  0.00    +0.016 C 
ATOM     11  C   UNL     1      32.375  -2.333 -26.217  0.00  0.00    +0.021 C 
ATOM     12  H   UNL     1      30.234  -3.333 -22.789  0.00  0.00    +0.155 HD
ENDROOT
BRANCH   3  20
ATOM     13  N   UNL     1      31.913  -8.992 -22.960  0.00  0.00    -0.316 N 
ATOM     14  C   UNL     1      31.770  -9.787 -21.858  0.00  0.00    +0.021 C 
ATOM     15  C   UNL     1      32.370  -9.158 -20.785  0.00  0.00    -0.012 C 
ATOM     16  C   UNL     1      31.055 -11.090 -21.827  0.00  0.00    +0.041 C 
ATOM     17  C   UNL     1      32.412  -9.761 -19.425  0.00  0.00    +0.027 C 
ATOM     18  C   UNL     1      31.399 -11.838 -20.524  0.00  0.00    +0.006 C 
ATOM     19  C   UNL     1      31.389 -10.908 -19.296  0.00  0.00    +0.005 C 
ATOM     20  C   UNL     1      32.604  -7.859 -22.609  0.00  0.00    +0.048 C 
ATOM     21  C   UNL     1      32.902  -7.937 -21.264  0.00  0.00    +0.011 C 
ATOM     22  H   UNL     1      31.574  -9.199 -23.861  0.00  0.00    +0.152 HD
ENDBRANCH   3  20
BRANCH   7  23
ATOM     23  S   UNL     1      34.258  -3.216 -27.988  0.00  0.00    +0.063 S 
ATOM     24  O   UNL     1      34.140  -4.436 -28.779  0.00  0.00    -0.153 OA
ATOM     25  O   UNL     1      33.946  -1.941 -28.623  0.00  0.00    -0.153 OA
BRANCH  23  26
ATOM     26  N   UNL     1      35.853  -3.135 -27.324  0.00  0.00    -0.153 NA
ATOM     27  C   UNL     1      36.662  -4.381 -27.326  0.00  0.00    +0.115 C 
ATOM     28  C   UNL     1      36.673  -1.940 -27.647  0.00  0.00    +0.115 C 
ENDBRANCH  23  26
ENDBRANCH   7  23
TORSDOF 3
ENDMDL
MODEL 8
REMARK VINA RESULT:      -9.0      5.396      8.827
REMARK  Name = 5312137
REMARK  3 active torsions:
REMARK  status: ('A' for Active; 'I' for Inactive)
REMARK    1  A    between atoms: C_3  and  C_20
REMARK    2  A    between atoms: C_7  and  S_23
REMARK    3  A    between atoms: S_23  and  N_26
REMARK                            x       y       z     vdW  Elec       q    Type
REMARK                         _______ _______ _______ _____ _____    ______ ____
ROOT
ATOM      1  O   UNL     1      33.127 -13.231 -25.796  0.00  0.00    -0.270 OA
ATOM      2  N   UNL     1      33.731 -15.511 -25.921  0.00  0.00    -0.280 N 
ATOM      3  C   UNL     1      34.458 -13.366 -23.137  0.00  0.00    +0.019 C 
ATOM      4  C   UNL     1      34.326 -14.385 -24.020  0.00  0.00    +0.056 C 
ATOM      5  C   UNL     1      34.789 -15.763 -23.895  0.00  0.00    +0.019 C 
ATOM      6  C   UNL     1      34.401 -16.403 -25.076  0.00  0.00    +0.051 C 
ATOM      7  C   UNL     1      35.752 -17.805 -23.133  0.00  0.00    +0.122 C 
ATOM      8  C   UNL     1      35.467 -16.453 -22.909  0.00  0.00    +0.021 C 
ATOM      9  C   UNL     1      33.639 -14.240 -25.347  0.00  0.00    +0.250 C 
ATOM     10  C   UNL     1      34.672 -17.735 -25.318  0.00  0.00    +0.016 C 
ATOM     11  C   UNL     1      35.358 -18.439 -24.327  0.00  0.00    +0.021 C 
ATOM     12  H   UNL     1      33.371 -15.749 -26.806  0.00  0.00    +0.155 HD
ENDROOT
BRANCH   3  20
ATOM     13  N   UNL     1      32.797 -11.710 -22.733  0.00  0.00    -0.316 N 
ATOM     14  C   UNL     1      32.517 -10.406 -23.030  0.00  0.00    +0.021 C 
ATOM     15  C   UNL     1      33.531  -9.911 -23.824  0.00  0.00    -0.012 C 
ATOM     16  C   UNL     1      31.302  -9.669 -22.594  0.00  0.00    +0.041 C 
ATOM     17  C   UNL     1      33.548  -8.507 -24.318  0.00  0.00    +0.027 C 
ATOM     18  C   UNL     1      31.502  -8.158 -22.823  0.00  0.00    +0.006 C 
ATOM     19  C   UNL     1      32.157  -7.856 -24.185  0.00  0.00    +0.005 C 
ATOM     20  C   UNL     1      33.986 -12.058 -23.323  0.00  0.00    +0.048 C 
ATOM     21  C   UNL     1      34.466 -10.959 -24.006  0.00  0.00    +0.011 C 
ATOM     22  H   UNL     1      32.236 -12.304 -22.183  0.00  0.00    +0.152 HD
ENDBRANCH   3  20
BRANCH   7  23
ATOM     23  S   UNL     1      36.609 -18.719 -21.915  0.00  0.00    +0.063 S 
ATOM     24  O   UNL     1      37.870 -19.174 -22.493  0.00  0.00    -0.153 OA
ATOM     25  O   UNL     1      36.650 -17.923 -20.695  0.00  0.00    -0.153 OA
BRANCH  23  26
ATOM     26  N   UNL     1      35.589 -20.092 -21.655  0.00  0.00    -0.153 NA
ATOM     27  C   UNL     1      36.045 -21.111 -20.676  0.00  0.00    +0.115 C 
ATOM     28  C   UNL     1      34.126 -19.853 -21.568  0.00  0.00    +0.115 C 
ENDBRANCH  23  26
ENDBRANCH   7  23
TORSDOF 3
ENDMDL
MODEL 9
REMARK VINA RESULT:      -9.0     10.196     13.924
REMARK  Name = 5312137
REMARK  3 active torsions:
REMARK  status: ('A' for Active; 'I' for Inactive)
REMARK    1  A    between atoms: C_3  and  C_20
REMARK    2  A    between atoms: C_7  and  S_23
REMARK    3  A    between atoms: S_23  and  N_26
REMARK                            x       y       z     vdW  Elec       q    Type
REMARK                         _______ _______ _______ _____ _____    ______ ____
ROOT
ATOM      1  O   UNL     1      32.441  -5.912 -21.288  0.00  0.00    -0.270 OA
ATOM      2  N   UNL     1      32.315  -7.856 -19.951  0.00  0.00    -0.280 N 
ATOM      3  C   UNL     1      32.649  -7.865 -23.525  0.00  0.00    +0.019 C 
ATOM      4  C   UNL     1      32.526  -8.163 -22.209  0.00  0.00    +0.056 C 
ATOM      5  C   UNL     1      32.465  -9.476 -21.576  0.00  0.00    +0.019 C 
ATOM      6  C   UNL     1      32.338  -9.232 -20.205  0.00  0.00    +0.051 C 
ATOM      7  C   UNL     1      32.424 -11.818 -21.138  0.00  0.00    +0.122 C 
ATOM      8  C   UNL     1      32.511 -10.769 -22.061  0.00  0.00    +0.021 C 
ATOM      9  C   UNL     1      32.426  -7.119 -21.134  0.00  0.00    +0.250 C 
ATOM     10  C   UNL     1      32.250 -10.250 -19.278  0.00  0.00    +0.016 C 
ATOM     11  C   UNL     1      32.295 -11.560 -19.760  0.00  0.00    +0.021 C 
ATOM     12  H   UNL     1      32.230  -7.457 -19.054  0.00  0.00    +0.155 HD
ENDROOT
BRANCH   3  20
ATOM     13  N   UNL     1      31.657  -5.719 -23.806  0.00  0.00    -0.316 N 
ATOM     14  C   UNL     1      31.897  -4.520 -24.416  0.00  0.00    +0.021 C 
ATOM     15  C   UNL     1      33.104  -4.602 -25.081  0.00  0.00    -0.012 C 
ATOM     16  C   UNL     1      30.986  -3.347 -24.389  0.00  0.00    +0.041 C 
ATOM     17  C   UNL     1      33.678  -3.459 -25.842  0.00  0.00    +0.027 C 
ATOM     18  C   UNL     1      31.738  -2.095 -24.882  0.00  0.00    +0.006 C 
ATOM     19  C   UNL     1      32.607  -2.386 -26.122  0.00  0.00    +0.005 C 
ATOM     20  C   UNL     1      32.701  -6.571 -24.067  0.00  0.00    +0.048 C 
ATOM     21  C   UNL     1      33.615  -5.903 -24.855  0.00  0.00    +0.011 C 
ATOM     22  H   UNL     1      30.863  -5.936 -23.266  0.00  0.00    +0.152 HD
ENDBRANCH   3  20
BRANCH   7  23
ATOM     23  S   UNL     1      32.476 -13.470 -21.704  0.00  0.00    +0.063 S 
ATOM     24  O   UNL     1      31.925 -14.325 -20.658  0.00  0.00    -0.153 OA
ATOM     25  O   UNL     1      31.873 -13.516 -23.030  0.00  0.00    -0.153 OA
BRANCH  23  26
ATOM     26  N   UNL     1      34.171 -13.789 -21.848  0.00  0.00    -0.153 NA
ATOM     27  C   UNL     1      34.742 -14.866 -21.000  0.00  0.00    +0.115 C 
ATOM     28  C   UNL     1      34.757 -13.785 -23.213  0.00  0.00    +0.115 C 
ENDBRANCH  23  26
ENDBRANCH   7  23
TORSDOF 3
ENDMDL
