MODEL 1
REMARK VINA RESULT:     -10.9      0.000      0.000
REMARK  Name = 25113181
REMARK  3 active torsions:
REMARK  status: ('A' for Active; 'I' for Inactive)
REMARK    1  A    between atoms: C_14  and  C_19
REMARK    2  A    between atoms: C_17  and  C_30
REMARK    3  A    between atoms: C_22  and  O_25
REMARK                            x       y       z     vdW  Elec       q    Type
REMARK                         _______ _______ _______ _____ _____    ______ ____
ROOT
ATOM      1  N   UNL     1      31.150 -23.862 -15.662  0.00  0.00    -0.290 N 
ATOM      2  N   UNL     1      28.840 -23.566 -17.317  0.00  0.00    +0.388 N 
ATOM      3  N   UNL     1      33.507 -23.633 -15.506  0.00  0.00    -0.392 NA
ATOM      4  N   UNL     1      33.414 -24.797 -12.985  0.00  0.00    -0.263 NA
ATOM      5  C   UNL     1      31.048 -22.728 -16.589  0.00  0.00    +0.070 C 
ATOM      6  C   UNL     1      30.333 -25.032 -16.000  0.00  0.00    +0.070 C 
ATOM      7  C   UNL     1      29.582 -22.385 -16.860  0.00  0.00    -0.056 C 
ATOM      8  C   UNL     1      28.890 -24.615 -16.291  0.00  0.00    -0.056 C 
ATOM      9  C   UNL     1      32.347 -24.031 -14.958  0.00  0.00    +0.184 C 
ATOM     10  C   UNL     1      27.454 -23.215 -17.625  0.00  0.00    -0.101 C 
ATOM     11  C   UNL     1      34.633 -23.816 -14.793  0.00  0.00    +0.131 C 
ATOM     12  C   UNL     1      32.300 -24.605 -13.715  0.00  0.00    +0.199 C 
ATOM     13  C   UNL     1      34.586 -24.404 -13.516  0.00  0.00    +0.084 C 
ATOM     14  C   UNL     1      35.864 -23.422 -15.312  0.00  0.00    +0.097 C 
ATOM     15  C   UNL     1      35.770 -24.579 -12.806  0.00  0.00    +0.078 C 
ATOM     16  C   UNL     1      37.045 -23.601 -14.592  0.00  0.00    -0.015 C 
ATOM     17  C   UNL     1      36.997 -24.181 -13.334  0.00  0.00    +0.052 C 
ATOM     18  H   UNL     1      29.275 -23.919 -18.170  0.00  0.00    -0.080 HD
ENDROOT
BRANCH  14  19
ATOM     19  C   UNL     1      35.952 -22.809 -16.626  0.00  0.00    -0.009 C 
ATOM     20  C   UNL     1      34.905 -22.954 -17.535  0.00  0.00    +0.033 C 
ATOM     21  C   UNL     1      37.085 -22.075 -16.977  0.00  0.00    -0.003 C 
ATOM     22  C   UNL     1      34.990 -22.364 -18.796  0.00  0.00    +0.133 C 
ATOM     23  C   UNL     1      37.170 -21.485 -18.239  0.00  0.00    +0.003 C 
ATOM     24  C   UNL     1      36.123 -21.629 -19.148  0.00  0.00    +0.037 C 
BRANCH  22  25
ATOM     25  O   UNL     1      33.967 -22.504 -19.683  0.00  0.00    -0.506 OA
ATOM     26  H   UNL     1      34.111 -22.339 -20.594  0.00  0.00    +0.292 HD
ENDBRANCH  22  25
ENDBRANCH  14  19
BRANCH  17  30
ATOM     27  F   UNL     1      38.150 -25.342 -11.587  0.00  0.00    -0.166 F 
ATOM     28  F   UNL     1      39.320 -24.750 -13.314  0.00  0.00    -0.166 F 
ATOM     29  F   UNL     1      38.645 -23.246 -11.896  0.00  0.00    -0.166 F 
ATOM     30  C   UNL     1      38.250 -24.378 -12.550  0.00  0.00    +0.415 C 
ENDBRANCH  17  30
TORSDOF 3
ENDMDL
MODEL 2
REMARK VINA RESULT:      -9.5      1.183      1.667
REMARK  Name = 25113181
REMARK  3 active torsions:
REMARK  status: ('A' for Active; 'I' for Inactive)
REMARK    1  A    between atoms: C_14  and  C_19
REMARK    2  A    between atoms: C_17  and  C_30
REMARK    3  A    between atoms: C_22  and  O_25
REMARK                            x       y       z     vdW  Elec       q    Type
REMARK                         _______ _______ _______ _____ _____    ______ ____
ROOT
ATOM      1  N   UNL     1      31.551 -23.877 -15.192  0.00  0.00    -0.290 N 
ATOM      2  N   UNL     1      29.157 -23.366 -16.663  0.00  0.00    +0.388 N 
ATOM      3  N   UNL     1      33.918 -23.697 -15.151  0.00  0.00    -0.392 NA
ATOM      4  N   UNL     1      33.946 -25.137 -12.775  0.00  0.00    -0.263 NA
ATOM      5  C   UNL     1      31.419 -22.644 -15.978  0.00  0.00    +0.070 C 
ATOM      6  C   UNL     1      30.694 -24.990 -15.610  0.00  0.00    +0.070 C 
ATOM      7  C   UNL     1      29.947 -22.253 -16.122  0.00  0.00    -0.056 C 
ATOM      8  C   UNL     1      29.245 -24.524 -15.766  0.00  0.00    -0.056 C 
ATOM      9  C   UNL     1      32.783 -24.140 -14.583  0.00  0.00    +0.184 C 
ATOM     10  C   UNL     1      27.763 -22.964 -16.848  0.00  0.00    -0.101 C 
ATOM     11  C   UNL     1      35.079 -23.974 -14.530  0.00  0.00    +0.131 C 
ATOM     12  C   UNL     1      32.797 -24.849 -13.411  0.00  0.00    +0.199 C 
ATOM     13  C   UNL     1      35.093 -24.703 -13.327  0.00  0.00    +0.084 C 
ATOM     14  C   UNL     1      36.286 -23.540 -15.074  0.00  0.00    +0.097 C 
ATOM     15  C   UNL     1      36.313 -24.972 -12.712  0.00  0.00    +0.078 C 
ATOM     16  C   UNL     1      37.502 -23.814 -14.450  0.00  0.00    -0.015 C 
ATOM     17  C   UNL     1      37.515 -24.532 -13.264  0.00  0.00    +0.052 C 
ATOM     18  H   UNL     1      29.535 -23.625 -17.575  0.00  0.00    -0.080 HD
ENDROOT
BRANCH  14  19
ATOM     19  C   UNL     1      36.310 -22.784 -16.314  0.00  0.00    -0.009 C 
ATOM     20  C   UNL     1      37.251 -21.770 -16.495  0.00  0.00    +0.033 C 
ATOM     21  C   UNL     1      35.394 -23.074 -17.325  0.00  0.00    -0.003 C 
ATOM     22  C   UNL     1      37.274 -21.046 -17.686  0.00  0.00    +0.133 C 
ATOM     23  C   UNL     1      35.418 -22.349 -18.517  0.00  0.00    +0.003 C 
ATOM     24  C   UNL     1      36.358 -21.335 -18.697  0.00  0.00    +0.037 C 
BRANCH  22  25
ATOM     25  O   UNL     1      38.192 -20.057 -17.864  0.00  0.00    -0.506 OA
ATOM     26  H   UNL     1      38.711 -19.763 -17.141  0.00  0.00    +0.292 HD
ENDBRANCH  22  25
ENDBRANCH  14  19
BRANCH  17  30
ATOM     27  F   UNL     1      39.889 -24.796 -13.416  0.00  0.00    -0.166 F 
ATOM     28  F   UNL     1      39.108 -23.966 -11.572  0.00  0.00    -0.166 F 
ATOM     29  F   UNL     1      38.825 -26.076 -12.015  0.00  0.00    -0.166 F 
ATOM     30  C   UNL     1      38.807 -24.833 -12.583  0.00  0.00    +0.415 C 
ENDBRANCH  17  30
TORSDOF 3
ENDMDL
MODEL 3
REMARK VINA RESULT:      -9.4     13.258     15.350
REMARK  Name = 25113181
REMARK  3 active torsions:
REMARK  status: ('A' for Active; 'I' for Inactive)
REMARK    1  A    between atoms: C_14  and  C_19
REMARK    2  A    between atoms: C_17  and  C_30
REMARK    3  A    between atoms: C_22  and  O_25
REMARK                            x       y       z     vdW  Elec       q    Type
REMARK                         _______ _______ _______ _____ _____    ______ ____
ROOT
ATOM      1  N   UNL     1      32.384  -7.757 -22.958  0.00  0.00    -0.290 N 
ATOM      2  N   UNL     1      32.396  -5.478 -24.681  0.00  0.00    +0.388 N 
ATOM      3  N   UNL     1      32.682 -10.106 -22.793  0.00  0.00    -0.392 NA
ATOM      4  N   UNL     1      31.883  -9.980 -20.134  0.00  0.00    -0.263 NA
ATOM      5  C   UNL     1      33.374  -7.655 -24.038  0.00  0.00    +0.070 C 
ATOM      6  C   UNL     1      31.162  -6.969 -23.143  0.00  0.00    +0.070 C 
ATOM      7  C   UNL     1      33.646  -6.189 -24.382  0.00  0.00    -0.056 C 
ATOM      8  C   UNL     1      31.504  -5.525 -23.517  0.00  0.00    -0.056 C 
ATOM      9  C   UNL     1      32.341  -8.941 -22.215  0.00  0.00    +0.184 C 
ATOM     10  C   UNL     1      32.672  -4.094 -25.062  0.00  0.00    -0.101 C 
ATOM     11  C   UNL     1      32.625 -11.220 -22.040  0.00  0.00    +0.131 C 
ATOM     12  C   UNL     1      31.948  -8.879 -20.905  0.00  0.00    +0.199 C 
ATOM     13  C   UNL     1      32.221 -11.156 -20.694  0.00  0.00    +0.084 C 
ATOM     14  C   UNL     1      32.967 -12.454 -22.586  0.00  0.00    +0.097 C 
ATOM     15  C   UNL     1      32.173 -12.328 -19.944  0.00  0.00    +0.078 C 
ATOM     16  C   UNL     1      32.916 -13.622 -21.826  0.00  0.00    -0.015 C 
ATOM     17  C   UNL     1      32.518 -13.558 -20.500  0.00  0.00    +0.052 C 
ATOM     18  H   UNL     1      31.936  -5.938 -25.467  0.00  0.00    -0.080 HD
ENDROOT
BRANCH  14  19
ATOM     19  C   UNL     1      33.390 -12.560 -23.972  0.00  0.00    -0.009 C 
ATOM     20  C   UNL     1      33.082 -13.701 -24.711  0.00  0.00    +0.033 C 
ATOM     21  C   UNL     1      34.104 -11.517 -24.563  0.00  0.00    -0.003 C 
ATOM     22  C   UNL     1      33.488 -13.800 -26.041  0.00  0.00    +0.133 C 
ATOM     23  C   UNL     1      34.510 -11.617 -25.894  0.00  0.00    +0.003 C 
ATOM     24  C   UNL     1      34.201 -12.758 -26.634  0.00  0.00    +0.037 C 
BRANCH  22  25
ATOM     25  O   UNL     1      33.185 -14.914 -26.764  0.00  0.00    -0.506 OA
ATOM     26  H   UNL     1      32.989 -14.841 -27.677  0.00  0.00    +0.292 HD
ENDBRANCH  22  25
ENDBRANCH  14  19
BRANCH  17  30
ATOM     27  F   UNL     1      32.204 -14.565 -18.351  0.00  0.00    -0.166 F 
ATOM     28  F   UNL     1      31.492 -15.675 -20.072  0.00  0.00    -0.166 F 
ATOM     29  F   UNL     1      33.628 -15.504 -19.701  0.00  0.00    -0.166 F 
ATOM     30  C   UNL     1      32.459 -14.797 -19.673  0.00  0.00    +0.415 C 
ENDBRANCH  17  30
TORSDOF 3
ENDMDL
MODEL 4
REMARK VINA RESULT:      -9.3      2.514      5.451
REMARK  Name = 25113181
REMARK  3 active torsions:
REMARK  status: ('A' for Active; 'I' for Inactive)
REMARK    1  A    between atoms: C_14  and  C_19
REMARK    2  A    between atoms: C_17  and  C_30
REMARK    3  A    between atoms: C_22  and  O_25
REMARK                            x       y       z     vdW  Elec       q    Type
REMARK                         _______ _______ _______ _____ _____    ______ ____
ROOT
ATOM      1  N   UNL     1      36.694 -21.447 -18.697  0.00  0.00    -0.290 N 
ATOM      2  N   UNL     1      35.966 -19.853 -20.953  0.00  0.00    +0.388 N 
ATOM      3  N   UNL     1      35.929 -22.611 -16.775  0.00  0.00    -0.392 NA
ATOM      4  N   UNL     1      38.571 -23.122 -16.082  0.00  0.00    -0.263 NA
ATOM      5  C   UNL     1      35.450 -21.726 -19.425  0.00  0.00    +0.070 C 
ATOM      6  C   UNL     1      37.215 -20.083 -18.832  0.00  0.00    +0.070 C 
ATOM      7  C   UNL     1      35.563 -21.263 -20.879  0.00  0.00    -0.056 C 
ATOM      8  C   UNL     1      37.270 -19.672 -20.306  0.00  0.00    -0.056 C 
ATOM      9  C   UNL     1      36.951 -22.176 -17.531  0.00  0.00    +0.184 C 
ATOM     10  C   UNL     1      36.017 -19.406 -22.345  0.00  0.00    -0.101 C 
ATOM     11  C   UNL     1      36.224 -23.308 -15.662  0.00  0.00    +0.131 C 
ATOM     12  C   UNL     1      38.254 -22.428 -17.190  0.00  0.00    +0.199 C 
ATOM     13  C   UNL     1      37.562 -23.567 -15.312  0.00  0.00    +0.084 C 
ATOM     14  C   UNL     1      35.204 -23.783 -14.842  0.00  0.00    +0.097 C 
ATOM     15  C   UNL     1      37.831 -24.291 -14.154  0.00  0.00    +0.078 C 
ATOM     16  C   UNL     1      35.485 -24.507 -13.684  0.00  0.00    -0.015 C 
ATOM     17  C   UNL     1      36.803 -24.763 -13.339  0.00  0.00    +0.052 C 
ATOM     18  H   UNL     1      35.273 -19.287 -20.464  0.00  0.00    -0.080 HD
ENDROOT
BRANCH  14  19
ATOM     19  C   UNL     1      33.811 -23.536 -15.172  0.00  0.00    -0.009 C 
ATOM     20  C   UNL     1      33.453 -23.199 -16.476  0.00  0.00    +0.033 C 
ATOM     21  C   UNL     1      32.833 -23.640 -14.183  0.00  0.00    -0.003 C 
ATOM     22  C   UNL     1      32.115 -22.963 -16.792  0.00  0.00    +0.133 C 
ATOM     23  C   UNL     1      31.494 -23.404 -14.500  0.00  0.00    +0.003 C 
ATOM     24  C   UNL     1      31.136 -23.066 -15.804  0.00  0.00    +0.037 C 
BRANCH  22  25
ATOM     25  O   UNL     1      31.764 -22.635 -18.066  0.00  0.00    -0.506 OA
ATOM     26  H   UNL     1      32.314 -22.882 -18.782  0.00  0.00    +0.292 HD
ENDBRANCH  22  25
ENDBRANCH  14  19
BRANCH  17  30
ATOM     27  F   UNL     1      36.149 -25.465 -11.147  0.00  0.00    -0.166 F 
ATOM     28  F   UNL     1      37.302 -26.872 -12.328  0.00  0.00    -0.166 F 
ATOM     29  F   UNL     1      38.266 -25.109 -11.496  0.00  0.00    -0.166 F 
ATOM     30  C   UNL     1      37.120 -25.536 -12.105  0.00  0.00    +0.415 C 
ENDBRANCH  17  30
TORSDOF 3
ENDMDL
MODEL 5
REMARK VINA RESULT:      -9.2     13.075     15.585
REMARK  Name = 25113181
REMARK  3 active torsions:
REMARK  status: ('A' for Active; 'I' for Inactive)
REMARK    1  A    between atoms: C_14  and  C_19
REMARK    2  A    between atoms: C_17  and  C_30
REMARK    3  A    between atoms: C_22  and  O_25
REMARK                            x       y       z     vdW  Elec       q    Type
REMARK                         _______ _______ _______ _____ _____    ______ ____
ROOT
ATOM      1  N   UNL     1      34.156 -13.801 -24.208  0.00  0.00    -0.290 N 
ATOM      2  N   UNL     1      34.608 -16.619 -24.336  0.00  0.00    +0.388 N 
ATOM      3  N   UNL     1      33.306 -11.996 -22.921  0.00  0.00    -0.392 NA
ATOM      4  N   UNL     1      33.781 -10.296 -25.067  0.00  0.00    -0.263 NA
ATOM      5  C   UNL     1      34.558 -14.538 -23.003  0.00  0.00    +0.070 C 
ATOM      6  C   UNL     1      33.516 -14.600 -25.256  0.00  0.00    +0.070 C 
ATOM      7  C   UNL     1      35.352 -15.791 -23.379  0.00  0.00    -0.056 C 
ATOM      8  C   UNL     1      34.343 -15.852 -25.559  0.00  0.00    -0.056 C 
ATOM      9  C   UNL     1      33.834 -12.446 -24.073  0.00  0.00    +0.184 C 
ATOM     10  C   UNL     1      35.351 -17.839 -24.647  0.00  0.00    -0.101 C 
ATOM     11  C   UNL     1      33.011 -10.686 -22.837  0.00  0.00    +0.131 C 
ATOM     12  C   UNL     1      34.069 -11.608 -25.130  0.00  0.00    +0.199 C 
ATOM     13  C   UNL     1      33.252  -9.825 -23.923  0.00  0.00    +0.084 C 
ATOM     14  C   UNL     1      32.461 -10.165 -21.668  0.00  0.00    +0.097 C 
ATOM     15  C   UNL     1      32.934  -8.475 -23.802  0.00  0.00    +0.078 C 
ATOM     16  C   UNL     1      32.147  -8.811 -21.557  0.00  0.00    -0.015 C 
ATOM     17  C   UNL     1      32.385  -7.963 -22.627  0.00  0.00    +0.052 C 
ATOM     18  H   UNL     1      33.718 -16.888 -23.917  0.00  0.00    -0.080 HD
ENDROOT
BRANCH  14  19
ATOM     19  C   UNL     1      32.200 -11.023 -20.526  0.00  0.00    -0.009 C 
ATOM     20  C   UNL     1      32.395 -12.400 -20.628  0.00  0.00    +0.033 C 
ATOM     21  C   UNL     1      31.755 -10.468 -19.326  0.00  0.00    -0.003 C 
ATOM     22  C   UNL     1      32.145 -13.222 -19.530  0.00  0.00    +0.133 C 
ATOM     23  C   UNL     1      31.505 -11.291 -18.227  0.00  0.00    +0.003 C 
ATOM     24  C   UNL     1      31.700 -12.668 -18.329  0.00  0.00    +0.037 C 
BRANCH  22  25
ATOM     25  O   UNL     1      32.336 -14.566 -19.628  0.00  0.00    -0.506 OA
ATOM     26  H   UNL     1      32.805 -14.921 -20.357  0.00  0.00    +0.292 HD
ENDBRANCH  22  25
ENDBRANCH  14  19
BRANCH  17  30
ATOM     27  F   UNL     1      32.789  -5.722 -23.362  0.00  0.00    -0.166 F 
ATOM     28  F   UNL     1      30.752  -6.226 -22.815  0.00  0.00    -0.166 F 
ATOM     29  F   UNL     1      32.268  -6.014 -21.271  0.00  0.00    -0.166 F 
ATOM     30  C   UNL     1      32.056  -6.513 -22.524  0.00  0.00    +0.415 C 
ENDBRANCH  17  30
TORSDOF 3
ENDMDL
MODEL 6
REMARK VINA RESULT:      -8.4      2.867      5.612
REMARK  Name = 25113181
REMARK  3 active torsions:
REMARK  status: ('A' for Active; 'I' for Inactive)
REMARK    1  A    between atoms: C_14  and  C_19
REMARK    2  A    between atoms: C_17  and  C_30
REMARK    3  A    between atoms: C_22  and  O_25
REMARK                            x       y       z     vdW  Elec       q    Type
REMARK                         _______ _______ _______ _____ _____    ______ ____
ROOT
ATOM      1  N   UNL     1      36.713 -21.417 -18.795  0.00  0.00    -0.290 N 
ATOM      2  N   UNL     1      35.798 -19.837 -20.992  0.00  0.00    +0.388 N 
ATOM      3  N   UNL     1      36.099 -22.654 -16.864  0.00  0.00    -0.392 NA
ATOM      4  N   UNL     1      38.794 -23.015 -16.289  0.00  0.00    -0.263 NA
ATOM      5  C   UNL     1      35.459 -21.760 -19.478  0.00  0.00    +0.070 C 
ATOM      6  C   UNL     1      37.145 -20.023 -18.928  0.00  0.00    +0.070 C 
ATOM      7  C   UNL     1      35.483 -21.270 -20.927  0.00  0.00    -0.056 C 
ATOM      8  C   UNL     1      37.114 -19.587 -20.395  0.00  0.00    -0.056 C 
ATOM      9  C   UNL     1      37.062 -22.147 -17.654  0.00  0.00    +0.184 C 
ATOM     10  C   UNL     1      35.764 -19.367 -22.377  0.00  0.00    -0.101 C 
ATOM     11  C   UNL     1      36.481 -23.348 -15.777  0.00  0.00    +0.131 C 
ATOM     12  C   UNL     1      38.390 -22.325 -17.371  0.00  0.00    +0.199 C 
ATOM     13  C   UNL     1      37.846 -23.532 -15.486  0.00  0.00    +0.084 C 
ATOM     14  C   UNL     1      35.527 -23.896 -14.924  0.00  0.00    +0.097 C 
ATOM     15  C   UNL     1      38.206 -24.255 -14.352  0.00  0.00    +0.078 C 
ATOM     16  C   UNL     1      35.898 -24.620 -13.791  0.00  0.00    -0.015 C 
ATOM     17  C   UNL     1      37.243 -24.800 -13.505  0.00  0.00    +0.052 C 
ATOM     18  H   UNL     1      35.093 -19.321 -20.465  0.00  0.00    -0.080 HD
ENDROOT
BRANCH  14  19
ATOM     19  C   UNL     1      34.109 -23.729 -15.193  0.00  0.00    -0.009 C 
ATOM     20  C   UNL     1      33.195 -23.729 -14.140  0.00  0.00    +0.033 C 
ATOM     21  C   UNL     1      33.664 -23.567 -16.504  0.00  0.00    -0.003 C 
ATOM     22  C   UNL     1      31.834 -23.567 -14.400  0.00  0.00    +0.133 C 
ATOM     23  C   UNL     1      32.303 -23.405 -16.764  0.00  0.00    +0.003 C 
ATOM     24  C   UNL     1      31.388 -23.405 -15.711  0.00  0.00    +0.037 C 
BRANCH  22  25
ATOM     25  O   UNL     1      30.941 -23.565 -13.373  0.00  0.00    -0.506 OA
ATOM     26  H   UNL     1      30.100 -23.963 -13.482  0.00  0.00    +0.292 HD
ENDBRANCH  22  25
ENDBRANCH  14  19
BRANCH  17  30
ATOM     27  F   UNL     1      38.815 -26.276 -12.467  0.00  0.00    -0.166 F 
ATOM     28  F   UNL     1      37.872 -24.792 -11.198  0.00  0.00    -0.166 F 
ATOM     29  F   UNL     1      36.722 -26.491 -11.916  0.00  0.00    -0.166 F 
ATOM     30  C   UNL     1      37.656 -25.571 -12.298  0.00  0.00    +0.415 C 
ENDBRANCH  17  30
TORSDOF 3
ENDMDL
MODEL 7
REMARK VINA RESULT:      -8.4     12.732     15.150
REMARK  Name = 25113181
REMARK  3 active torsions:
REMARK  status: ('A' for Active; 'I' for Inactive)
REMARK    1  A    between atoms: C_14  and  C_19
REMARK    2  A    between atoms: C_17  and  C_30
REMARK    3  A    between atoms: C_22  and  O_25
REMARK                            x       y       z     vdW  Elec       q    Type
REMARK                         _______ _______ _______ _____ _____    ______ ____
ROOT
ATOM      1  N   UNL     1      33.214  -8.918 -23.638  0.00  0.00    -0.290 N 
ATOM      2  N   UNL     1      32.608  -6.324 -22.606  0.00  0.00    +0.388 N 
ATOM      3  N   UNL     1      33.344 -11.243 -23.179  0.00  0.00    -0.392 NA
ATOM      4  N   UNL     1      34.420 -11.642 -25.710  0.00  0.00    -0.263 NA
ATOM      5  C   UNL     1      32.100  -8.742 -22.698  0.00  0.00    +0.070 C 
ATOM      6  C   UNL     1      34.253  -7.885 -23.591  0.00  0.00    +0.070 C 
ATOM      7  C   UNL     1      31.543  -7.319 -22.786  0.00  0.00    -0.056 C 
ATOM      8  C   UNL     1      33.626  -6.489 -23.649  0.00  0.00    -0.056 C 
ATOM      9  C   UNL     1      33.547 -10.220 -24.027  0.00  0.00    +0.184 C 
ATOM     10  C   UNL     1      32.056  -4.971 -22.636  0.00  0.00    -0.101 C 
ATOM     11  C   UNL     1      33.680 -12.478 -23.595  0.00  0.00    +0.131 C 
ATOM     12  C   UNL     1      34.077 -10.417 -25.274  0.00  0.00    +0.199 C 
ATOM     13  C   UNL     1      34.224 -12.680 -24.876  0.00  0.00    +0.084 C 
ATOM     14  C   UNL     1      33.491 -13.575 -22.758  0.00  0.00    +0.097 C 
ATOM     15  C   UNL     1      34.561 -13.971 -25.274  0.00  0.00    +0.078 C 
ATOM     16  C   UNL     1      33.832 -14.864 -23.166  0.00  0.00    -0.015 C 
ATOM     17  C   UNL     1      34.368 -15.063 -24.429  0.00  0.00    +0.052 C 
ATOM     18  H   UNL     1      33.043  -6.469 -21.694  0.00  0.00    -0.080 HD
ENDROOT
BRANCH  14  19
ATOM     19  C   UNL     1      32.931 -13.406 -21.429  0.00  0.00    -0.009 C 
ATOM     20  C   UNL     1      32.389 -12.178 -21.051  0.00  0.00    +0.033 C 
ATOM     21  C   UNL     1      32.934 -14.473 -20.531  0.00  0.00    -0.003 C 
ATOM     22  C   UNL     1      31.850 -12.017 -19.775  0.00  0.00    +0.133 C 
ATOM     23  C   UNL     1      32.394 -14.312 -19.254  0.00  0.00    +0.003 C 
ATOM     24  C   UNL     1      31.852 -13.084 -18.877  0.00  0.00    +0.037 C 
BRANCH  22  25
ATOM     25  O   UNL     1      31.319 -10.819 -19.407  0.00  0.00    -0.506 OA
ATOM     26  H   UNL     1      30.602 -10.455 -19.888  0.00  0.00    +0.292 HD
ENDBRANCH  22  25
ENDBRANCH  14  19
BRANCH  17  30
ATOM     27  F   UNL     1      35.148 -17.255 -23.870  0.00  0.00    -0.166 F 
ATOM     28  F   UNL     1      33.710 -17.105 -25.486  0.00  0.00    -0.166 F 
ATOM     29  F   UNL     1      35.756 -16.433 -25.790  0.00  0.00    -0.166 F 
ATOM     30  C   UNL     1      34.736 -16.435 -24.881  0.00  0.00    +0.415 C 
ENDBRANCH  17  30
TORSDOF 3
ENDMDL
