MODEL 1
REMARK VINA RESULT:     -11.1      0.000      0.000
REMARK  Name = 24988948
REMARK  5 active torsions:
REMARK  status: ('A' for Active; 'I' for Inactive)
REMARK    1  A    between atoms: N_2  and  C_21
REMARK    2  A    between atoms: C_6  and  O_11
REMARK    3  A    between atoms: O_11  and  C_13
REMARK    4  A    between atoms: C_16  and  C_20
REMARK    5  A    between atoms: C_21  and  C_25
REMARK                            x       y       z     vdW  Elec       q    Type
REMARK                         _______ _______ _______ _____ _____    ______ ____
ROOT
ATOM      1 CL   UNL     1      34.310 -15.843 -26.247  0.00  0.00    -0.079 Cl
ATOM      2  N   UNL     1      35.454 -19.585 -21.934  0.00  0.00    -0.205 N 
ATOM      3  N   UNL     1      36.054 -18.831 -20.996  0.00  0.00    -0.176 NA
ATOM      4  C   UNL     1      35.092 -18.895 -23.060  0.00  0.00    +0.074 C 
ATOM      5  C   UNL     1      35.492 -17.584 -22.830  0.00  0.00    +0.071 C 
ATOM      6  C   UNL     1      35.257 -16.610 -23.816  0.00  0.00    +0.158 C 
ATOM      7  C   UNL     1      36.074 -17.614 -21.545  0.00  0.00    +0.122 C 
ATOM      8  C   UNL     1      34.461 -19.304 -24.236  0.00  0.00    +0.017 C 
ATOM      9  C   UNL     1      34.625 -17.000 -25.003  0.00  0.00    +0.092 C 
ATOM     10  C   UNL     1      34.234 -18.324 -25.208  0.00  0.00    +0.016 C 
ENDROOT
BRANCH   6  11
ATOM     11  O   UNL     1      35.640 -15.312 -23.616  0.00  0.00    -0.453 OA
BRANCH  11  13
ATOM     12 CL   UNL     1      32.311 -14.454 -19.842  0.00  0.00    -0.082 Cl
ATOM     13  C   UNL     1      34.722 -14.460 -23.033  0.00  0.00    +0.147 C 
ATOM     14  C   UNL     1      34.458 -13.218 -23.611  0.00  0.00    +0.048 C 
ATOM     15  C   UNL     1      34.057 -14.842 -21.868  0.00  0.00    +0.049 C 
ATOM     16  C   UNL     1      33.530 -12.359 -23.024  0.00  0.00    +0.072 C 
ATOM     17  C   UNL     1      33.130 -13.982 -21.280  0.00  0.00    +0.061 C 
ATOM     18  C   UNL     1      32.866 -12.741 -21.858  0.00  0.00    +0.022 C 
BRANCH  16  20
ATOM     19  N   UNL     1      33.043 -10.053 -24.096  0.00  0.00    -0.191 NA
ATOM     20  C   UNL     1      33.261 -11.086 -23.616  0.00  0.00    +0.101 C 
ENDBRANCH  16  20
ENDBRANCH  11  13
ENDBRANCH   6  11
BRANCH   2  21
ATOM     21  C   UNL     1      35.255 -20.993 -21.682  0.00  0.00    +0.159 C 
BRANCH  21  25
ATOM     22  N   UNL     1      36.913 -21.199 -19.802  0.00  0.00    -0.230 N 
ATOM     23  N   UNL     1      37.108 -21.633 -18.538  0.00  0.00    -0.128 NA
ATOM     24  N   UNL     1      35.570 -22.726 -17.014  0.00  0.00    -0.192 NA
ATOM     25  C   UNL     1      35.653 -21.413 -20.289  0.00  0.00    +0.071 C 
ATOM     26  C   UNL     1      34.984 -22.029 -19.268  0.00  0.00    +0.058 C 
ATOM     27  C   UNL     1      35.921 -22.148 -18.197  0.00  0.00    +0.049 C 
ATOM     28  C   UNL     1      33.661 -22.444 -19.294  0.00  0.00    +0.065 C 
ATOM     29  C   UNL     1      33.321 -23.034 -18.071  0.00  0.00    +0.001 C 
ATOM     30  C   UNL     1      34.263 -23.144 -17.020  0.00  0.00    +0.105 C 
ATOM     31  H   UNL     1      37.621 -20.765 -20.330  0.00  0.00    +0.175 HD
ENDBRANCH  21  25
ENDBRANCH   2  21
TORSDOF 5
ENDMDL
MODEL 2
REMARK VINA RESULT:     -10.9      1.575      2.026
REMARK  Name = 24988948
REMARK  5 active torsions:
REMARK  status: ('A' for Active; 'I' for Inactive)
REMARK    1  A    between atoms: N_2  and  C_21
REMARK    2  A    between atoms: C_6  and  O_11
REMARK    3  A    between atoms: O_11  and  C_13
REMARK    4  A    between atoms: C_16  and  C_20
REMARK    5  A    between atoms: C_21  and  C_25
REMARK                            x       y       z     vdW  Elec       q    Type
REMARK                         _______ _______ _______ _____ _____    ______ ____
ROOT
ATOM      1 CL   UNL     1      33.706 -14.600 -26.633  0.00  0.00    -0.079 Cl
ATOM      2  N   UNL     1      35.585 -18.306 -22.553  0.00  0.00    -0.205 N 
ATOM      3  N   UNL     1      35.976 -17.512 -21.542  0.00  0.00    -0.176 NA
ATOM      4  C   UNL     1      35.099 -17.632 -23.640  0.00  0.00    +0.074 C 
ATOM      5  C   UNL     1      35.182 -16.286 -23.304  0.00  0.00    +0.071 C 
ATOM      6  C   UNL     1      34.752 -15.318 -24.227  0.00  0.00    +0.158 C 
ATOM      7  C   UNL     1      35.729 -16.283 -22.002  0.00  0.00    +0.122 C 
ATOM      8  C   UNL     1      34.604 -18.082 -24.866  0.00  0.00    +0.017 C 
ATOM      9  C   UNL     1      34.252 -15.748 -25.462  0.00  0.00    +0.092 C 
ATOM     10  C   UNL     1      34.180 -17.106 -25.775  0.00  0.00    +0.016 C 
ENDROOT
BRANCH   6  11
ATOM     11  O   UNL     1      34.823 -13.986 -23.921  0.00  0.00    -0.453 OA
BRANCH  11  13
ATOM     12 CL   UNL     1      32.156 -14.672 -19.622  0.00  0.00    -0.082 Cl
ATOM     13  C   UNL     1      33.899 -13.490 -23.023  0.00  0.00    +0.147 C 
ATOM     14  C   UNL     1      33.327 -12.235 -23.233  0.00  0.00    +0.048 C 
ATOM     15  C   UNL     1      33.536 -14.243 -21.907  0.00  0.00    +0.049 C 
ATOM     16  C   UNL     1      32.393 -11.733 -22.326  0.00  0.00    +0.072 C 
ATOM     17  C   UNL     1      32.602 -13.742 -20.999  0.00  0.00    +0.061 C 
ATOM     18  C   UNL     1      32.030 -12.487 -21.209  0.00  0.00    +0.022 C 
BRANCH  16  20
ATOM     19  N   UNL     1      31.332  -9.404 -22.716  0.00  0.00    -0.191 NA
ATOM     20  C   UNL     1      31.808 -10.447 -22.541  0.00  0.00    +0.101 C 
ENDBRANCH  16  20
ENDBRANCH  11  13
ENDBRANCH   6  11
BRANCH   2  21
ATOM     21  C   UNL     1      35.708 -19.739 -22.409  0.00  0.00    +0.159 C 
BRANCH  21  25
ATOM     22  N   UNL     1      33.362 -20.132 -21.592  0.00  0.00    -0.230 N 
ATOM     23  N   UNL     1      32.602 -20.730 -20.650  0.00  0.00    -0.128 NA
ATOM     24  N   UNL     1      33.259 -22.095 -18.755  0.00  0.00    -0.192 NA
ATOM     25  C   UNL     1      34.707 -20.331 -21.448  0.00  0.00    +0.071 C 
ATOM     26  C   UNL     1      34.827 -21.114 -20.333  0.00  0.00    +0.058 C 
ATOM     27  C   UNL     1      33.497 -21.341 -19.865  0.00  0.00    +0.049 C 
ATOM     28  C   UNL     1      36.014 -21.581 -19.789  0.00  0.00    +0.065 C 
ATOM     29  C   UNL     1      35.748 -22.351 -18.651  0.00  0.00    +0.001 C 
ATOM     30  C   UNL     1      34.423 -22.565 -18.202  0.00  0.00    +0.105 C 
ATOM     31  H   UNL     1      32.978 -19.595 -22.322  0.00  0.00    +0.175 HD
ENDBRANCH  21  25
ENDBRANCH   2  21
TORSDOF 5
ENDMDL
MODEL 3
REMARK VINA RESULT:     -10.8      2.012      3.257
REMARK  Name = 24988948
REMARK  5 active torsions:
REMARK  status: ('A' for Active; 'I' for Inactive)
REMARK    1  A    between atoms: N_2  and  C_21
REMARK    2  A    between atoms: C_6  and  O_11
REMARK    3  A    between atoms: O_11  and  C_13
REMARK    4  A    between atoms: C_16  and  C_20
REMARK    5  A    between atoms: C_21  and  C_25
REMARK                            x       y       z     vdW  Elec       q    Type
REMARK                         _______ _______ _______ _____ _____    ______ ____
ROOT
ATOM      1 CL   UNL     1      33.280 -12.341 -27.069  0.00  0.00    -0.079 Cl
ATOM      2  N   UNL     1      34.944 -16.736 -23.628  0.00  0.00    -0.205 N 
ATOM      3  N   UNL     1      35.443 -16.129 -22.538  0.00  0.00    -0.176 NA
ATOM      4  C   UNL     1      34.486 -15.875 -24.589  0.00  0.00    +0.074 C 
ATOM      5  C   UNL     1      34.706 -14.602 -24.076  0.00  0.00    +0.071 C 
ATOM      6  C   UNL     1      34.337 -13.480 -24.836  0.00  0.00    +0.158 C 
ATOM      7  C   UNL     1      35.296 -14.830 -22.814  0.00  0.00    +0.122 C 
ATOM      8  C   UNL     1      33.908 -16.102 -25.840  0.00  0.00    +0.017 C 
ATOM      9  C   UNL     1      33.755 -13.686 -26.093  0.00  0.00    +0.092 C 
ATOM     10  C   UNL     1      33.545 -14.975 -26.585  0.00  0.00    +0.016 C 
ENDROOT
BRANCH   6  11
ATOM     11  O   UNL     1      34.543 -12.215 -24.354  0.00  0.00    -0.453 OA
BRANCH  11  13
ATOM     12 CL   UNL     1      31.445 -12.791 -20.338  0.00  0.00    -0.082 Cl
ATOM     13  C   UNL     1      33.565 -11.677 -23.541  0.00  0.00    +0.147 C 
ATOM     14  C   UNL     1      33.083 -10.391 -23.788  0.00  0.00    +0.048 C 
ATOM     15  C   UNL     1      33.058 -12.419 -22.475  0.00  0.00    +0.049 C 
ATOM     16  C   UNL     1      32.095  -9.848 -22.968  0.00  0.00    +0.072 C 
ATOM     17  C   UNL     1      32.070 -11.875 -21.654  0.00  0.00    +0.061 C 
ATOM     18  C   UNL     1      31.588 -10.590 -21.901  0.00  0.00    +0.022 C 
BRANCH  16  20
ATOM     19  N   UNL     1      31.203  -7.461 -23.425  0.00  0.00    -0.191 NA
ATOM     20  C   UNL     1      31.603  -8.530 -23.221  0.00  0.00    +0.101 C 
ENDBRANCH  16  20
ENDBRANCH  11  13
ENDBRANCH   6  11
BRANCH   2  21
ATOM     21  C   UNL     1      34.937 -18.179 -23.687  0.00  0.00    +0.159 C 
BRANCH  21  25
ATOM     22  N   UNL     1      37.062 -18.579 -22.401  0.00  0.00    -0.230 N 
ATOM     23  N   UNL     1      37.622 -19.235 -21.363  0.00  0.00    -0.128 NA
ATOM     24  N   UNL     1      36.627 -20.776 -19.776  0.00  0.00    -0.192 NA
ATOM     25  C   UNL     1      35.729 -18.826 -22.578  0.00  0.00    +0.071 C 
ATOM     26  C   UNL     1      35.402 -19.706 -21.583  0.00  0.00    +0.058 C 
ATOM     27  C   UNL     1      36.605 -19.936 -20.849  0.00  0.00    +0.049 C 
ATOM     28  C   UNL     1      34.147 -20.250 -21.355  0.00  0.00    +0.065 C 
ATOM     29  C   UNL     1      34.191 -21.108 -20.251  0.00  0.00    +0.001 C 
ATOM     30  C   UNL     1      35.393 -21.324 -19.535  0.00  0.00    +0.105 C 
ATOM     31  H   UNL     1      37.573 -17.971 -22.984  0.00  0.00    +0.175 HD
ENDBRANCH  21  25
ENDBRANCH   2  21
TORSDOF 5
ENDMDL
MODEL 4
REMARK VINA RESULT:     -10.7      4.512      7.072
REMARK  Name = 24988948
REMARK  5 active torsions:
REMARK  status: ('A' for Active; 'I' for Inactive)
REMARK    1  A    between atoms: N_2  and  C_21
REMARK    2  A    between atoms: C_6  and  O_11
REMARK    3  A    between atoms: O_11  and  C_13
REMARK    4  A    between atoms: C_16  and  C_20
REMARK    5  A    between atoms: C_21  and  C_25
REMARK                            x       y       z     vdW  Elec       q    Type
REMARK                         _______ _______ _______ _____ _____    ______ ____
ROOT
ATOM      1 CL   UNL     1      30.437 -11.078 -19.890  0.00  0.00    -0.079 Cl
ATOM      2  N   UNL     1      34.374 -13.415 -23.489  0.00  0.00    -0.205 N 
ATOM      3  N   UNL     1      34.315 -12.642 -24.587  0.00  0.00    -0.176 NA
ATOM      4  C   UNL     1      33.514 -13.040 -22.493  0.00  0.00    +0.074 C 
ATOM      5  C   UNL     1      32.841 -11.930 -22.989  0.00  0.00    +0.071 C 
ATOM      6  C   UNL     1      31.872 -11.299 -22.190  0.00  0.00    +0.158 C 
ATOM      7  C   UNL     1      33.381 -11.739 -24.278  0.00  0.00    +0.122 C 
ATOM      8  C   UNL     1      33.275 -13.572 -21.224  0.00  0.00    +0.017 C 
ATOM      9  C   UNL     1      31.617 -11.817 -20.914  0.00  0.00    +0.092 C 
ATOM     10  C   UNL     1      32.307 -12.933 -20.441  0.00  0.00    +0.016 C 
ENDROOT
BRANCH   6  11
ATOM     11  O   UNL     1      31.194 -10.204 -22.654  0.00  0.00    -0.453 OA
BRANCH  11  13
ATOM     12 CL   UNL     1      33.457  -6.660 -19.759  0.00  0.00    -0.082 Cl
ATOM     13  C   UNL     1      31.835  -8.983 -22.583  0.00  0.00    +0.147 C 
ATOM     14  C   UNL     1      32.044  -8.236 -23.742  0.00  0.00    +0.048 C 
ATOM     15  C   UNL     1      32.271  -8.494 -21.351  0.00  0.00    +0.049 C 
ATOM     16  C   UNL     1      32.690  -7.002 -23.670  0.00  0.00    +0.072 C 
ATOM     17  C   UNL     1      32.918  -7.261 -21.278  0.00  0.00    +0.061 C 
ATOM     18  C   UNL     1      33.127  -6.514 -22.438  0.00  0.00    +0.022 C 
BRANCH  16  20
ATOM     19  N   UNL     1      33.081  -5.618 -25.823  0.00  0.00    -0.191 NA
ATOM     20  C   UNL     1      32.905  -6.238 -24.859  0.00  0.00    +0.101 C 
ENDBRANCH  16  20
ENDBRANCH  11  13
ENDBRANCH   6  11
BRANCH   2  21
ATOM     21  C   UNL     1      35.299 -14.524 -23.460  0.00  0.00    +0.159 C 
BRANCH  21  25
ATOM     22  N   UNL     1      34.148 -15.537 -25.454  0.00  0.00    -0.230 N 
ATOM     23  N   UNL     1      33.822 -16.688 -26.080  0.00  0.00    -0.128 NA
ATOM     24  N   UNL     1      34.289 -18.985 -25.456  0.00  0.00    -0.192 NA
ATOM     25  C   UNL     1      34.849 -15.700 -24.292  0.00  0.00    +0.071 C 
ATOM     26  C   UNL     1      34.987 -17.053 -24.154  0.00  0.00    +0.058 C 
ATOM     27  C   UNL     1      34.336 -17.633 -25.285  0.00  0.00    +0.049 C 
ATOM     28  C   UNL     1      35.635 -17.705 -23.116  0.00  0.00    +0.065 C 
ATOM     29  C   UNL     1      35.576 -19.090 -23.310  0.00  0.00    +0.001 C 
ATOM     30  C   UNL     1      34.926 -19.647 -24.437  0.00  0.00    +0.105 C 
ATOM     31  H   UNL     1      33.900 -14.652 -25.807  0.00  0.00    +0.175 HD
ENDBRANCH  21  25
ENDBRANCH   2  21
TORSDOF 5
ENDMDL
MODEL 5
REMARK VINA RESULT:     -10.5      5.071      8.895
REMARK  Name = 24988948
REMARK  5 active torsions:
REMARK  status: ('A' for Active; 'I' for Inactive)
REMARK    1  A    between atoms: N_2  and  C_21
REMARK    2  A    between atoms: C_6  and  O_11
REMARK    3  A    between atoms: O_11  and  C_13
REMARK    4  A    between atoms: C_16  and  C_20
REMARK    5  A    between atoms: C_21  and  C_25
REMARK                            x       y       z     vdW  Elec       q    Type
REMARK                         _______ _______ _______ _____ _____    ______ ____
ROOT
ATOM      1 CL   UNL     1      32.134  -7.271 -21.013  0.00  0.00    -0.079 Cl
ATOM      2  N   UNL     1      34.031 -11.405 -24.649  0.00  0.00    -0.205 N 
ATOM      3  N   UNL     1      35.103 -10.853 -25.244  0.00  0.00    -0.176 NA
ATOM      4  C   UNL     1      33.415 -10.591 -23.737  0.00  0.00    +0.074 C 
ATOM      5  C   UNL     1      34.151  -9.413 -23.742  0.00  0.00    +0.071 C 
ATOM      6  C   UNL     1      33.767  -8.358 -22.896  0.00  0.00    +0.158 C 
ATOM      7  C   UNL     1      35.173  -9.641 -24.688  0.00  0.00    +0.122 C 
ATOM      8  C   UNL     1      32.296 -10.788 -22.925  0.00  0.00    +0.017 C 
ATOM      9  C   UNL     1      32.648  -8.534 -22.073  0.00  0.00    +0.092 C 
ATOM     10  C   UNL     1      31.926  -9.729 -22.089  0.00  0.00    +0.016 C 
ENDROOT
BRANCH   6  11
ATOM     11  O   UNL     1      34.474  -7.186 -22.881  0.00  0.00    -0.453 OA
BRANCH  11  13
ATOM     12 CL   UNL     1      35.617  -4.885 -27.293  0.00  0.00    -0.082 Cl
ATOM     13  C   UNL     1      34.147  -6.234 -23.827  0.00  0.00    +0.147 C 
ATOM     14  C   UNL     1      33.009  -5.445 -23.656  0.00  0.00    +0.048 C 
ATOM     15  C   UNL     1      34.953  -6.060 -24.951  0.00  0.00    +0.049 C 
ATOM     16  C   UNL     1      32.678  -4.483 -24.609  0.00  0.00    +0.072 C 
ATOM     17  C   UNL     1      34.622  -5.098 -25.906  0.00  0.00    +0.061 C 
ATOM     18  C   UNL     1      33.485  -4.309 -25.735  0.00  0.00    +0.022 C 
BRANCH  16  20
ATOM     19  N   UNL     1      30.565  -3.020 -24.293  0.00  0.00    -0.191 NA
ATOM     20  C   UNL     1      31.512  -3.675 -24.435  0.00  0.00    +0.101 C 
ENDBRANCH  16  20
ENDBRANCH  11  13
ENDBRANCH   6  11
BRANCH   2  21
ATOM     21  C   UNL     1      33.642 -12.749 -25.010  0.00  0.00    +0.159 C 
BRANCH  21  25
ATOM     22  N   UNL     1      34.525 -13.542 -22.793  0.00  0.00    -0.230 N 
ATOM     23  N   UNL     1      35.034 -14.593 -22.114  0.00  0.00    -0.128 NA
ATOM     24  N   UNL     1      35.483 -16.857 -22.859  0.00  0.00    -0.192 NA
ATOM     25  C   UNL     1      34.220 -13.803 -24.100  0.00  0.00    +0.071 C 
ATOM     26  C   UNL     1      34.554 -15.117 -24.281  0.00  0.00    +0.058 C 
ATOM     27  C   UNL     1      35.056 -15.573 -23.024  0.00  0.00    +0.049 C 
ATOM     28  C   UNL     1      34.422 -15.838 -25.459  0.00  0.00    +0.065 C 
ATOM     29  C   UNL     1      34.865 -17.151 -25.268  0.00  0.00    +0.001 C 
ATOM     30  C   UNL     1      35.359 -17.586 -24.015  0.00  0.00    +0.105 C 
ATOM     31  H   UNL     1      34.387 -12.660 -22.380  0.00  0.00    +0.175 HD
ENDBRANCH  21  25
ENDBRANCH   2  21
TORSDOF 5
ENDMDL
MODEL 6
REMARK VINA RESULT:     -10.5      6.290     12.727
REMARK  Name = 24988948
REMARK  5 active torsions:
REMARK  status: ('A' for Active; 'I' for Inactive)
REMARK    1  A    between atoms: N_2  and  C_21
REMARK    2  A    between atoms: C_6  and  O_11
REMARK    3  A    between atoms: O_11  and  C_13
REMARK    4  A    between atoms: C_16  and  C_20
REMARK    5  A    between atoms: C_21  and  C_25
REMARK                            x       y       z     vdW  Elec       q    Type
REMARK                         _______ _______ _______ _____ _____    ______ ____
ROOT
ATOM      1 CL   UNL     1      31.486 -11.540 -18.754  0.00  0.00    -0.079 Cl
ATOM      2  N   UNL     1      32.998  -7.684 -22.849  0.00  0.00    -0.205 N 
ATOM      3  N   UNL     1      32.752  -8.321 -24.007  0.00  0.00    -0.176 NA
ATOM      4  C   UNL     1      32.709  -8.421 -21.732  0.00  0.00    +0.074 C 
ATOM      5  C   UNL     1      32.236  -9.638 -22.208  0.00  0.00    +0.071 C 
ATOM      6  C   UNL     1      31.848 -10.631 -21.292  0.00  0.00    +0.158 C 
ATOM      7  C   UNL     1      32.288  -9.509 -23.612  0.00  0.00    +0.122 C 
ATOM      8  C   UNL     1      32.822  -8.126 -20.371  0.00  0.00    +0.017 C 
ATOM      9  C   UNL     1      31.952 -10.356 -19.923  0.00  0.00    +0.092 C 
ATOM     10  C   UNL     1      32.431  -9.125 -19.472  0.00  0.00    +0.016 C 
ENDROOT
BRANCH   6  11
ATOM     11  O   UNL     1      31.379 -11.838 -21.734  0.00  0.00    -0.453 OA
BRANCH  11  13
ATOM     12 CL   UNL     1      34.947 -15.295 -20.558  0.00  0.00    -0.082 Cl
ATOM     13  C   UNL     1      32.309 -12.759 -22.174  0.00  0.00    +0.147 C 
ATOM     14  C   UNL     1      32.489 -12.969 -23.541  0.00  0.00    +0.048 C 
ATOM     15  C   UNL     1      33.070 -13.478 -21.252  0.00  0.00    +0.049 C 
ATOM     16  C   UNL     1      33.429 -13.899 -23.986  0.00  0.00    +0.072 C 
ATOM     17  C   UNL     1      34.010 -14.408 -21.696  0.00  0.00    +0.061 C 
ATOM     18  C   UNL     1      34.190 -14.618 -23.064  0.00  0.00    +0.022 C 
BRANCH  16  20
ATOM     19  N   UNL     1      33.761 -14.291 -26.523  0.00  0.00    -0.191 NA
ATOM     20  C   UNL     1      33.612 -14.115 -25.387  0.00  0.00    +0.101 C 
ENDBRANCH  16  20
ENDBRANCH  11  13
ENDBRANCH   6  11
BRANCH   2  21
ATOM     21  C   UNL     1      33.522  -6.338 -22.885  0.00  0.00    +0.159 C 
BRANCH  21  25
ATOM     22  N   UNL     1      31.424  -5.109 -22.241  0.00  0.00    -0.230 N 
ATOM     23  N   UNL     1      30.562  -4.130 -22.589  0.00  0.00    -0.128 NA
ATOM     24  N   UNL     1      30.578  -2.653 -24.513  0.00  0.00    -0.192 NA
ATOM     25  C   UNL     1      32.462  -5.290 -23.113  0.00  0.00    +0.071 C 
ATOM     26  C   UNL     1      32.258  -4.361 -24.095  0.00  0.00    +0.058 C 
ATOM     27  C   UNL     1      31.068  -3.659 -23.734  0.00  0.00    +0.049 C 
ATOM     28  C   UNL     1      33.062  -4.161 -25.208  0.00  0.00    +0.065 C 
ATOM     29  C   UNL     1      32.542  -3.126 -25.993  0.00  0.00    +0.001 C 
ATOM     30  C   UNL     1      31.361  -2.441 -25.619  0.00  0.00    +0.105 C 
ATOM     31  H   UNL     1      31.313  -5.650 -21.426  0.00  0.00    +0.175 HD
ENDBRANCH  21  25
ENDBRANCH   2  21
TORSDOF 5
ENDMDL
MODEL 7
REMARK VINA RESULT:     -10.3      5.076      8.830
REMARK  Name = 24988948
REMARK  5 active torsions:
REMARK  status: ('A' for Active; 'I' for Inactive)
REMARK    1  A    between atoms: N_2  and  C_21
REMARK    2  A    between atoms: C_6  and  O_11
REMARK    3  A    between atoms: O_11  and  C_13
REMARK    4  A    between atoms: C_16  and  C_20
REMARK    5  A    between atoms: C_21  and  C_25
REMARK                            x       y       z     vdW  Elec       q    Type
REMARK                         _______ _______ _______ _____ _____    ______ ____
ROOT
ATOM      1 CL   UNL     1      32.158  -7.339 -20.957  0.00  0.00    -0.079 Cl
ATOM      2  N   UNL     1      34.037 -11.404 -24.681  0.00  0.00    -0.205 N 
ATOM      3  N   UNL     1      35.094 -10.833 -25.285  0.00  0.00    -0.176 NA
ATOM      4  C   UNL     1      33.428 -10.609 -23.747  0.00  0.00    +0.074 C 
ATOM      5  C   UNL     1      34.152  -9.423 -23.748  0.00  0.00    +0.071 C 
ATOM      6  C   UNL     1      33.772  -8.384 -22.882  0.00  0.00    +0.158 C 
ATOM      7  C   UNL     1      35.160  -9.627 -24.714  0.00  0.00    +0.122 C 
ATOM      8  C   UNL     1      32.324 -10.828 -22.920  0.00  0.00    +0.017 C 
ATOM      9  C   UNL     1      32.668  -8.583 -22.043  0.00  0.00    +0.092 C 
ATOM     10  C   UNL     1      31.958  -9.784 -22.064  0.00  0.00    +0.016 C 
ENDROOT
BRANCH   6  11
ATOM     11  O   UNL     1      34.467  -7.205 -22.862  0.00  0.00    -0.453 OA
BRANCH  11  13
ATOM     12 CL   UNL     1      31.174  -3.594 -24.338  0.00  0.00    -0.082 Cl
ATOM     13  C   UNL     1      34.119  -6.246 -23.792  0.00  0.00    +0.147 C 
ATOM     14  C   UNL     1      34.927  -6.031 -24.909  0.00  0.00    +0.048 C 
ATOM     15  C   UNL     1      32.958  -5.493 -23.617  0.00  0.00    +0.049 C 
ATOM     16  C   UNL     1      34.575  -5.063 -25.849  0.00  0.00    +0.072 C 
ATOM     17  C   UNL     1      32.606  -4.524 -24.556  0.00  0.00    +0.061 C 
ATOM     18  C   UNL     1      33.414  -4.309 -25.673  0.00  0.00    +0.022 C 
BRANCH  16  20
ATOM     19  N   UNL     1      36.076  -4.663 -27.920  0.00  0.00    -0.191 NA
ATOM     20  C   UNL     1      35.404  -4.842 -26.992  0.00  0.00    +0.101 C 
ENDBRANCH  16  20
ENDBRANCH  11  13
ENDBRANCH   6  11
BRANCH   2  21
ATOM     21  C   UNL     1      33.655 -12.746 -25.054  0.00  0.00    +0.159 C 
BRANCH  21  25
ATOM     22  N   UNL     1      34.501 -13.549 -22.825  0.00  0.00    -0.230 N 
ATOM     23  N   UNL     1      34.999 -14.601 -22.142  0.00  0.00    -0.128 NA
ATOM     24  N   UNL     1      35.463 -16.862 -22.889  0.00  0.00    -0.192 NA
ATOM     25  C   UNL     1      34.219 -13.804 -24.139  0.00  0.00    +0.071 C 
ATOM     26  C   UNL     1      34.558 -15.117 -24.319  0.00  0.00    +0.058 C 
ATOM     27  C   UNL     1      35.038 -15.578 -23.056  0.00  0.00    +0.049 C 
ATOM     28  C   UNL     1      34.446 -15.832 -25.502  0.00  0.00    +0.065 C 
ATOM     29  C   UNL     1      34.888 -17.146 -25.310  0.00  0.00    +0.001 C 
ATOM     30  C   UNL     1      35.360 -17.586 -24.050  0.00  0.00    +0.105 C 
ATOM     31  H   UNL     1      34.354 -12.668 -22.411  0.00  0.00    +0.175 HD
ENDBRANCH  21  25
ENDBRANCH   2  21
TORSDOF 5
ENDMDL
MODEL 8
REMARK VINA RESULT:     -10.3      4.763     10.589
REMARK  Name = 24988948
REMARK  5 active torsions:
REMARK  status: ('A' for Active; 'I' for Inactive)
REMARK    1  A    between atoms: N_2  and  C_21
REMARK    2  A    between atoms: C_6  and  O_11
REMARK    3  A    between atoms: O_11  and  C_13
REMARK    4  A    between atoms: C_16  and  C_20
REMARK    5  A    between atoms: C_21  and  C_25
REMARK                            x       y       z     vdW  Elec       q    Type
REMARK                         _______ _______ _______ _____ _____    ______ ____
ROOT
ATOM      1 CL   UNL     1      33.586 -23.925 -15.147  0.00  0.00    -0.079 Cl
ATOM      2  N   UNL     1      35.968 -21.385 -19.815  0.00  0.00    -0.205 N 
ATOM      3  N   UNL     1      37.109 -20.848 -19.350  0.00  0.00    -0.176 NA
ATOM      4  C   UNL     1      35.232 -22.044 -18.867  0.00  0.00    +0.074 C 
ATOM      5  C   UNL     1      35.960 -21.923 -17.689  0.00  0.00    +0.071 C 
ATOM      6  C   UNL     1      35.462 -22.504 -16.510  0.00  0.00    +0.158 C 
ATOM      7  C   UNL     1      37.101 -21.178 -18.056  0.00  0.00    +0.122 C 
ATOM      8  C   UNL     1      34.014 -22.722 -18.944  0.00  0.00    +0.017 C 
ATOM      9  C   UNL     1      34.242 -23.189 -16.566  0.00  0.00    +0.092 C 
ATOM     10  C   UNL     1      33.532 -23.295 -17.762  0.00  0.00    +0.016 C 
ENDROOT
BRANCH   6  11
ATOM     11  O   UNL     1      36.158 -22.400 -15.336  0.00  0.00    -0.453 OA
BRANCH  11  13
ATOM     12 CL   UNL     1      38.028 -27.150 -15.352  0.00  0.00    -0.082 Cl
ATOM     13  C   UNL     1      36.404 -23.565 -14.637  0.00  0.00    +0.147 C 
ATOM     14  C   UNL     1      36.036 -23.664 -13.295  0.00  0.00    +0.048 C 
ATOM     15  C   UNL     1      37.019 -24.643 -15.273  0.00  0.00    +0.049 C 
ATOM     16  C   UNL     1      36.284 -24.841 -12.589  0.00  0.00    +0.072 C 
ATOM     17  C   UNL     1      37.268 -25.821 -14.567  0.00  0.00    +0.061 C 
ATOM     18  C   UNL     1      36.900 -25.920 -13.225  0.00  0.00    +0.022 C 
BRANCH  16  20
ATOM     19  N   UNL     1      35.602 -25.024 -10.099  0.00  0.00    -0.191 NA
ATOM     20  C   UNL     1      35.908 -24.941 -11.214  0.00  0.00    +0.101 C 
ENDBRANCH  16  20
ENDBRANCH  11  13
ENDBRANCH   6  11
BRANCH   2  21
ATOM     21  C   UNL     1      35.634 -21.225 -21.211  0.00  0.00    +0.159 C 
BRANCH  21  25
ATOM     22  N   UNL     1      36.028 -18.769 -20.840  0.00  0.00    -0.230 N 
ATOM     23  N   UNL     1      35.979 -17.541 -21.400  0.00  0.00    -0.128 NA
ATOM     24  N   UNL     1      35.317 -16.877 -23.637  0.00  0.00    -0.192 NA
ATOM     25  C   UNL     1      35.642 -19.787 -21.667  0.00  0.00    +0.071 C 
ATOM     26  C   UNL     1      35.322 -19.176 -22.847  0.00  0.00    +0.058 C 
ATOM     27  C   UNL     1      35.544 -17.780 -22.643  0.00  0.00    +0.049 C 
ATOM     28  C   UNL     1      34.873 -19.809 -23.998  0.00  0.00    +0.065 C 
ATOM     29  C   UNL     1      34.646 -18.864 -25.004  0.00  0.00    +0.001 C 
ATOM     30  C   UNL     1      34.872 -17.484 -24.784  0.00  0.00    +0.105 C 
ATOM     31  H   UNL     1      36.316 -18.918 -19.911  0.00  0.00    +0.175 HD
ENDBRANCH  21  25
ENDBRANCH   2  21
TORSDOF 5
ENDMDL
MODEL 9
REMARK VINA RESULT:     -10.2      2.680      4.926
REMARK  Name = 24988948
REMARK  5 active torsions:
REMARK  status: ('A' for Active; 'I' for Inactive)
REMARK    1  A    between atoms: N_2  and  C_21
REMARK    2  A    between atoms: C_6  and  O_11
REMARK    3  A    between atoms: O_11  and  C_13
REMARK    4  A    between atoms: C_16  and  C_20
REMARK    5  A    between atoms: C_21  and  C_25
REMARK                            x       y       z     vdW  Elec       q    Type
REMARK                         _______ _______ _______ _____ _____    ______ ____
ROOT
ATOM      1 CL   UNL     1      32.358 -12.631 -19.908  0.00  0.00    -0.079 Cl
ATOM      2  N   UNL     1      35.146 -15.852 -23.879  0.00  0.00    -0.205 N 
ATOM      3  N   UNL     1      34.727 -15.357 -25.056  0.00  0.00    -0.176 NA
ATOM      4  C   UNL     1      34.606 -15.230 -22.785  0.00  0.00    +0.074 C 
ATOM      5  C   UNL     1      33.765 -14.250 -23.299  0.00  0.00    +0.071 C 
ATOM      6  C   UNL     1      33.050 -13.424 -22.416  0.00  0.00    +0.158 C 
ATOM      7  C   UNL     1      33.887 -14.383 -24.699  0.00  0.00    +0.122 C 
ATOM      8  C   UNL     1      34.781 -15.443 -21.416  0.00  0.00    +0.017 C 
ATOM      9  C   UNL     1      33.211 -13.620 -21.038  0.00  0.00    +0.092 C 
ATOM     10  C   UNL     1      34.062 -14.613 -20.549  0.00  0.00    +0.016 C 
ENDROOT
BRANCH   6  11
ATOM     11  O   UNL     1      32.215 -12.451 -22.895  0.00  0.00    -0.453 OA
BRANCH  11  13
ATOM     12 CL   UNL     1      35.858  -9.591 -25.043  0.00  0.00    -0.082 Cl
ATOM     13  C   UNL     1      32.753 -11.195 -23.098  0.00  0.00    +0.147 C 
ATOM     14  C   UNL     1      32.149 -10.077 -22.522  0.00  0.00    +0.048 C 
ATOM     15  C   UNL     1      33.900 -11.044 -23.876  0.00  0.00    +0.049 C 
ATOM     16  C   UNL     1      32.692  -8.809 -22.725  0.00  0.00    +0.072 C 
ATOM     17  C   UNL     1      34.443  -9.776 -24.081  0.00  0.00    +0.061 C 
ATOM     18  C   UNL     1      33.840  -8.658 -23.505  0.00  0.00    +0.022 C 
BRANCH  16  20
ATOM     19  N   UNL     1      31.571  -6.735 -21.657  0.00  0.00    -0.191 NA
ATOM     20  C   UNL     1      32.073  -7.664 -22.136  0.00  0.00    +0.101 C 
ENDBRANCH  16  20
ENDBRANCH  11  13
ENDBRANCH   6  11
BRANCH   2  21
ATOM     21  C   UNL     1      36.088 -16.947 -23.872  0.00  0.00    +0.159 C 
BRANCH  21  25
ATOM     22  N   UNL     1      34.411 -18.789 -23.524  0.00  0.00    -0.230 N 
ATOM     23  N   UNL     1      34.092 -19.873 -22.784  0.00  0.00    -0.128 NA
ATOM     24  N   UNL     1      35.265 -20.882 -20.916  0.00  0.00    -0.192 NA
ATOM     25  C   UNL     1      35.575 -18.172 -23.157  0.00  0.00    +0.071 C 
ATOM     26  C   UNL     1      36.044 -18.909 -22.104  0.00  0.00    +0.058 C 
ATOM     27  C   UNL     1      35.095 -19.957 -21.902  0.00  0.00    +0.049 C 
ATOM     28  C   UNL     1      37.210 -18.665 -21.394  0.00  0.00    +0.065 C 
ATOM     29  C   UNL     1      37.365 -19.624 -20.387  0.00  0.00    +0.001 C 
ATOM     30  C   UNL     1      36.415 -20.657 -20.201  0.00  0.00    +0.105 C 
ATOM     31  H   UNL     1      33.850 -18.469 -24.267  0.00  0.00    +0.175 HD
ENDBRANCH  21  25
ENDBRANCH   2  21
TORSDOF 5
ENDMDL
