MODEL 1
REMARK VINA RESULT:     -12.1      0.000      0.000
REMARK  Name = 42611257
REMARK  7 active torsions:
REMARK  status: ('A' for Active; 'I' for Inactive)
REMARK    1  A    between atoms: C_2  and  C_6
REMARK    2  A    between atoms: C_2  and  C_22
REMARK    3  A    between atoms: C_10  and  C_14
REMARK    4  A    between atoms: C_23  and  N_28
REMARK    5  A    between atoms: N_28  and  S_30
REMARK    6  A    between atoms: S_30  and  C_33
REMARK    7  A    between atoms: C_33  and  C_34
REMARK                            x       y       z     vdW  Elec       q    Type
REMARK                         _______ _______ _______ _____ _____    ______ ____
ROOT
ATOM      1  O   UNL     1      34.198 -12.399 -24.797  0.00  0.00    -0.286 OA
ATOM      2  C   UNL     1      33.852 -13.311 -24.016  0.00  0.00    +0.201 C 
ENDROOT
BRANCH   2   6
ATOM      3  N   UNL     1      32.207 -13.317 -20.806  0.00  0.00    -0.297 N 
ATOM      4  N   UNL     1      31.518 -11.067 -20.292  0.00  0.00    -0.229 NA
ATOM      5  C   UNL     1      32.694 -11.759 -22.329  0.00  0.00    +0.036 C 
ATOM      6  C   UNL     1      33.168 -13.016 -22.790  0.00  0.00    +0.056 C 
ATOM      7  C   UNL     1      32.100 -11.982 -21.090  0.00  0.00    +0.132 C 
ATOM      8  C   UNL     1      32.695 -10.442 -22.818  0.00  0.00    +0.004 C 
ATOM      9  C   UNL     1      32.854 -13.956 -21.832  0.00  0.00    +0.066 C 
ATOM     10  C   UNL     1      32.105  -9.456 -22.031  0.00  0.00    +0.019 C 
ATOM     11  C   UNL     1      31.548  -9.819 -20.811  0.00  0.00    +0.100 C 
ATOM     12  H   UNL     1      31.870 -13.752 -19.989  0.00  0.00    +0.154 HD
BRANCH  10  14
ATOM     13 CL   UNL     1      31.975  -3.790 -23.863  0.00  0.00    -0.082 Cl
ATOM     14  C   UNL     1      32.074  -8.082 -22.477  0.00  0.00    +0.002 C 
ATOM     15  C   UNL     1      31.657  -7.776 -23.772  0.00  0.00    +0.001 C 
ATOM     16  C   UNL     1      32.462  -7.060 -21.610  0.00  0.00    +0.001 C 
ATOM     17  C   UNL     1      31.626  -6.449 -24.201  0.00  0.00    +0.011 C 
ATOM     18  C   UNL     1      32.432  -5.733 -22.038  0.00  0.00    +0.011 C 
ATOM     19  C   UNL     1      32.014  -5.427 -23.334  0.00  0.00    +0.058 C 
ENDBRANCH  10  14
ENDBRANCH   2   6
BRANCH   2  22
ATOM     20  F   UNL     1      35.680 -14.937 -22.607  0.00  0.00    -0.203 F 
ATOM     21  F   UNL     1      32.732 -14.547 -26.306  0.00  0.00    -0.204 F 
ATOM     22  C   UNL     1      34.199 -14.711 -24.445  0.00  0.00    +0.095 C 
ATOM     23  C   UNL     1      35.435 -16.759 -24.101  0.00  0.00    +0.092 C 
ATOM     24  C   UNL     1      35.112 -15.461 -23.703  0.00  0.00    +0.160 C 
ATOM     25  C   UNL     1      33.610 -15.259 -25.585  0.00  0.00    +0.145 C 
ATOM     26  C   UNL     1      34.844 -17.306 -25.241  0.00  0.00    +0.020 C 
ATOM     27  C   UNL     1      33.932 -16.556 -25.982  0.00  0.00    +0.031 C 
BRANCH  23  28
ATOM     28  N   UNL     1      36.368 -17.529 -23.343  0.00  0.00    -0.217 N 
ATOM     29  H   UNL     1      37.255 -17.752 -23.709  0.00  0.00    +0.173 HD
BRANCH  28  30
ATOM     30  S   UNL     1      35.900 -18.058 -21.773  0.00  0.00    +0.054 S 
ATOM     31  O   UNL     1      37.080 -18.543 -21.081  0.00  0.00    -0.154 OA
ATOM     32  O   UNL     1      35.020 -17.095 -21.142  0.00  0.00    -0.154 OA
BRANCH  30  33
ATOM     33  C   UNL     1      34.929 -19.486 -22.199  0.00  0.00    +0.172 C 
BRANCH  33  34
ATOM     34  C   UNL     1      34.698 -20.379 -20.991  0.00  0.00    +0.027 C 
ATOM     35  C   UNL     1      33.220 -20.494 -20.660  0.00  0.00    +0.002 C 
ENDBRANCH  33  34
ENDBRANCH  30  33
ENDBRANCH  28  30
ENDBRANCH  23  28
ENDBRANCH   2  22
TORSDOF 7
ENDMDL
MODEL 2
REMARK VINA RESULT:     -12.0      4.688     10.045
REMARK  Name = 42611257
REMARK  7 active torsions:
REMARK  status: ('A' for Active; 'I' for Inactive)
REMARK    1  A    between atoms: C_2  and  C_6
REMARK    2  A    between atoms: C_2  and  C_22
REMARK    3  A    between atoms: C_10  and  C_14
REMARK    4  A    between atoms: C_23  and  N_28
REMARK    5  A    between atoms: N_28  and  S_30
REMARK    6  A    between atoms: S_30  and  C_33
REMARK    7  A    between atoms: C_33  and  C_34
REMARK                            x       y       z     vdW  Elec       q    Type
REMARK                         _______ _______ _______ _____ _____    ______ ____
ROOT
ATOM      1  O   UNL     1      35.338 -13.052 -22.443  0.00  0.00    -0.286 OA
ATOM      2  C   UNL     1      34.335 -13.111 -23.187  0.00  0.00    +0.201 C 
ENDROOT
BRANCH   2   6
ATOM      3  N   UNL     1      33.865 -15.023 -26.210  0.00  0.00    -0.297 N 
ATOM      4  N   UNL     1      34.398 -17.326 -25.752  0.00  0.00    -0.229 NA
ATOM      5  C   UNL     1      34.509 -15.496 -24.125  0.00  0.00    +0.036 C 
ATOM      6  C   UNL     1      34.237 -14.106 -24.217  0.00  0.00    +0.056 C 
ATOM      7  C   UNL     1      34.267 -16.038 -25.384  0.00  0.00    +0.132 C 
ATOM      8  C   UNL     1      34.935 -16.373 -23.114  0.00  0.00    +0.004 C 
ATOM      9  C   UNL     1      33.842 -13.843 -25.512  0.00  0.00    +0.066 C 
ATOM     10  C   UNL     1      35.086 -17.719 -23.443  0.00  0.00    +0.019 C 
ATOM     11  C   UNL     1      34.811 -18.125 -24.742  0.00  0.00    +0.100 C 
ATOM     12  H   UNL     1      33.629 -15.124 -27.161  0.00  0.00    +0.154 HD
BRANCH  10  14
ATOM     13 CL   UNL     1      36.893 -21.651 -19.349  0.00  0.00    -0.082 Cl
ATOM     14  C   UNL     1      35.523 -18.672 -22.448  0.00  0.00    +0.002 C 
ATOM     15  C   UNL     1      34.632 -19.626 -21.955  0.00  0.00    +0.001 C 
ATOM     16  C   UNL     1      36.838 -18.639 -21.982  0.00  0.00    +0.001 C 
ATOM     17  C   UNL     1      35.056 -20.547 -20.997  0.00  0.00    +0.011 C 
ATOM     18  C   UNL     1      37.261 -19.559 -21.023  0.00  0.00    +0.011 C 
ATOM     19  C   UNL     1      36.370 -20.514 -20.531  0.00  0.00    +0.058 C 
ENDBRANCH  10  14
ENDBRANCH   2   6
BRANCH   2  22
ATOM     20  F   UNL     1      34.416 -10.507 -24.271  0.00  0.00    -0.203 F 
ATOM     21  F   UNL     1      32.062 -13.624 -21.576  0.00  0.00    -0.204 F 
ATOM     22  C   UNL     1      33.264 -12.087 -22.931  0.00  0.00    +0.095 C 
ATOM     23  C   UNL     1      32.373  -9.865 -23.259  0.00  0.00    +0.092 C 
ATOM     24  C   UNL     1      33.365 -10.816 -23.497  0.00  0.00    +0.160 C 
ATOM     25  C   UNL     1      32.170 -12.406 -22.126  0.00  0.00    +0.145 C 
ATOM     26  C   UNL     1      31.278 -10.185 -22.455  0.00  0.00    +0.020 C 
ATOM     27  C   UNL     1      31.177 -11.455 -21.889  0.00  0.00    +0.031 C 
BRANCH  23  28
ATOM     28  N   UNL     1      32.473  -8.564 -23.838  0.00  0.00    -0.217 N 
ATOM     29  H   UNL     1      32.514  -8.446 -24.815  0.00  0.00    +0.173 HD
BRANCH  28  30
ATOM     30  S   UNL     1      32.521  -7.205 -22.781  0.00  0.00    +0.054 S 
ATOM     31  O   UNL     1      31.157  -6.831 -22.453  0.00  0.00    -0.154 OA
ATOM     32  O   UNL     1      33.504  -7.398 -21.734  0.00  0.00    -0.154 OA
BRANCH  30  33
ATOM     33  C   UNL     1      33.143  -5.964 -23.892  0.00  0.00    +0.172 C 
BRANCH  33  34
ATOM     34  C   UNL     1      34.547  -6.301 -24.369  0.00  0.00    +0.027 C 
ATOM     35  C   UNL     1      34.926  -5.492 -25.597  0.00  0.00    +0.002 C 
ENDBRANCH  33  34
ENDBRANCH  30  33
ENDBRANCH  28  30
ENDBRANCH  23  28
ENDBRANCH   2  22
TORSDOF 7
ENDMDL
MODEL 3
REMARK VINA RESULT:     -12.0      5.685     11.193
REMARK  Name = 42611257
REMARK  7 active torsions:
REMARK  status: ('A' for Active; 'I' for Inactive)
REMARK    1  A    between atoms: C_2  and  C_6
REMARK    2  A    between atoms: C_2  and  C_22
REMARK    3  A    between atoms: C_10  and  C_14
REMARK    4  A    between atoms: C_23  and  N_28
REMARK    5  A    between atoms: N_28  and  S_30
REMARK    6  A    between atoms: S_30  and  C_33
REMARK    7  A    between atoms: C_33  and  C_34
REMARK                            x       y       z     vdW  Elec       q    Type
REMARK                         _______ _______ _______ _____ _____    ______ ____
ROOT
ATOM      1  O   UNL     1      36.776 -19.496 -21.073  0.00  0.00    -0.286 OA
ATOM      2  C   UNL     1      35.620 -19.357 -21.528  0.00  0.00    +0.201 C 
ENDROOT
BRANCH   2   6
ATOM      3  N   UNL     1      32.478 -20.981 -20.816  0.00  0.00    -0.297 N 
ATOM      4  N   UNL     1      32.784 -22.450 -18.932  0.00  0.00    -0.229 NA
ATOM      5  C   UNL     1      34.528 -21.046 -19.931  0.00  0.00    +0.036 C 
ATOM      6  C   UNL     1      34.527 -20.137 -21.022  0.00  0.00    +0.056 C 
ATOM      7  C   UNL     1      33.236 -21.554 -19.829  0.00  0.00    +0.132 C 
ATOM      8  C   UNL     1      35.478 -21.506 -19.004  0.00  0.00    +0.004 C 
ATOM      9  C   UNL     1      33.253 -20.117 -21.547  0.00  0.00    +0.066 C 
ATOM     10  C   UNL     1      35.062 -22.435 -18.053  0.00  0.00    +0.019 C 
ATOM     11  C   UNL     1      33.739 -22.858 -18.066  0.00  0.00    +0.100 C 
ATOM     12  H   UNL     1      31.524 -21.161 -20.975  0.00  0.00    +0.154 HD
BRANCH  10  14
ATOM     13 CL   UNL     1      38.898 -24.552 -14.017  0.00  0.00    -0.082 Cl
ATOM     14  C   UNL     1      35.991 -22.948 -17.072  0.00  0.00    +0.002 C 
ATOM     15  C   UNL     1      35.585 -23.934 -16.174  0.00  0.00    +0.001 C 
ATOM     16  C   UNL     1      37.296 -22.457 -17.026  0.00  0.00    +0.001 C 
ATOM     17  C   UNL     1      36.484 -24.431 -15.229  0.00  0.00    +0.011 C 
ATOM     18  C   UNL     1      38.195 -22.952 -16.082  0.00  0.00    +0.011 C 
ATOM     19  C   UNL     1      37.789 -23.940 -15.183  0.00  0.00    +0.058 C 
ENDBRANCH  10  14
ENDBRANCH   2   6
BRANCH   2  22
ATOM     20  F   UNL     1      35.445 -16.586 -21.021  0.00  0.00    -0.203 F 
ATOM     21  F   UNL     1      35.471 -20.042 -24.272  0.00  0.00    -0.204 F 
ATOM     22  C   UNL     1      35.462 -18.336 -22.621  0.00  0.00    +0.095 C 
ATOM     23  C   UNL     1      35.234 -16.032 -23.314  0.00  0.00    +0.092 C 
ATOM     24  C   UNL     1      35.382 -16.980 -22.301  0.00  0.00    +0.160 C 
ATOM     25  C   UNL     1      35.395 -18.743 -23.953  0.00  0.00    +0.145 C 
ATOM     26  C   UNL     1      35.168 -16.440 -24.647  0.00  0.00    +0.020 C 
ATOM     27  C   UNL     1      35.248 -17.795 -24.966  0.00  0.00    +0.031 C 
BRANCH  23  28
ATOM     28  N   UNL     1      35.152 -14.644 -22.990  0.00  0.00    -0.217 N 
ATOM     29  H   UNL     1      35.776 -14.237 -22.347  0.00  0.00    +0.173 HD
BRANCH  28  30
ATOM     30  S   UNL     1      33.931 -13.702 -23.757  0.00  0.00    +0.054 S 
ATOM     31  O   UNL     1      34.510 -12.426 -24.141  0.00  0.00    -0.154 OA
ATOM     32  O   UNL     1      33.192 -14.494 -24.719  0.00  0.00    -0.154 OA
BRANCH  30  33
ATOM     33  C   UNL     1      32.862 -13.386 -22.372  0.00  0.00    +0.172 C 
BRANCH  33  34
ATOM     34  C   UNL     1      33.523 -13.778 -21.061  0.00  0.00    +0.027 C 
ATOM     35  C   UNL     1      32.563 -14.533 -20.157  0.00  0.00    +0.002 C 
ENDBRANCH  33  34
ENDBRANCH  30  33
ENDBRANCH  28  30
ENDBRANCH  23  28
ENDBRANCH   2  22
TORSDOF 7
ENDMDL
MODEL 4
REMARK VINA RESULT:     -11.9      3.828      6.573
REMARK  Name = 42611257
REMARK  7 active torsions:
REMARK  status: ('A' for Active; 'I' for Inactive)
REMARK    1  A    between atoms: C_2  and  C_6
REMARK    2  A    between atoms: C_2  and  C_22
REMARK    3  A    between atoms: C_10  and  C_14
REMARK    4  A    between atoms: C_23  and  N_28
REMARK    5  A    between atoms: N_28  and  S_30
REMARK    6  A    between atoms: S_30  and  C_33
REMARK    7  A    between atoms: C_33  and  C_34
REMARK                            x       y       z     vdW  Elec       q    Type
REMARK                         _______ _______ _______ _____ _____    ______ ____
ROOT
ATOM      1  O   UNL     1      35.626 -17.248 -21.114  0.00  0.00    -0.286 OA
ATOM      2  C   UNL     1      35.434 -18.264 -21.816  0.00  0.00    +0.201 C 
ENDROOT
BRANCH   2   6
ATOM      3  N   UNL     1      34.743 -18.728 -25.326  0.00  0.00    -0.297 N 
ATOM      4  N   UNL     1      34.139 -16.599 -26.277  0.00  0.00    -0.229 NA
ATOM      5  C   UNL     1      34.730 -16.985 -23.929  0.00  0.00    +0.036 C 
ATOM      6  C   UNL     1      35.105 -18.150 -23.208  0.00  0.00    +0.056 C 
ATOM      7  C   UNL     1      34.512 -17.380 -25.246  0.00  0.00    +0.132 C 
ATOM      8  C   UNL     1      34.548 -15.627 -23.622  0.00  0.00    +0.004 C 
ATOM      9  C   UNL     1      35.104 -19.206 -24.093  0.00  0.00    +0.066 C 
ATOM     10  C   UNL     1      34.163 -14.774 -24.655  0.00  0.00    +0.019 C 
ATOM     11  C   UNL     1      33.978 -15.302 -25.926  0.00  0.00    +0.100 C 
ATOM     12  H   UNL     1      34.661 -19.270 -26.144  0.00  0.00    +0.154 HD
BRANCH  10  14
ATOM     13 CL   UNL     1      33.310  -8.970 -23.623  0.00  0.00    -0.082 Cl
ATOM     14  C   UNL     1      33.957 -13.365 -24.404  0.00  0.00    +0.002 C 
ATOM     15  C   UNL     1      34.450 -12.417 -25.301  0.00  0.00    +0.001 C 
ATOM     16  C   UNL     1      33.265 -12.954 -23.265  0.00  0.00    +0.001 C 
ATOM     17  C   UNL     1      34.249 -11.058 -25.060  0.00  0.00    +0.011 C 
ATOM     18  C   UNL     1      33.065 -11.595 -23.023  0.00  0.00    +0.011 C 
ATOM     19  C   UNL     1      33.557 -10.647 -23.921  0.00  0.00    +0.058 C 
ENDBRANCH  10  14
ENDBRANCH   2   6
BRANCH   2  22
ATOM     20  F   UNL     1      33.222 -19.687 -20.792  0.00  0.00    -0.203 F 
ATOM     21  F   UNL     1      37.926 -19.545 -21.399  0.00  0.00    -0.204 F 
ATOM     22  C   UNL     1      35.569 -19.586 -21.111  0.00  0.00    +0.095 C 
ATOM     23  C   UNL     1      34.558 -21.463 -19.973  0.00  0.00    +0.092 C 
ATOM     24  C   UNL     1      34.434 -20.237 -20.628  0.00  0.00    +0.160 C 
ATOM     25  C   UNL     1      36.829 -20.161 -20.939  0.00  0.00    +0.145 C 
ATOM     26  C   UNL     1      35.819 -22.038 -19.802  0.00  0.00    +0.020 C 
ATOM     27  C   UNL     1      36.953 -21.387 -20.285  0.00  0.00    +0.031 C 
BRANCH  23  28
ATOM     28  N   UNL     1      33.398 -22.132 -19.478  0.00  0.00    -0.217 N 
ATOM     29  H   UNL     1      32.518 -21.998 -19.900  0.00  0.00    +0.173 HD
BRANCH  28  30
ATOM     30  S   UNL     1      33.581 -23.180 -18.124  0.00  0.00    +0.054 S 
ATOM     31  O   UNL     1      33.614 -24.550 -18.605  0.00  0.00    -0.154 OA
ATOM     32  O   UNL     1      34.605 -22.691 -17.224  0.00  0.00    -0.154 OA
BRANCH  30  33
ATOM     33  C   UNL     1      32.004 -22.950 -17.334  0.00  0.00    +0.172 C 
BRANCH  33  34
ATOM     34  C   UNL     1      32.113 -23.103 -15.826  0.00  0.00    +0.027 C 
ATOM     35  C   UNL     1      30.744 -23.105 -15.167  0.00  0.00    +0.002 C 
ENDBRANCH  33  34
ENDBRANCH  30  33
ENDBRANCH  28  30
ENDBRANCH  23  28
ENDBRANCH   2  22
TORSDOF 7
ENDMDL
MODEL 5
REMARK VINA RESULT:     -11.8      4.633     10.318
REMARK  Name = 42611257
REMARK  7 active torsions:
REMARK  status: ('A' for Active; 'I' for Inactive)
REMARK    1  A    between atoms: C_2  and  C_6
REMARK    2  A    between atoms: C_2  and  C_22
REMARK    3  A    between atoms: C_10  and  C_14
REMARK    4  A    between atoms: C_23  and  N_28
REMARK    5  A    between atoms: N_28  and  S_30
REMARK    6  A    between atoms: S_30  and  C_33
REMARK    7  A    between atoms: C_33  and  C_34
REMARK                            x       y       z     vdW  Elec       q    Type
REMARK                         _______ _______ _______ _____ _____    ______ ____
ROOT
ATOM      1  O   UNL     1      35.380 -14.528 -20.747  0.00  0.00    -0.286 OA
ATOM      2  C   UNL     1      34.701 -14.533 -21.796  0.00  0.00    +0.201 C 
ENDROOT
BRANCH   2   6
ATOM      3  N   UNL     1      35.379 -16.325 -24.852  0.00  0.00    -0.297 N 
ATOM      4  N   UNL     1      35.417 -18.684 -24.367  0.00  0.00    -0.229 NA
ATOM      5  C   UNL     1      35.008 -16.906 -22.728  0.00  0.00    +0.036 C 
ATOM      6  C   UNL     1      34.951 -15.491 -22.834  0.00  0.00    +0.056 C 
ATOM      7  C   UNL     1      35.277 -17.395 -24.003  0.00  0.00    +0.132 C 
ATOM      8  C   UNL     1      34.863 -17.844 -21.693  0.00  0.00    +0.004 C 
ATOM      9  C   UNL     1      35.182 -15.163 -24.153  0.00  0.00    +0.066 C 
ATOM     10  C   UNL     1      34.998 -19.193 -22.015  0.00  0.00    +0.019 C 
ATOM     11  C   UNL     1      35.268 -19.543 -23.332  0.00  0.00    +0.100 C 
ATOM     12  H   UNL     1      35.565 -16.382 -25.818  0.00  0.00    +0.154 HD
BRANCH  10  14
ATOM     13 CL   UNL     1      34.432 -23.372 -17.809  0.00  0.00    -0.082 Cl
ATOM     14  C   UNL     1      34.862 -20.208 -20.996  0.00  0.00    +0.002 C 
ATOM     15  C   UNL     1      35.998 -20.785 -20.427  0.00  0.00    +0.001 C 
ATOM     16  C   UNL     1      33.593 -20.611 -20.579  0.00  0.00    +0.001 C 
ATOM     17  C   UNL     1      35.865 -21.763 -19.441  0.00  0.00    +0.011 C 
ATOM     18  C   UNL     1      33.460 -21.590 -19.595  0.00  0.00    +0.011 C 
ATOM     19  C   UNL     1      34.596 -22.165 -19.025  0.00  0.00    +0.058 C 
ENDBRANCH  10  14
ENDBRANCH   2   6
BRANCH   2  22
ATOM     20  F   UNL     1      34.851 -12.343 -23.570  0.00  0.00    -0.203 F 
ATOM     21  F   UNL     1      32.353 -14.578 -20.211  0.00  0.00    -0.204 F 
ATOM     22  C   UNL     1      33.627 -13.483 -21.890  0.00  0.00    +0.095 C 
ATOM     23  C   UNL     1      32.770 -11.450 -22.876  0.00  0.00    +0.092 C 
ATOM     24  C   UNL     1      33.764 -12.425 -22.789  0.00  0.00    +0.160 C 
ATOM     25  C   UNL     1      32.495 -13.566 -21.078  0.00  0.00    +0.145 C 
ATOM     26  C   UNL     1      31.637 -11.535 -22.064  0.00  0.00    +0.020 C 
ATOM     27  C   UNL     1      31.501 -12.592 -21.166  0.00  0.00    +0.031 C 
BRANCH  23  28
ATOM     28  N   UNL     1      32.907 -10.367 -23.795  0.00  0.00    -0.217 N 
ATOM     29  H   UNL     1      33.054 -10.533 -24.755  0.00  0.00    +0.173 HD
BRANCH  28  30
ATOM     30  S   UNL     1      32.806  -8.761 -23.180  0.00  0.00    +0.054 S 
ATOM     31  O   UNL     1      31.748  -8.064 -23.889  0.00  0.00    -0.154 OA
ATOM     32  O   UNL     1      32.850  -8.757 -21.732  0.00  0.00    -0.154 OA
BRANCH  30  33
ATOM     33  C   UNL     1      34.346  -8.101 -23.775  0.00  0.00    +0.172 C 
BRANCH  33  34
ATOM     34  C   UNL     1      34.403  -6.591 -23.609  0.00  0.00    +0.027 C 
ATOM     35  C   UNL     1      34.496  -5.886 -24.951  0.00  0.00    +0.002 C 
ENDBRANCH  33  34
ENDBRANCH  30  33
ENDBRANCH  28  30
ENDBRANCH  23  28
ENDBRANCH   2  22
TORSDOF 7
ENDMDL
MODEL 6
REMARK VINA RESULT:     -11.3      9.734     12.856
REMARK  Name = 42611257
REMARK  7 active torsions:
REMARK  status: ('A' for Active; 'I' for Inactive)
REMARK    1  A    between atoms: C_2  and  C_6
REMARK    2  A    between atoms: C_2  and  C_22
REMARK    3  A    between atoms: C_10  and  C_14
REMARK    4  A    between atoms: C_23  and  N_28
REMARK    5  A    between atoms: N_28  and  S_30
REMARK    6  A    between atoms: S_30  and  C_33
REMARK    7  A    between atoms: C_33  and  C_34
REMARK                            x       y       z     vdW  Elec       q    Type
REMARK                         _______ _______ _______ _____ _____    ______ ____
ROOT
ATOM      1  O   UNL     1      34.862 -25.743 -16.104  0.00  0.00    -0.286 OA
ATOM      2  C   UNL     1      34.784 -24.545 -15.753  0.00  0.00    +0.201 C 
ENDROOT
BRANCH   2   6
ATOM      3  N   UNL     1      37.849 -22.767 -15.079  0.00  0.00    -0.297 N 
ATOM      4  N   UNL     1      38.246 -21.214 -16.875  0.00  0.00    -0.229 NA
ATOM      5  C   UNL     1      36.330 -22.734 -16.715  0.00  0.00    +0.036 C 
ATOM      6  C   UNL     1      35.943 -23.699 -15.747  0.00  0.00    +0.056 C 
ATOM      7  C   UNL     1      37.522 -22.172 -16.268  0.00  0.00    +0.132 C 
ATOM      8  C   UNL     1      35.808 -22.263 -17.931  0.00  0.00    +0.004 C 
ATOM      9  C   UNL     1      36.896 -23.697 -14.752  0.00  0.00    +0.066 C 
ATOM     10  C   UNL     1      36.519 -21.269 -18.601  0.00  0.00    +0.019 C 
ATOM     11  C   UNL     1      37.699 -20.797 -18.040  0.00  0.00    +0.100 C 
ATOM     12  H   UNL     1      38.648 -22.560 -14.541  0.00  0.00    +0.154 HD
BRANCH  10  14
ATOM     13 CL   UNL     1      34.532 -19.090 -23.776  0.00  0.00    -0.082 Cl
ATOM     14  C   UNL     1      36.037 -20.742 -19.857  0.00  0.00    +0.002 C 
ATOM     15  C   UNL     1      34.724 -20.989 -20.260  0.00  0.00    +0.001 C 
ATOM     16  C   UNL     1      36.884 -19.984 -20.666  0.00  0.00    +0.001 C 
ATOM     17  C   UNL     1      34.259 -20.478 -21.472  0.00  0.00    +0.011 C 
ATOM     18  C   UNL     1      36.419 -19.474 -21.877  0.00  0.00    +0.011 C 
ATOM     19  C   UNL     1      35.106 -19.720 -22.281  0.00  0.00    +0.058 C 
ENDBRANCH  10  14
ENDBRANCH   2   6
BRANCH   2  22
ATOM     20  F   UNL     1      32.826 -23.731 -17.615  0.00  0.00    -0.203 F 
ATOM     21  F   UNL     1      33.949 -24.384 -13.051  0.00  0.00    -0.204 F 
ATOM     22  C   UNL     1      33.417 -24.068 -15.344  0.00  0.00    +0.095 C 
ATOM     23  C   UNL     1      31.228 -23.235 -15.938  0.00  0.00    +0.092 C 
ATOM     24  C   UNL     1      32.495 -23.679 -16.316  0.00  0.00    +0.160 C 
ATOM     25  C   UNL     1      33.071 -24.013 -13.994  0.00  0.00    +0.145 C 
ATOM     26  C   UNL     1      30.882 -23.181 -14.587  0.00  0.00    +0.020 C 
ATOM     27  C   UNL     1      31.804 -23.570 -13.616  0.00  0.00    +0.031 C 
BRANCH  23  28
ATOM     28  N   UNL     1      30.282 -22.837 -16.931  0.00  0.00    -0.217 N 
ATOM     29  H   UNL     1      30.516 -22.165 -17.612  0.00  0.00    +0.173 HD
BRANCH  28  30
ATOM     30  S   UNL     1      28.721 -23.564 -16.905  0.00  0.00    +0.054 S 
ATOM     31  O   UNL     1      28.191 -23.561 -18.256  0.00  0.00    -0.154 OA
ATOM     32  O   UNL     1      28.730 -24.782 -16.120  0.00  0.00    -0.154 OA
BRANCH  30  33
ATOM     33  C   UNL     1      27.817 -22.334 -15.994  0.00  0.00    +0.172 C 
BRANCH  33  34
ATOM     34  C   UNL     1      26.385 -22.219 -16.490  0.00  0.00    +0.027 C 
ATOM     35  C   UNL     1      26.282 -21.278 -17.678  0.00  0.00    +0.002 C 
ENDBRANCH  33  34
ENDBRANCH  30  33
ENDBRANCH  28  30
ENDBRANCH  23  28
ENDBRANCH   2  22
TORSDOF 7
ENDMDL
MODEL 7
REMARK VINA RESULT:     -11.2      3.964      6.832
REMARK  Name = 42611257
REMARK  7 active torsions:
REMARK  status: ('A' for Active; 'I' for Inactive)
REMARK    1  A    between atoms: C_2  and  C_6
REMARK    2  A    between atoms: C_2  and  C_22
REMARK    3  A    between atoms: C_10  and  C_14
REMARK    4  A    between atoms: C_23  and  N_28
REMARK    5  A    between atoms: N_28  and  S_30
REMARK    6  A    between atoms: S_30  and  C_33
REMARK    7  A    between atoms: C_33  and  C_34
REMARK                            x       y       z     vdW  Elec       q    Type
REMARK                         _______ _______ _______ _____ _____    ______ ____
ROOT
ATOM      1  O   UNL     1      36.282 -17.829 -21.202  0.00  0.00    -0.286 OA
ATOM      2  C   UNL     1      35.644 -18.737 -21.778  0.00  0.00    +0.201 C 
ENDROOT
BRANCH   2   6
ATOM      3  N   UNL     1      34.873 -19.189 -25.273  0.00  0.00    -0.297 N 
ATOM      4  N   UNL     1      34.198 -17.066 -26.191  0.00  0.00    -0.229 NA
ATOM      5  C   UNL     1      34.858 -17.458 -23.862  0.00  0.00    +0.036 C 
ATOM      6  C   UNL     1      35.276 -18.619 -23.160  0.00  0.00    +0.056 C 
ATOM      7  C   UNL     1      34.615 -17.847 -25.176  0.00  0.00    +0.132 C 
ATOM      8  C   UNL     1      34.654 -16.106 -23.540  0.00  0.00    +0.004 C 
ATOM      9  C   UNL     1      35.276 -19.668 -24.054  0.00  0.00    +0.066 C 
ATOM     10  C   UNL     1      34.223 -15.254 -24.555  0.00  0.00    +0.019 C 
ATOM     11  C   UNL     1      34.018 -15.777 -25.825  0.00  0.00    +0.100 C 
ATOM     12  H   UNL     1      34.782 -19.726 -26.093  0.00  0.00    +0.154 HD
BRANCH  10  14
ATOM     13 CL   UNL     1      33.270  -9.478 -23.454  0.00  0.00    -0.082 Cl
ATOM     14  C   UNL     1      33.994 -13.852 -24.288  0.00  0.00    +0.002 C 
ATOM     15  C   UNL     1      34.489 -12.884 -25.161  0.00  0.00    +0.001 C 
ATOM     16  C   UNL     1      33.275 -13.467 -23.155  0.00  0.00    +0.001 C 
ATOM     17  C   UNL     1      34.265 -11.532 -24.904  0.00  0.00    +0.011 C 
ATOM     18  C   UNL     1      33.052 -12.115 -22.898  0.00  0.00    +0.011 C 
ATOM     19  C   UNL     1      33.546 -11.147 -23.772  0.00  0.00    +0.058 C 
ENDBRANCH  10  14
ENDBRANCH   2   6
BRANCH   2  22
ATOM     20  F   UNL     1      37.549 -20.117 -20.219  0.00  0.00    -0.203 F 
ATOM     21  F   UNL     1      33.026 -19.805 -21.617  0.00  0.00    -0.204 F 
ATOM     22  C   UNL     1      35.297 -19.934 -20.936  0.00  0.00    +0.095 C 
ATOM     23  C   UNL     1      35.967 -21.682 -19.408  0.00  0.00    +0.092 C 
ATOM     24  C   UNL     1      36.288 -20.571 -20.188  0.00  0.00    +0.160 C 
ATOM     25  C   UNL     1      33.985 -20.408 -20.903  0.00  0.00    +0.145 C 
ATOM     26  C   UNL     1      34.654 -22.155 -19.374  0.00  0.00    +0.020 C 
ATOM     27  C   UNL     1      33.665 -21.518 -20.122  0.00  0.00    +0.031 C 
BRANCH  23  28
ATOM     28  N   UNL     1      36.979 -22.335 -18.641  0.00  0.00    -0.217 N 
ATOM     29  H   UNL     1      37.511 -23.068 -19.027  0.00  0.00    +0.173 HD
BRANCH  28  30
ATOM     30  S   UNL     1      37.242 -21.805 -17.023  0.00  0.00    +0.054 S 
ATOM     31  O   UNL     1      37.959 -20.544 -17.065  0.00  0.00    -0.154 OA
ATOM     32  O   UNL     1      36.037 -21.941 -16.231  0.00  0.00    -0.154 OA
BRANCH  30  33
ATOM     33  C   UNL     1      38.399 -23.039 -16.474  0.00  0.00    +0.172 C 
BRANCH  33  34
ATOM     34  C   UNL     1      37.873 -23.791 -15.262  0.00  0.00    +0.027 C 
ATOM     35  C   UNL     1      38.746 -24.989 -14.929  0.00  0.00    +0.002 C 
ENDBRANCH  33  34
ENDBRANCH  30  33
ENDBRANCH  28  30
ENDBRANCH  23  28
ENDBRANCH   2  22
TORSDOF 7
ENDMDL
MODEL 8
REMARK VINA RESULT:     -11.1      2.672      3.959
REMARK  Name = 42611257
REMARK  7 active torsions:
REMARK  status: ('A' for Active; 'I' for Inactive)
REMARK    1  A    between atoms: C_2  and  C_6
REMARK    2  A    between atoms: C_2  and  C_22
REMARK    3  A    between atoms: C_10  and  C_14
REMARK    4  A    between atoms: C_23  and  N_28
REMARK    5  A    between atoms: N_28  and  S_30
REMARK    6  A    between atoms: S_30  and  C_33
REMARK    7  A    between atoms: C_33  and  C_34
REMARK                            x       y       z     vdW  Elec       q    Type
REMARK                         _______ _______ _______ _____ _____    ______ ____
ROOT
ATOM      1  O   UNL     1      30.900 -11.830 -22.568  0.00  0.00    -0.286 OA
ATOM      2  C   UNL     1      31.883 -11.740 -21.801  0.00  0.00    +0.201 C 
ENDROOT
BRANCH   2   6
ATOM      3  N   UNL     1      32.206  -9.270 -19.192  0.00  0.00    -0.297 N 
ATOM      4  N   UNL     1      32.853  -7.177 -20.192  0.00  0.00    -0.229 NA
ATOM      5  C   UNL     1      32.464  -9.269 -21.410  0.00  0.00    +0.036 C 
ATOM      6  C   UNL     1      32.085 -10.572 -20.992  0.00  0.00    +0.056 C 
ATOM      7  C   UNL     1      32.530  -8.482 -20.264  0.00  0.00    +0.132 C 
ATOM      8  C   UNL     1      32.762  -8.652 -22.636  0.00  0.00    +0.004 C 
ATOM      9  C   UNL     1      31.933 -10.543 -19.623  0.00  0.00    +0.066 C 
ATOM     10  C   UNL     1      33.102  -7.301 -22.618  0.00  0.00    +0.019 C 
ATOM     11  C   UNL     1      33.130  -6.635 -21.400  0.00  0.00    +0.100 C 
ATOM     12  H   UNL     1      32.174  -8.969 -18.255  0.00  0.00    +0.154 HD
BRANCH  10  14
ATOM     13 CL   UNL     1      34.421  -4.441 -27.674  0.00  0.00    -0.082 Cl
ATOM     14  C   UNL     1      33.421  -6.608 -23.846  0.00  0.00    +0.002 C 
ATOM     15  C   UNL     1      32.430  -5.899 -24.526  0.00  0.00    +0.001 C 
ATOM     16  C   UNL     1      34.721  -6.647 -24.350  0.00  0.00    +0.001 C 
ATOM     17  C   UNL     1      32.739  -5.229 -25.709  0.00  0.00    +0.011 C 
ATOM     18  C   UNL     1      35.030  -5.978 -25.534  0.00  0.00    +0.011 C 
ATOM     19  C   UNL     1      34.039  -5.268 -26.214  0.00  0.00    +0.058 C 
ENDBRANCH  10  14
ENDBRANCH   2   6
BRANCH   2  22
ATOM     20  F   UNL     1      33.491 -12.438 -24.013  0.00  0.00    -0.203 F 
ATOM     21  F   UNL     1      32.187 -13.451 -19.564  0.00  0.00    -0.204 F 
ATOM     22  C   UNL     1      32.819 -12.918 -21.791  0.00  0.00    +0.095 C 
ATOM     23  C   UNL     1      34.454 -14.301 -22.910  0.00  0.00    +0.092 C 
ATOM     24  C   UNL     1      33.586 -13.208 -22.919  0.00  0.00    +0.160 C 
ATOM     25  C   UNL     1      32.919 -13.720 -20.654  0.00  0.00    +0.145 C 
ATOM     26  C   UNL     1      34.554 -15.103 -21.772  0.00  0.00    +0.020 C 
ATOM     27  C   UNL     1      33.787 -14.812 -20.645  0.00  0.00    +0.031 C 
BRANCH  23  28
ATOM     28  N   UNL     1      35.241 -14.600 -24.063  0.00  0.00    -0.217 N 
ATOM     29  H   UNL     1      36.070 -14.104 -24.252  0.00  0.00    +0.173 HD
BRANCH  28  30
ATOM     30  S   UNL     1      34.700 -15.854 -25.113  0.00  0.00    +0.054 S 
ATOM     31  O   UNL     1      33.270 -15.701 -25.311  0.00  0.00    -0.154 OA
ATOM     32  O   UNL     1      35.589 -15.999 -26.248  0.00  0.00    -0.154 OA
BRANCH  30  33
ATOM     33  C   UNL     1      34.926 -17.267 -24.057  0.00  0.00    +0.172 C 
BRANCH  33  34
ATOM     34  C   UNL     1      34.514 -18.552 -24.756  0.00  0.00    +0.027 C 
ATOM     35  C   UNL     1      35.220 -19.759 -24.162  0.00  0.00    +0.002 C 
ENDBRANCH  33  34
ENDBRANCH  30  33
ENDBRANCH  28  30
ENDBRANCH  23  28
ENDBRANCH   2  22
TORSDOF 7
ENDMDL
MODEL 9
REMARK VINA RESULT:     -11.1      4.757      9.756
REMARK  Name = 42611257
REMARK  7 active torsions:
REMARK  status: ('A' for Active; 'I' for Inactive)
REMARK    1  A    between atoms: C_2  and  C_6
REMARK    2  A    between atoms: C_2  and  C_22
REMARK    3  A    between atoms: C_10  and  C_14
REMARK    4  A    between atoms: C_23  and  N_28
REMARK    5  A    between atoms: N_28  and  S_30
REMARK    6  A    between atoms: S_30  and  C_33
REMARK    7  A    between atoms: C_33  and  C_34
REMARK                            x       y       z     vdW  Elec       q    Type
REMARK                         _______ _______ _______ _____ _____    ______ ____
ROOT
ATOM      1  O   UNL     1      35.470 -10.884 -24.537  0.00  0.00    -0.286 OA
ATOM      2  C   UNL     1      34.321 -11.375 -24.555  0.00  0.00    +0.201 C 
ENDROOT
BRANCH   2   6
ATOM      3  N   UNL     1      33.194 -13.358 -27.350  0.00  0.00    -0.297 N 
ATOM      4  N   UNL     1      33.595 -15.680 -26.855  0.00  0.00    -0.229 NA
ATOM      5  C   UNL     1      34.131 -13.802 -25.372  0.00  0.00    +0.036 C 
ATOM      6  C   UNL     1      33.968 -12.397 -25.498  0.00  0.00    +0.056 C 
ATOM      7  C   UNL     1      33.639 -14.371 -26.543  0.00  0.00    +0.132 C 
ATOM      8  C   UNL     1      34.642 -14.673 -24.396  0.00  0.00    +0.004 C 
ATOM      9  C   UNL     1      33.389 -12.153 -26.724  0.00  0.00    +0.066 C 
ATOM     10  C   UNL     1      34.620 -16.039 -24.668  0.00  0.00    +0.019 C 
ATOM     11  C   UNL     1      34.099 -16.471 -25.881  0.00  0.00    +0.100 C 
ATOM     12  H   UNL     1      32.796 -13.476 -28.243  0.00  0.00    +0.154 HD
BRANCH  10  14
ATOM     13 CL   UNL     1      36.725 -19.951 -20.700  0.00  0.00    -0.082 Cl
ATOM     14  C   UNL     1      35.132 -16.988 -23.705  0.00  0.00    +0.002 C 
ATOM     15  C   UNL     1      35.383 -16.585 -22.393  0.00  0.00    +0.001 C 
ATOM     16  C   UNL     1      35.375 -18.307 -24.088  0.00  0.00    +0.001 C 
ATOM     17  C   UNL     1      35.875 -17.501 -21.464  0.00  0.00    +0.011 C 
ATOM     18  C   UNL     1      35.867 -19.223 -23.159  0.00  0.00    +0.011 C 
ATOM     19  C   UNL     1      36.118 -18.821 -21.846  0.00  0.00    +0.058 C 
ENDBRANCH  10  14
ENDBRANCH   2   6
BRANCH   2  22
ATOM     20  F   UNL     1      34.161  -8.630 -23.918  0.00  0.00    -0.203 F 
ATOM     21  F   UNL     1      32.508 -13.005 -23.112  0.00  0.00    -0.204 F 
ATOM     22  C   UNL     1      33.356 -10.828 -23.538  0.00  0.00    +0.095 C 
ATOM     23  C   UNL     1      32.435  -8.950 -22.328  0.00  0.00    +0.092 C 
ATOM     24  C   UNL     1      33.328  -9.459 -23.271  0.00  0.00    +0.160 C 
ATOM     25  C   UNL     1      32.490 -11.688 -22.863  0.00  0.00    +0.145 C 
ATOM     26  C   UNL     1      31.568  -9.811 -21.653  0.00  0.00    +0.020 C 
ATOM     27  C   UNL     1      31.596 -11.179 -21.921  0.00  0.00    +0.031 C 
BRANCH  23  28
ATOM     28  N   UNL     1      32.404  -7.550 -22.052  0.00  0.00    -0.217 N 
ATOM     29  H   UNL     1      32.930  -7.169 -21.312  0.00  0.00    +0.173 HD
BRANCH  28  30
ATOM     30  S   UNL     1      31.422  -6.547 -23.049  0.00  0.00    +0.054 S 
ATOM     31  O   UNL     1      30.987  -7.324 -24.196  0.00  0.00    -0.154 OA
ATOM     32  O   UNL     1      30.463  -5.806 -22.255  0.00  0.00    -0.154 OA
BRANCH  30  33
ATOM     33  C   UNL     1      32.645  -5.398 -23.639  0.00  0.00    +0.172 C 
BRANCH  33  34
ATOM     34  C   UNL     1      33.078  -5.730 -25.058  0.00  0.00    +0.027 C 
ATOM     35  C   UNL     1      34.585  -5.626 -25.218  0.00  0.00    +0.002 C 
ENDBRANCH  33  34
ENDBRANCH  30  33
ENDBRANCH  28  30
ENDBRANCH  23  28
ENDBRANCH   2  22
TORSDOF 7
ENDMDL
