MODEL 1
REMARK VINA RESULT:     -12.5      0.000      0.000
REMARK  Name = 11581936
REMARK  5 active torsions:
REMARK  status: ('A' for Active; 'I' for Inactive)
REMARK    1  A    between atoms: C_1  and  C_9
REMARK    2  A    between atoms: C_4  and  O_19
REMARK    3  A    between atoms: C_10  and  C_14
REMARK    4  A    between atoms: O_19  and  C_20
REMARK    5  A    between atoms: C_20  and  C_22
REMARK                            x       y       z     vdW  Elec       q    Type
REMARK                         _______ _______ _______ _____ _____    ______ ____
ROOT
ATOM      1  C   UNL     1      33.702 -22.172 -18.667  0.00  0.00    +0.019 C 
ATOM      2  C   UNL     1      35.063 -22.432 -18.830  0.00  0.00    +0.005 C 
ATOM      3  C   UNL     1      33.049 -21.299 -19.536  0.00  0.00    +0.005 C 
ATOM      4  C   UNL     1      35.112 -20.950 -20.727  0.00  0.00    +0.139 C 
ATOM      5  C   UNL     1      35.770 -21.818 -19.864  0.00  0.00    +0.037 C 
ATOM      6  C   UNL     1      33.756 -20.686 -20.571  0.00  0.00    +0.037 C 
ENDROOT
BRANCH   1   9
ATOM      7  N   UNL     1      31.322 -23.500 -16.500  0.00  0.00    -0.208 N 
ATOM      8  N   UNL     1      31.636 -22.851 -17.634  0.00  0.00    -0.178 NA
ATOM      9  C   UNL     1      32.974 -22.804 -17.602  0.00  0.00    +0.100 C 
ATOM     10  C   UNL     1      33.504 -23.422 -16.450  0.00  0.00    +0.036 C 
ATOM     11  C   UNL     1      32.405 -23.864 -15.756  0.00  0.00    +0.086 C 
ATOM     12  C   UNL     1      29.938 -23.748 -16.177  0.00  0.00    +0.140 C 
BRANCH  10  14
ATOM     13  N   UNL     1      37.482 -23.966 -15.116  0.00  0.00    -0.242 NA
ATOM     14  C   UNL     1      34.851 -23.606 -15.999  0.00  0.00    +0.006 C 
ATOM     15  C   UNL     1      35.684 -22.507 -15.810  0.00  0.00    +0.021 C 
ATOM     16  C   UNL     1      35.337 -24.886 -15.745  0.00  0.00    +0.021 C 
ATOM     17  C   UNL     1      36.978 -22.739 -15.372  0.00  0.00    +0.099 C 
ATOM     18  C   UNL     1      36.646 -25.011 -15.310  0.00  0.00    +0.099 C 
ENDBRANCH  10  14
ENDBRANCH   1   9
BRANCH   4  19
ATOM     19  O   UNL     1      35.807 -20.347 -21.744  0.00  0.00    -0.468 OA
BRANCH  19  20
ATOM     20  C   UNL     1      36.592 -19.213 -21.398  0.00  0.00    +0.264 C 
BRANCH  20  22
ATOM     21  N   UNL     1      35.516 -17.054 -21.191  0.00  0.00    -0.406 NA
ATOM     22  C   UNL     1      36.005 -17.995 -22.031  0.00  0.00    +0.152 C 
ATOM     23  C   UNL     1      34.915 -15.741 -23.120  0.00  0.00    +0.026 C 
ATOM     24  C   UNL     1      34.978 -15.941 -21.726  0.00  0.00    +0.113 C 
ATOM     25  C   UNL     1      35.987 -17.888 -23.407  0.00  0.00    +0.031 C 
ATOM     26  C   UNL     1      35.433 -16.740 -23.955  0.00  0.00    +0.005 C 
ATOM     27  C   UNL     1      34.346 -14.568 -23.644  0.00  0.00    +0.002 C 
ATOM     28  C   UNL     1      34.464 -14.948 -20.897  0.00  0.00    +0.085 C 
ATOM     29  C   UNL     1      33.838 -13.590 -22.792  0.00  0.00    -0.004 C 
ATOM     30  C   UNL     1      33.897 -13.781 -21.417  0.00  0.00    -0.019 C 
ENDBRANCH  20  22
ENDBRANCH  19  20
ENDBRANCH   4  19
TORSDOF 5
ENDMDL
MODEL 2
REMARK VINA RESULT:     -12.2      0.989      1.214
REMARK  Name = 11581936
REMARK  5 active torsions:
REMARK  status: ('A' for Active; 'I' for Inactive)
REMARK    1  A    between atoms: C_1  and  C_9
REMARK    2  A    between atoms: C_4  and  O_19
REMARK    3  A    between atoms: C_10  and  C_14
REMARK    4  A    between atoms: O_19  and  C_20
REMARK    5  A    between atoms: C_20  and  C_22
REMARK                            x       y       z     vdW  Elec       q    Type
REMARK                         _______ _______ _______ _____ _____    ______ ____
ROOT
ATOM      1  C   UNL     1      34.043 -22.813 -17.683  0.00  0.00    +0.019 C 
ATOM      2  C   UNL     1      35.421 -22.611 -17.755  0.00  0.00    +0.005 C 
ATOM      3  C   UNL     1      33.220 -22.386 -18.724  0.00  0.00    +0.005 C 
ATOM      4  C   UNL     1      35.148 -21.558 -19.904  0.00  0.00    +0.139 C 
ATOM      5  C   UNL     1      35.975 -21.981 -18.870  0.00  0.00    +0.037 C 
ATOM      6  C   UNL     1      33.773 -21.757 -19.839  0.00  0.00    +0.037 C 
ENDROOT
BRANCH   1   9
ATOM      7  N   UNL     1      31.993 -24.214 -15.242  0.00  0.00    -0.208 N 
ATOM      8  N   UNL     1      32.144 -23.566 -16.409  0.00  0.00    -0.178 NA
ATOM      9  C   UNL     1      33.473 -23.462 -16.535  0.00  0.00    +0.100 C 
ATOM     10  C   UNL     1      34.161 -24.043 -15.450  0.00  0.00    +0.036 C 
ATOM     11  C   UNL     1      33.171 -24.523 -14.627  0.00  0.00    +0.086 C 
ATOM     12  C   UNL     1      30.669 -24.515 -14.756  0.00  0.00    +0.140 C 
BRANCH  10  14
ATOM     13  N   UNL     1      38.288 -24.406 -14.589  0.00  0.00    -0.242 NA
ATOM     14  C   UNL     1      35.558 -24.166 -15.159  0.00  0.00    +0.006 C 
ATOM     15  C   UNL     1      36.259 -23.092 -14.618  0.00  0.00    +0.021 C 
ATOM     16  C   UNL     1      36.226 -25.360 -15.415  0.00  0.00    +0.021 C 
ATOM     17  C   UNL     1      37.608 -23.262 -14.354  0.00  0.00    +0.099 C 
ATOM     18  C   UNL     1      37.576 -25.429 -15.116  0.00  0.00    +0.099 C 
ENDBRANCH  10  14
ENDBRANCH   1   9
BRANCH   4  19
ATOM     19  O   UNL     1      35.692 -20.940 -21.000  0.00  0.00    -0.468 OA
BRANCH  19  20
ATOM     20  C   UNL     1      36.441 -19.756 -20.760  0.00  0.00    +0.264 C 
BRANCH  20  22
ATOM     21  N   UNL     1      35.677 -17.501 -21.199  0.00  0.00    -0.406 NA
ATOM     22  C   UNL     1      36.018 -18.700 -21.726  0.00  0.00    +0.152 C 
ATOM     23  C   UNL     1      35.232 -16.721 -23.436  0.00  0.00    +0.026 C 
ATOM     24  C   UNL     1      35.290 -16.523 -22.041  0.00  0.00    +0.113 C 
ATOM     25  C   UNL     1      35.993 -18.986 -23.076  0.00  0.00    +0.031 C 
ATOM     26  C   UNL     1      35.594 -17.977 -23.940  0.00  0.00    +0.005 C 
ATOM     27  C   UNL     1      34.822 -15.678 -24.284  0.00  0.00    +0.002 C 
ATOM     28  C   UNL     1      34.931 -15.274 -21.540  0.00  0.00    +0.085 C 
ATOM     29  C   UNL     1      34.468 -14.439 -23.757  0.00  0.00    -0.004 C 
ATOM     30  C   UNL     1      34.523 -14.237 -22.384  0.00  0.00    -0.019 C 
ENDBRANCH  20  22
ENDBRANCH  19  20
ENDBRANCH   4  19
TORSDOF 5
ENDMDL
MODEL 3
REMARK VINA RESULT:     -12.0      1.207      3.271
REMARK  Name = 11581936
REMARK  5 active torsions:
REMARK  status: ('A' for Active; 'I' for Inactive)
REMARK    1  A    between atoms: C_1  and  C_9
REMARK    2  A    between atoms: C_4  and  O_19
REMARK    3  A    between atoms: C_10  and  C_14
REMARK    4  A    between atoms: O_19  and  C_20
REMARK    5  A    between atoms: C_20  and  C_22
REMARK                            x       y       z     vdW  Elec       q    Type
REMARK                         _______ _______ _______ _____ _____    ______ ____
ROOT
ATOM      1  C   UNL     1      34.935 -22.886 -17.453  0.00  0.00    +0.019 C 
ATOM      2  C   UNL     1      36.089 -22.232 -17.884  0.00  0.00    +0.005 C 
ATOM      3  C   UNL     1      33.756 -22.778 -18.189  0.00  0.00    +0.005 C 
ATOM      4  C   UNL     1      34.884 -21.368 -19.782  0.00  0.00    +0.139 C 
ATOM      5  C   UNL     1      36.063 -21.470 -19.053  0.00  0.00    +0.037 C 
ATOM      6  C   UNL     1      33.729 -22.017 -19.358  0.00  0.00    +0.037 C 
ENDROOT
BRANCH   1   9
ATOM      7  N   UNL     1      35.754 -24.825 -14.680  0.00  0.00    -0.208 N 
ATOM      8  N   UNL     1      36.119 -24.166 -15.792  0.00  0.00    -0.178 NA
ATOM      9  C   UNL     1      34.962 -23.670 -16.250  0.00  0.00    +0.100 C 
ATOM     10  C   UNL     1      33.868 -24.015 -15.429  0.00  0.00    +0.036 C 
ATOM     11  C   UNL     1      34.417 -24.765 -14.417  0.00  0.00    +0.086 C 
ATOM     12  C   UNL     1      36.752 -25.508 -13.893  0.00  0.00    +0.140 C 
BRANCH  10  14
ATOM     13  N   UNL     1      29.741 -23.129 -15.708  0.00  0.00    -0.242 NA
ATOM     14  C   UNL     1      32.471 -23.716 -15.522  0.00  0.00    +0.006 C 
ATOM     15  C   UNL     1      31.973 -22.524 -15.004  0.00  0.00    +0.021 C 
ATOM     16  C   UNL     1      31.601 -24.614 -16.134  0.00  0.00    +0.021 C 
ATOM     17  C   UNL     1      30.614 -22.281 -15.121  0.00  0.00    +0.099 C 
ATOM     18  C   UNL     1      30.259 -24.277 -16.201  0.00  0.00    +0.099 C 
ENDBRANCH  10  14
ENDBRANCH   1   9
BRANCH   4  19
ATOM     19  O   UNL     1      34.858 -20.620 -20.930  0.00  0.00    -0.468 OA
BRANCH  19  20
ATOM     20  C   UNL     1      36.072 -19.981 -21.305  0.00  0.00    +0.264 C 
BRANCH  20  22
ATOM     21  N   UNL     1      35.453 -17.641 -21.265  0.00  0.00    -0.406 NA
ATOM     22  C   UNL     1      35.759 -18.714 -22.030  0.00  0.00    +0.152 C 
ATOM     23  C   UNL     1      35.175 -16.363 -23.289  0.00  0.00    +0.026 C 
ATOM     24  C   UNL     1      35.165 -16.480 -21.884  0.00  0.00    +0.113 C 
ATOM     25  C   UNL     1      35.795 -18.696 -23.409  0.00  0.00    +0.031 C 
ATOM     26  C   UNL     1      35.498 -17.498 -24.044  0.00  0.00    +0.005 C 
ATOM     27  C   UNL     1      34.869 -15.135 -23.901  0.00  0.00    +0.002 C 
ATOM     28  C   UNL     1      34.845 -15.351 -21.134  0.00  0.00    +0.085 C 
ATOM     29  C   UNL     1      34.552 -14.022 -23.128  0.00  0.00    -0.004 C 
ATOM     30  C   UNL     1      34.540 -14.130 -21.743  0.00  0.00    -0.019 C 
ENDBRANCH  20  22
ENDBRANCH  19  20
ENDBRANCH   4  19
TORSDOF 5
ENDMDL
MODEL 4
REMARK VINA RESULT:     -11.7      1.578      3.823
REMARK  Name = 11581936
REMARK  5 active torsions:
REMARK  status: ('A' for Active; 'I' for Inactive)
REMARK    1  A    between atoms: C_1  and  C_9
REMARK    2  A    between atoms: C_4  and  O_19
REMARK    3  A    between atoms: C_10  and  C_14
REMARK    4  A    between atoms: O_19  and  C_20
REMARK    5  A    between atoms: C_20  and  C_22
REMARK                            x       y       z     vdW  Elec       q    Type
REMARK                         _______ _______ _______ _____ _____    ______ ____
ROOT
ATOM      1  C   UNL     1      34.801 -23.103 -16.720  0.00  0.00    +0.019 C 
ATOM      2  C   UNL     1      35.988 -22.467 -17.083  0.00  0.00    +0.005 C 
ATOM      3  C   UNL     1      33.734 -23.155 -17.616  0.00  0.00    +0.005 C 
ATOM      4  C   UNL     1      35.040 -21.940 -19.234  0.00  0.00    +0.139 C 
ATOM      5  C   UNL     1      36.107 -21.884 -18.345  0.00  0.00    +0.037 C 
ATOM      6  C   UNL     1      33.854 -22.573 -18.878  0.00  0.00    +0.037 C 
ENDROOT
BRANCH   1   9
ATOM      7  N   UNL     1      35.269 -24.539 -13.583  0.00  0.00    -0.208 N 
ATOM      8  N   UNL     1      35.771 -24.009 -14.711  0.00  0.00    -0.178 NA
ATOM      9  C   UNL     1      34.677 -23.703 -15.421  0.00  0.00    +0.100 C 
ATOM     10  C   UNL     1      33.486 -24.039 -14.743  0.00  0.00    +0.036 C 
ATOM     11  C   UNL     1      33.906 -24.579 -13.552  0.00  0.00    +0.086 C 
ATOM     12  C   UNL     1      36.163 -24.999 -12.548  0.00  0.00    +0.140 C 
BRANCH  10  14
ATOM     13  N   UNL     1      29.414 -23.630 -15.813  0.00  0.00    -0.242 NA
ATOM     14  C   UNL     1      32.109 -23.900 -15.106  0.00  0.00    +0.006 C 
ATOM     15  C   UNL     1      31.366 -25.017 -15.481  0.00  0.00    +0.021 C 
ATOM     16  C   UNL     1      31.500 -22.649 -15.085  0.00  0.00    +0.021 C 
ATOM     17  C   UNL     1      30.036 -24.829 -15.822  0.00  0.00    +0.099 C 
ATOM     18  C   UNL     1      30.164 -22.567 -15.444  0.00  0.00    +0.099 C 
ENDBRANCH  10  14
ENDBRANCH   1   9
BRANCH   4  19
ATOM     19  O   UNL     1      35.158 -21.368 -20.474  0.00  0.00    -0.468 OA
BRANCH  19  20
ATOM     20  C   UNL     1      36.039 -20.258 -20.585  0.00  0.00    +0.264 C 
BRANCH  20  22
ATOM     21  N   UNL     1      35.671 -18.128 -21.676  0.00  0.00    -0.406 NA
ATOM     22  C   UNL     1      35.694 -19.474 -21.808  0.00  0.00    +0.152 C 
ATOM     23  C   UNL     1      35.069 -17.977 -24.004  0.00  0.00    +0.026 C 
ATOM     24  C   UNL     1      35.364 -17.387 -22.758  0.00  0.00    +0.113 C 
ATOM     25  C   UNL     1      35.420 -20.140 -22.985  0.00  0.00    +0.031 C 
ATOM     26  C   UNL     1      35.104 -19.375 -24.098  0.00  0.00    +0.005 C 
ATOM     27  C   UNL     1      34.752 -17.174 -25.112  0.00  0.00    +0.002 C 
ATOM     28  C   UNL     1      35.330 -15.998 -22.665  0.00  0.00    +0.085 C 
ATOM     29  C   UNL     1      34.725 -15.786 -24.993  0.00  0.00    -0.004 C 
ATOM     30  C   UNL     1      35.014 -15.199 -23.768  0.00  0.00    -0.019 C 
ENDBRANCH  20  22
ENDBRANCH  19  20
ENDBRANCH   4  19
TORSDOF 5
ENDMDL
MODEL 5
REMARK VINA RESULT:     -11.5      1.768      2.718
REMARK  Name = 11581936
REMARK  5 active torsions:
REMARK  status: ('A' for Active; 'I' for Inactive)
REMARK    1  A    between atoms: C_1  and  C_9
REMARK    2  A    between atoms: C_4  and  O_19
REMARK    3  A    between atoms: C_10  and  C_14
REMARK    4  A    between atoms: O_19  and  C_20
REMARK    5  A    between atoms: C_20  and  C_22
REMARK                            x       y       z     vdW  Elec       q    Type
REMARK                         _______ _______ _______ _____ _____    ______ ____
ROOT
ATOM      1  C   UNL     1      34.365 -23.097 -16.939  0.00  0.00    +0.019 C 
ATOM      2  C   UNL     1      35.681 -22.641 -16.875  0.00  0.00    +0.005 C 
ATOM      3  C   UNL     1      33.614 -22.902 -18.098  0.00  0.00    +0.005 C 
ATOM      4  C   UNL     1      35.492 -21.798 -19.123  0.00  0.00    +0.139 C 
ATOM      5  C   UNL     1      36.246 -21.989 -17.972  0.00  0.00    +0.037 C 
ATOM      6  C   UNL     1      34.179 -22.251 -19.194  0.00  0.00    +0.037 C 
ENDROOT
BRANCH   1   9
ATOM      7  N   UNL     1      32.291 -24.565 -14.558  0.00  0.00    -0.208 N 
ATOM      8  N   UNL     1      32.453 -23.904 -15.717  0.00  0.00    -0.178 NA
ATOM      9  C   UNL     1      33.782 -23.768 -15.810  0.00  0.00    +0.100 C 
ATOM     10  C   UNL     1      34.458 -24.342 -14.713  0.00  0.00    +0.036 C 
ATOM     11  C   UNL     1      33.461 -24.851 -13.918  0.00  0.00    +0.086 C 
ATOM     12  C   UNL     1      30.962 -24.901 -14.106  0.00  0.00    +0.140 C 
BRANCH  10  14
ATOM     13  N   UNL     1      38.572 -24.613 -13.762  0.00  0.00    -0.242 NA
ATOM     14  C   UNL     1      35.850 -24.434 -14.390  0.00  0.00    +0.006 C 
ATOM     15  C   UNL     1      36.653 -25.387 -15.012  0.00  0.00    +0.021 C 
ATOM     16  C   UNL     1      36.413 -23.571 -13.454  0.00  0.00    +0.021 C 
ATOM     17  C   UNL     1      37.993 -25.435 -14.666  0.00  0.00    +0.099 C 
ATOM     18  C   UNL     1      37.764 -23.700 -13.178  0.00  0.00    +0.099 C 
ENDBRANCH  10  14
ENDBRANCH   1   9
BRANCH   4  19
ATOM     19  O   UNL     1      36.047 -21.159 -20.201  0.00  0.00    -0.468 OA
BRANCH  19  20
ATOM     20  C   UNL     1      35.280 -21.136 -21.397  0.00  0.00    +0.264 C 
BRANCH  20  22
ATOM     21  N   UNL     1      34.877 -19.646 -23.262  0.00  0.00    -0.406 NA
ATOM     22  C   UNL     1      35.340 -19.771 -21.997  0.00  0.00    +0.152 C 
ATOM     23  C   UNL     1      35.423 -17.301 -23.159  0.00  0.00    +0.026 C 
ATOM     24  C   UNL     1      34.916 -18.428 -23.837  0.00  0.00    +0.113 C 
ATOM     25  C   UNL     1      35.854 -18.726 -21.256  0.00  0.00    +0.031 C 
ATOM     26  C   UNL     1      35.893 -17.474 -21.851  0.00  0.00    +0.005 C 
ATOM     27  C   UNL     1      35.449 -16.046 -23.790  0.00  0.00    +0.002 C 
ATOM     28  C   UNL     1      34.448 -18.256 -25.137  0.00  0.00    +0.085 C 
ATOM     29  C   UNL     1      34.975 -15.901 -25.091  0.00  0.00    -0.004 C 
ATOM     30  C   UNL     1      34.474 -17.007 -25.765  0.00  0.00    -0.019 C 
ENDBRANCH  20  22
ENDBRANCH  19  20
ENDBRANCH   4  19
TORSDOF 5
ENDMDL
MODEL 6
REMARK VINA RESULT:     -11.2      7.875     15.389
REMARK  Name = 11581936
REMARK  5 active torsions:
REMARK  status: ('A' for Active; 'I' for Inactive)
REMARK    1  A    between atoms: C_1  and  C_9
REMARK    2  A    between atoms: C_4  and  O_19
REMARK    3  A    between atoms: C_10  and  C_14
REMARK    4  A    between atoms: O_19  and  C_20
REMARK    5  A    between atoms: C_20  and  C_22
REMARK                            x       y       z     vdW  Elec       q    Type
REMARK                         _______ _______ _______ _____ _____    ______ ____
ROOT
ATOM      1  C   UNL     1      31.798  -6.240 -22.689  0.00  0.00    +0.019 C 
ATOM      2  C   UNL     1      31.334  -7.297 -23.472  0.00  0.00    +0.005 C 
ATOM      3  C   UNL     1      32.420  -6.496 -21.468  0.00  0.00    +0.005 C 
ATOM      4  C   UNL     1      32.115  -8.859 -21.814  0.00  0.00    +0.139 C 
ATOM      5  C   UNL     1      31.493  -8.611 -23.032  0.00  0.00    +0.037 C 
ATOM      6  C   UNL     1      32.580  -7.810 -21.028  0.00  0.00    +0.037 C 
ENDROOT
BRANCH   1   9
ATOM      7  N   UNL     1      30.878  -2.924 -23.223  0.00  0.00    -0.208 N 
ATOM      8  N   UNL     1      30.752  -4.076 -22.542  0.00  0.00    -0.178 NA
ATOM      9  C   UNL     1      31.634  -4.887 -23.142  0.00  0.00    +0.100 C 
ATOM     10  C   UNL     1      32.315  -4.249 -24.199  0.00  0.00    +0.036 C 
ATOM     11  C   UNL     1      31.802  -2.975 -24.226  0.00  0.00    +0.086 C 
ATOM     12  C   UNL     1      30.070  -1.786 -22.860  0.00  0.00    +0.140 C 
BRANCH  10  14
ATOM     13  N   UNL     1      35.294  -5.619 -26.873  0.00  0.00    -0.242 NA
ATOM     14  C   UNL     1      33.323  -4.713 -25.104  0.00  0.00    +0.006 C 
ATOM     15  C   UNL     1      33.325  -4.288 -26.430  0.00  0.00    +0.021 C 
ATOM     16  C   UNL     1      34.309  -5.592 -24.665  0.00  0.00    +0.021 C 
ATOM     17  C   UNL     1      34.322  -4.766 -27.265  0.00  0.00    +0.099 C 
ATOM     18  C   UNL     1      35.262  -6.012 -25.579  0.00  0.00    +0.099 C 
ENDBRANCH  10  14
ENDBRANCH   1   9
BRANCH   4  19
ATOM     19  O   UNL     1      32.272 -10.151 -21.382  0.00  0.00    -0.468 OA
BRANCH  19  20
ATOM     20  C   UNL     1      31.760 -11.174 -22.225  0.00  0.00    +0.264 C 
BRANCH  20  22
ATOM     21  N   UNL     1      33.161 -12.917 -23.153  0.00  0.00    -0.406 NA
ATOM     22  C   UNL     1      32.571 -12.414 -22.044  0.00  0.00    +0.152 C 
ATOM     23  C   UNL     1      34.068 -14.683 -21.787  0.00  0.00    +0.026 C 
ATOM     24  C   UNL     1      33.901 -14.036 -23.029  0.00  0.00    +0.113 C 
ATOM     25  C   UNL     1      32.678 -12.977 -20.789  0.00  0.00    +0.031 C 
ATOM     26  C   UNL     1      33.440 -14.130 -20.664  0.00  0.00    +0.005 C 
ATOM     27  C   UNL     1      34.846 -15.850 -21.695  0.00  0.00    +0.002 C 
ATOM     28  C   UNL     1      34.525 -14.586 -24.145  0.00  0.00    +0.085 C 
ATOM     29  C   UNL     1      35.460 -16.380 -22.827  0.00  0.00    -0.004 C 
ATOM     30  C   UNL     1      35.299 -15.747 -24.053  0.00  0.00    -0.019 C 
ENDBRANCH  20  22
ENDBRANCH  19  20
ENDBRANCH   4  19
TORSDOF 5
ENDMDL
MODEL 7
REMARK VINA RESULT:     -10.9      8.341     16.216
REMARK  Name = 11581936
REMARK  5 active torsions:
REMARK  status: ('A' for Active; 'I' for Inactive)
REMARK    1  A    between atoms: C_1  and  C_9
REMARK    2  A    between atoms: C_4  and  O_19
REMARK    3  A    between atoms: C_10  and  C_14
REMARK    4  A    between atoms: O_19  and  C_20
REMARK    5  A    between atoms: C_20  and  C_22
REMARK                            x       y       z     vdW  Elec       q    Type
REMARK                         _______ _______ _______ _____ _____    ______ ____
ROOT
ATOM      1  C   UNL     1      33.408  -6.434 -24.362  0.00  0.00    +0.019 C 
ATOM      2  C   UNL     1      32.152  -6.996 -24.591  0.00  0.00    +0.005 C 
ATOM      3  C   UNL     1      34.134  -6.788 -23.225  0.00  0.00    +0.005 C 
ATOM      4  C   UNL     1      32.353  -8.261 -22.552  0.00  0.00    +0.139 C 
ATOM      5  C   UNL     1      31.623  -7.913 -23.682  0.00  0.00    +0.037 C 
ATOM      6  C   UNL     1      33.605  -7.705 -22.317  0.00  0.00    +0.037 C 
ENDROOT
BRANCH   1   9
ATOM      7  N   UNL     1      35.236  -4.708 -26.771  0.00  0.00    -0.208 N 
ATOM      8  N   UNL     1      35.023  -5.813 -26.036  0.00  0.00    -0.178 NA
ATOM      9  C   UNL     1      33.953  -5.491 -25.298  0.00  0.00    +0.100 C 
ATOM     10  C   UNL     1      33.491  -4.185 -25.566  0.00  0.00    +0.036 C 
ATOM     11  C   UNL     1      34.344  -3.704 -26.528  0.00  0.00    +0.086 C 
ATOM     12  C   UNL     1      36.331  -4.673 -27.710  0.00  0.00    +0.140 C 
BRANCH  10  14
ATOM     13  N   UNL     1      30.272  -1.949 -23.973  0.00  0.00    -0.242 NA
ATOM     14  C   UNL     1      32.401  -3.429 -25.027  0.00  0.00    +0.006 C 
ATOM     15  C   UNL     1      32.052  -3.559 -23.686  0.00  0.00    +0.021 C 
ATOM     16  C   UNL     1      31.682  -2.557 -25.840  0.00  0.00    +0.021 C 
ATOM     17  C   UNL     1      30.990  -2.804 -23.213  0.00  0.00    +0.099 C 
ATOM     18  C   UNL     1      30.637  -1.847 -25.271  0.00  0.00    +0.099 C 
ENDBRANCH  10  14
ENDBRANCH   1   9
BRANCH   4  19
ATOM     19  O   UNL     1      31.833  -9.162 -21.659  0.00  0.00    -0.468 OA
BRANCH  19  20
ATOM     20  C   UNL     1      31.197 -10.310 -22.206  0.00  0.00    +0.264 C 
BRANCH  20  22
ATOM     21  N   UNL     1      32.711 -12.127 -22.724  0.00  0.00    -0.406 NA
ATOM     22  C   UNL     1      31.940 -11.534 -21.783  0.00  0.00    +0.152 C 
ATOM     23  C   UNL     1      33.326 -13.779 -21.080  0.00  0.00    +0.026 C 
ATOM     24  C   UNL     1      33.397 -13.234 -22.379  0.00  0.00    +0.113 C 
ATOM     25  C   UNL     1      31.809 -11.994 -20.488  0.00  0.00    +0.031 C 
ATOM     26  C   UNL     1      32.516 -13.134 -20.137  0.00  0.00    +0.005 C 
ATOM     27  C   UNL     1      34.054 -14.936 -20.757  0.00  0.00    +0.002 C 
ATOM     28  C   UNL     1      34.203 -13.875 -23.316  0.00  0.00    +0.085 C 
ATOM     29  C   UNL     1      34.853 -15.558 -21.713  0.00  0.00    -0.004 C 
ATOM     30  C   UNL     1      34.927 -15.026 -22.994  0.00  0.00    -0.019 C 
ENDBRANCH  20  22
ENDBRANCH  19  20
ENDBRANCH   4  19
TORSDOF 5
ENDMDL
MODEL 8
REMARK VINA RESULT:     -10.9      3.118     10.568
REMARK  Name = 11581936
REMARK  5 active torsions:
REMARK  status: ('A' for Active; 'I' for Inactive)
REMARK    1  A    between atoms: C_1  and  C_9
REMARK    2  A    between atoms: C_4  and  O_19
REMARK    3  A    between atoms: C_10  and  C_14
REMARK    4  A    between atoms: O_19  and  C_20
REMARK    5  A    between atoms: C_20  and  C_22
REMARK                            x       y       z     vdW  Elec       q    Type
REMARK                         _______ _______ _______ _____ _____    ______ ____
ROOT
ATOM      1  C   UNL     1      33.789 -13.951 -22.583  0.00  0.00    +0.019 C 
ATOM      2  C   UNL     1      34.362 -14.595 -21.486  0.00  0.00    +0.005 C 
ATOM      3  C   UNL     1      33.984 -14.455 -23.868  0.00  0.00    +0.005 C 
ATOM      4  C   UNL     1      35.319 -16.241 -22.961  0.00  0.00    +0.139 C 
ATOM      5  C   UNL     1      35.130 -15.744 -21.677  0.00  0.00    +0.037 C 
ATOM      6  C   UNL     1      34.751 -15.605 -24.059  0.00  0.00    +0.037 C 
ENDROOT
BRANCH   1   9
ATOM      7  N   UNL     1      31.510 -11.514 -21.589  0.00  0.00    -0.208 N 
ATOM      8  N   UNL     1      32.006 -12.759 -21.489  0.00  0.00    -0.178 NA
ATOM      9  C   UNL     1      32.999 -12.767 -22.388  0.00  0.00    +0.100 C 
ATOM     10  C   UNL     1      33.130 -11.531 -23.054  0.00  0.00    +0.036 C 
ATOM     11  C   UNL     1      32.148 -10.738 -22.512  0.00  0.00    +0.086 C 
ATOM     12  C   UNL     1      30.400 -11.117 -20.757  0.00  0.00    +0.140 C 
BRANCH  10  14
ATOM     13  N   UNL     1      35.797 -10.216 -26.063  0.00  0.00    -0.242 NA
ATOM     14  C   UNL     1      34.032 -11.085 -24.073  0.00  0.00    +0.006 C 
ATOM     15  C   UNL     1      34.740  -9.898 -23.912  0.00  0.00    +0.021 C 
ATOM     16  C   UNL     1      34.209 -11.837 -25.231  0.00  0.00    +0.021 C 
ATOM     17  C   UNL     1      35.601  -9.511 -24.927  0.00  0.00    +0.099 C 
ATOM     18  C   UNL     1      35.094 -11.364 -26.186  0.00  0.00    +0.099 C 
ENDBRANCH  10  14
ENDBRANCH   1   9
BRANCH   4  19
ATOM     19  O   UNL     1      36.072 -17.371 -23.147  0.00  0.00    -0.468 OA
BRANCH  19  20
ATOM     20  C   UNL     1      35.364 -18.591 -23.325  0.00  0.00    +0.264 C 
BRANCH  20  22
ATOM     21  N   UNL     1      34.454 -20.087 -21.654  0.00  0.00    -0.406 NA
ATOM     22  C   UNL     1      35.553 -19.452 -22.121  0.00  0.00    +0.152 C 
ATOM     23  C   UNL     1      35.826 -21.043 -19.918  0.00  0.00    +0.026 C 
ATOM     24  C   UNL     1      34.586 -20.873 -20.568  0.00  0.00    +0.113 C 
ATOM     25  C   UNL     1      36.807 -19.557 -21.553  0.00  0.00    +0.031 C 
ATOM     26  C   UNL     1      36.940 -20.367 -20.434  0.00  0.00    +0.005 C 
ATOM     27  C   UNL     1      35.927 -21.870 -18.787  0.00  0.00    +0.002 C 
ATOM     28  C   UNL     1      33.480 -21.546 -20.055  0.00  0.00    +0.085 C 
ATOM     29  C   UNL     1      34.805 -22.531 -18.294  0.00  0.00    -0.004 C 
ATOM     30  C   UNL     1      33.580 -22.368 -18.929  0.00  0.00    -0.019 C 
ENDBRANCH  20  22
ENDBRANCH  19  20
ENDBRANCH   4  19
TORSDOF 5
ENDMDL
MODEL 9
REMARK VINA RESULT:     -10.7      2.394      9.797
REMARK  Name = 11581936
REMARK  5 active torsions:
REMARK  status: ('A' for Active; 'I' for Inactive)
REMARK    1  A    between atoms: C_1  and  C_9
REMARK    2  A    between atoms: C_4  and  O_19
REMARK    3  A    between atoms: C_10  and  C_14
REMARK    4  A    between atoms: O_19  and  C_20
REMARK    5  A    between atoms: C_20  and  C_22
REMARK                            x       y       z     vdW  Elec       q    Type
REMARK                         _______ _______ _______ _____ _____    ______ ____
ROOT
ATOM      1  C   UNL     1      34.697 -16.583 -24.338  0.00  0.00    +0.019 C 
ATOM      2  C   UNL     1      35.440 -16.532 -23.159  0.00  0.00    +0.005 C 
ATOM      3  C   UNL     1      34.339 -17.815 -24.885  0.00  0.00    +0.005 C 
ATOM      4  C   UNL     1      35.464 -18.939 -23.078  0.00  0.00    +0.139 C 
ATOM      5  C   UNL     1      35.825 -17.715 -22.527  0.00  0.00    +0.037 C 
ATOM      6  C   UNL     1      34.723 -18.997 -24.253  0.00  0.00    +0.037 C 
ENDROOT
BRANCH   1   9
ATOM      7  N   UNL     1      33.968 -13.996 -26.551  0.00  0.00    -0.208 N 
ATOM      8  N   UNL     1      34.429 -15.237 -26.316  0.00  0.00    -0.178 NA
ATOM      9  C   UNL     1      34.301 -15.366 -24.989  0.00  0.00    +0.100 C 
ATOM     10  C   UNL     1      33.761 -14.210 -24.387  0.00  0.00    +0.036 C 
ATOM     11  C   UNL     1      33.555 -13.339 -25.430  0.00  0.00    +0.086 C 
ATOM     12  C   UNL     1      33.947 -13.485 -27.900  0.00  0.00    +0.140 C 
BRANCH  10  14
ATOM     13  N   UNL     1      32.852 -13.286 -20.360  0.00  0.00    -0.242 NA
ATOM     14  C   UNL     1      33.454 -13.896 -23.024  0.00  0.00    +0.006 C 
ATOM     15  C   UNL     1      32.373 -13.074 -22.720  0.00  0.00    +0.021 C 
ATOM     16  C   UNL     1      34.233 -14.413 -21.993  0.00  0.00    +0.021 C 
ATOM     17  C   UNL     1      32.117 -12.802 -21.385  0.00  0.00    +0.099 C 
ATOM     18  C   UNL     1      33.895 -14.082 -20.691  0.00  0.00    +0.099 C 
ENDBRANCH  10  14
ENDBRANCH   1   9
BRANCH   4  19
ATOM     19  O   UNL     1      35.842 -20.101 -22.456  0.00  0.00    -0.468 OA
BRANCH  19  20
ATOM     20  C   UNL     1      36.504 -19.972 -21.205  0.00  0.00    +0.264 C 
BRANCH  20  22
ATOM     21  N   UNL     1      36.564 -21.197 -19.117  0.00  0.00    -0.406 NA
ATOM     22  C   UNL     1      35.830 -20.843 -20.197  0.00  0.00    +0.152 C 
ATOM     23  C   UNL     1      34.660 -22.437 -18.313  0.00  0.00    +0.026 C 
ATOM     24  C   UNL     1      35.989 -21.983 -18.187  0.00  0.00    +0.113 C 
ATOM     25  C   UNL     1      34.524 -21.237 -20.407  0.00  0.00    +0.031 C 
ATOM     26  C   UNL     1      33.935 -22.046 -19.447  0.00  0.00    +0.005 C 
ATOM     27  C   UNL     1      34.093 -23.256 -17.323  0.00  0.00    +0.002 C 
ATOM     28  C   UNL     1      36.710 -22.371 -17.060  0.00  0.00    +0.085 C 
ATOM     29  C   UNL     1      34.835 -23.630 -16.206  0.00  0.00    -0.004 C 
ATOM     30  C   UNL     1      36.145 -23.186 -16.075  0.00  0.00    -0.019 C 
ENDBRANCH  20  22
ENDBRANCH  19  20
ENDBRANCH   4  19
TORSDOF 5
ENDMDL
