MODEL 1
REMARK VINA RESULT:     -11.4      0.000      0.000
REMARK  Name = 54674461
REMARK  5 active torsions:
REMARK  status: ('A' for Active; 'I' for Inactive)
REMARK    1  A    between atoms: N_2  and  C_29
REMARK    2  A    between atoms: C_7  and  C_14
REMARK    3  A    between atoms: C_15  and  N_21
REMARK    4  A    between atoms: C_22  and  O_24
REMARK    5  A    between atoms: C_29  and  C_31
REMARK                            x       y       z     vdW  Elec       q    Type
REMARK                         _______ _______ _______ _____ _____    ______ ____
ROOT
ATOM      1  F   UNL     1      29.522 -22.903 -15.761  0.00  0.00    -0.207 F 
ATOM      2  N   UNL     1      34.678 -24.410 -15.737  0.00  0.00    -0.193 N 
ATOM      3  N   UNL     1      35.242 -23.797 -16.793  0.00  0.00    -0.168 NA
ATOM      4  N   UNL     1      32.537 -24.607 -14.628  0.00  0.00    -0.251 NA
ATOM      5  C   UNL     1      33.020 -23.277 -16.626  0.00  0.00    +0.133 C 
ATOM      6  C   UNL     1      33.350 -24.135 -15.589  0.00  0.00    +0.133 C 
ATOM      7  C   UNL     1      34.229 -23.109 -17.331  0.00  0.00    +0.172 C 
ATOM      8  C   UNL     1      31.695 -22.832 -16.713  0.00  0.00    +0.015 C 
ATOM      9  C   UNL     1      30.804 -23.288 -15.741  0.00  0.00    +0.139 C 
ATOM     10  C   UNL     1      31.269 -24.149 -14.753  0.00  0.00    +0.182 C 
ENDROOT
BRANCH   7  14
ATOM     11  N   UNL     1      33.341 -21.900 -19.167  0.00  0.00    -0.326 NA
ATOM     12  N   UNL     1      35.723 -22.042 -18.830  0.00  0.00    -0.326 NA
ATOM     13  N   UNL     1      32.460 -20.691 -21.003  0.00  0.00    -0.334 N 
ATOM     14  C   UNL     1      34.443 -22.306 -18.508  0.00  0.00    +0.156 C 
ATOM     15  C   UNL     1      34.842 -20.812 -20.702  0.00  0.00    +0.210 C 
ATOM     16  C   UNL     1      33.578 -21.151 -20.264  0.00  0.00    +0.193 C 
ATOM     17  C   UNL     1      35.887 -21.289 -19.939  0.00  0.00    +0.193 C 
ATOM     18  H   UNL     1      31.548 -20.921 -20.710  0.00  0.00    +0.144 HD
ATOM     19  H   UNL     1      32.595 -20.141 -21.808  0.00  0.00    +0.144 HD
ATOM     20  N   UNL     1      37.212 -20.978 -20.333  0.00  0.00    -0.334 N 
ATOM     21  H   UNL     1      37.974 -21.308 -19.804  0.00  0.00    +0.144 HD
ATOM     22  H   UNL     1      37.370 -20.432 -21.137  0.00  0.00    +0.144 HD
BRANCH  15  24
ATOM     23  O   UNL     1      36.040 -18.075 -21.028  0.00  0.00    -0.226 OA
ATOM     24  N   UNL     1      35.050 -20.037 -21.846  0.00  0.00    -0.258 N 
ATOM     25  C   UNL     1      35.613 -18.768 -21.944  0.00  0.00    +0.402 C 
ATOM     26  H   UNL     1      34.761 -20.442 -22.695  0.00  0.00    +0.154 HD
BRANCH  25  27
ATOM     27  O   UNL     1      35.626 -18.380 -23.256  0.00  0.00    -0.431 OA
ATOM     28  C   UNL     1      34.913 -19.223 -24.169  0.00  0.00    +0.257 C 
ENDBRANCH  25  27
ENDBRANCH  15  24
ENDBRANCH   7  14
BRANCH   2  29
ATOM     29  C   UNL     1      35.484 -25.263 -14.895  0.00  0.00    +0.146 C 
BRANCH  29  31
ATOM     30  F   UNL     1      37.810 -23.646 -14.989  0.00  0.00    -0.204 F 
ATOM     31  C   UNL     1      36.043 -24.553 -13.688  0.00  0.00    +0.027 C 
ATOM     32  C   UNL     1      37.194 -23.772 -13.806  0.00  0.00    +0.138 C 
ATOM     33  C   UNL     1      35.409 -24.678 -12.452  0.00  0.00    -0.000 C 
ATOM     34  C   UNL     1      37.708 -23.116 -12.688  0.00  0.00    +0.029 C 
ATOM     35  C   UNL     1      35.925 -24.022 -11.333  0.00  0.00    -0.000 C 
ATOM     36  C   UNL     1      37.075 -23.242 -11.451  0.00  0.00    +0.002 C 
ENDBRANCH  29  31
ENDBRANCH   2  29
TORSDOF 5
ENDMDL
MODEL 2
REMARK VINA RESULT:     -10.7      1.333      4.597
REMARK  Name = 54674461
REMARK  5 active torsions:
REMARK  status: ('A' for Active; 'I' for Inactive)
REMARK    1  A    between atoms: N_2  and  C_29
REMARK    2  A    between atoms: C_7  and  C_14
REMARK    3  A    between atoms: C_15  and  N_21
REMARK    4  A    between atoms: C_22  and  O_24
REMARK    5  A    between atoms: C_29  and  C_31
REMARK                            x       y       z     vdW  Elec       q    Type
REMARK                         _______ _______ _______ _____ _____    ______ ____
ROOT
ATOM      1  F   UNL     1      37.884 -23.518 -14.248  0.00  0.00    -0.207 F 
ATOM      2  N   UNL     1      32.820 -24.198 -15.906  0.00  0.00    -0.193 N 
ATOM      3  N   UNL     1      32.737 -23.565 -17.090  0.00  0.00    -0.168 NA
ATOM      4  N   UNL     1      34.425 -24.662 -14.157  0.00  0.00    -0.251 NA
ATOM      5  C   UNL     1      34.841 -23.391 -16.208  0.00  0.00    +0.133 C 
ATOM      6  C   UNL     1      34.056 -24.125 -15.333  0.00  0.00    +0.133 C 
ATOM      7  C   UNL     1      33.969 -23.077 -17.270  0.00  0.00    +0.172 C 
ATOM      8  C   UNL     1      36.177 -23.163 -15.858  0.00  0.00    +0.015 C 
ATOM      9  C   UNL     1      36.620 -23.696 -14.647  0.00  0.00    +0.139 C 
ATOM     10  C   UNL     1      35.724 -24.415 -13.861  0.00  0.00    +0.182 C 
ENDROOT
BRANCH   7  14
ATOM     11  N   UNL     1      33.237 -21.818 -19.142  0.00  0.00    -0.326 NA
ATOM     12  N   UNL     1      35.587 -22.190 -18.758  0.00  0.00    -0.326 NA
ATOM     13  N   UNL     1      32.512 -20.561 -21.013  0.00  0.00    -0.334 N 
ATOM     14  C   UNL     1      34.282 -22.320 -18.455  0.00  0.00    +0.156 C 
ATOM     15  C   UNL     1      34.864 -20.912 -20.666  0.00  0.00    +0.210 C 
ATOM     16  C   UNL     1      33.566 -21.117 -20.246  0.00  0.00    +0.193 C 
ATOM     17  C   UNL     1      35.844 -21.477 -19.875  0.00  0.00    +0.193 C 
ATOM     18  H   UNL     1      31.577 -20.694 -20.733  0.00  0.00    +0.144 HD
ATOM     19  H   UNL     1      32.714 -20.041 -21.824  0.00  0.00    +0.144 HD
ATOM     20  N   UNL     1      37.200 -21.306 -20.250  0.00  0.00    -0.334 N 
ATOM     21  H   UNL     1      37.916 -21.701 -19.702  0.00  0.00    +0.144 HD
ATOM     22  H   UNL     1      37.425 -20.793 -21.060  0.00  0.00    +0.144 HD
BRANCH  15  24
ATOM     23  O   UNL     1      36.247 -18.266 -21.005  0.00  0.00    -0.226 OA
ATOM     24  N   UNL     1      35.168 -20.182 -21.817  0.00  0.00    -0.258 N 
ATOM     25  C   UNL     1      35.814 -18.954 -21.921  0.00  0.00    +0.402 C 
ATOM     26  H   UNL     1      34.889 -20.591 -22.669  0.00  0.00    +0.154 HD
BRANCH  25  27
ATOM     27  O   UNL     1      35.906 -18.602 -23.241  0.00  0.00    -0.431 OA
ATOM     28  C   UNL     1      34.950 -19.206 -24.121  0.00  0.00    +0.257 C 
ENDBRANCH  25  27
ENDBRANCH  15  24
ENDBRANCH   7  14
BRANCH   2  29
ATOM     29  C   UNL     1      31.656 -24.862 -15.371  0.00  0.00    +0.146 C 
BRANCH  29  31
ATOM     30  F   UNL     1      30.995 -22.302 -14.351  0.00  0.00    -0.204 F 
ATOM     31  C   UNL     1      30.363 -24.155 -15.694  0.00  0.00    +0.027 C 
ATOM     32  C   UNL     1      30.102 -22.894 -15.156  0.00  0.00    +0.138 C 
ATOM     33  C   UNL     1      29.428 -24.763 -16.531  0.00  0.00    -0.000 C 
ATOM     34  C   UNL     1      28.907 -22.242 -15.457  0.00  0.00    +0.029 C 
ATOM     35  C   UNL     1      28.232 -24.111 -16.831  0.00  0.00    -0.000 C 
ATOM     36  C   UNL     1      27.971 -22.850 -16.294  0.00  0.00    +0.002 C 
ENDBRANCH  29  31
ENDBRANCH   2  29
TORSDOF 5
ENDMDL
MODEL 3
REMARK VINA RESULT:     -10.6      1.909      5.097
REMARK  Name = 54674461
REMARK  5 active torsions:
REMARK  status: ('A' for Active; 'I' for Inactive)
REMARK    1  A    between atoms: N_2  and  C_29
REMARK    2  A    between atoms: C_7  and  C_14
REMARK    3  A    between atoms: C_15  and  N_21
REMARK    4  A    between atoms: C_22  and  O_24
REMARK    5  A    between atoms: C_29  and  C_31
REMARK                            x       y       z     vdW  Elec       q    Type
REMARK                         _______ _______ _______ _____ _____    ______ ____
ROOT
ATOM      1  F   UNL     1      38.096 -23.894 -11.722  0.00  0.00    -0.207 F 
ATOM      2  N   UNL     1      33.442 -24.444 -14.348  0.00  0.00    -0.193 N 
ATOM      3  N   UNL     1      33.631 -23.866 -15.548  0.00  0.00    -0.168 NA
ATOM      4  N   UNL     1      34.637 -24.890 -12.292  0.00  0.00    -0.251 NA
ATOM      5  C   UNL     1      35.520 -23.736 -14.263  0.00  0.00    +0.133 C 
ATOM      6  C   UNL     1      34.539 -24.395 -13.539  0.00  0.00    +0.133 C 
ATOM      7  C   UNL     1      34.896 -23.437 -15.491  0.00  0.00    +0.172 C 
ATOM      8  C   UNL     1      36.768 -23.546 -13.657  0.00  0.00    +0.015 C 
ATOM      9  C   UNL     1      36.930 -24.039 -12.362  0.00  0.00    +0.139 C 
ATOM     10  C   UNL     1      35.860 -24.683 -11.749  0.00  0.00    +0.182 C 
ENDROOT
BRANCH   7  14
ATOM     11  N   UNL     1      36.519 -21.936 -16.351  0.00  0.00    -0.326 NA
ATOM     12  N   UNL     1      34.925 -22.990 -17.819  0.00  0.00    -0.326 NA
ATOM     13  N   UNL     1      38.137 -20.438 -17.214  0.00  0.00    -0.334 N 
ATOM     14  C   UNL     1      35.479 -22.750 -16.616  0.00  0.00    +0.156 C 
ATOM     15  C   UNL     1      36.563 -21.468 -18.711  0.00  0.00    +0.210 C 
ATOM     16  C   UNL     1      37.039 -21.309 -17.426  0.00  0.00    +0.193 C 
ATOM     17  C   UNL     1      35.494 -22.329 -18.850  0.00  0.00    +0.193 C 
ATOM     18  H   UNL     1      38.494 -20.308 -16.306  0.00  0.00    +0.144 HD
ATOM     19  H   UNL     1      38.543 -19.964 -17.975  0.00  0.00    +0.144 HD
ATOM     20  N   UNL     1      34.955 -22.537 -20.144  0.00  0.00    -0.334 N 
ATOM     21  H   UNL     1      34.192 -23.147 -20.267  0.00  0.00    +0.144 HD
ATOM     22  H   UNL     1      35.343 -22.071 -20.919  0.00  0.00    +0.144 HD
BRANCH  15  24
ATOM     23  O   UNL     1      35.352 -19.526 -20.659  0.00  0.00    -0.226 OA
ATOM     24  N   UNL     1      37.124 -20.799 -19.801  0.00  0.00    -0.258 N 
ATOM     25  C   UNL     1      36.517 -19.904 -20.677  0.00  0.00    +0.402 C 
ATOM     26  H   UNL     1      38.076 -20.984 -19.972  0.00  0.00    +0.154 HD
BRANCH  25  27
ATOM     27  O   UNL     1      37.434 -19.484 -21.602  0.00  0.00    -0.431 OA
ATOM     28  C   UNL     1      36.961 -18.547 -22.576  0.00  0.00    +0.257 C 
ENDBRANCH  25  27
ENDBRANCH  15  24
ENDBRANCH   7  14
BRANCH   2  29
ATOM     29  C   UNL     1      32.162 -25.035 -14.036  0.00  0.00    +0.146 C 
BRANCH  29  31
ATOM     30  F   UNL     1      30.324 -26.479 -15.638  0.00  0.00    -0.204 F 
ATOM     31  C   UNL     1      31.011 -24.383 -14.760  0.00  0.00    +0.027 C 
ATOM     32  C   UNL     1      30.143 -25.155 -15.533  0.00  0.00    +0.138 C 
ATOM     33  C   UNL     1      30.814 -23.006 -14.657  0.00  0.00    -0.000 C 
ATOM     34  C   UNL     1      29.079 -24.550 -16.202  0.00  0.00    +0.029 C 
ATOM     35  C   UNL     1      29.750 -22.401 -15.327  0.00  0.00    -0.000 C 
ATOM     36  C   UNL     1      28.883 -23.173 -16.100  0.00  0.00    +0.002 C 
ENDBRANCH  29  31
ENDBRANCH   2  29
TORSDOF 5
ENDMDL
MODEL 4
REMARK VINA RESULT:     -10.4      1.995      4.713
REMARK  Name = 54674461
REMARK  5 active torsions:
REMARK  status: ('A' for Active; 'I' for Inactive)
REMARK    1  A    between atoms: N_2  and  C_29
REMARK    2  A    between atoms: C_7  and  C_14
REMARK    3  A    between atoms: C_15  and  N_21
REMARK    4  A    between atoms: C_22  and  O_24
REMARK    5  A    between atoms: C_29  and  C_31
REMARK                            x       y       z     vdW  Elec       q    Type
REMARK                         _______ _______ _______ _____ _____    ______ ____
ROOT
ATOM      1  F   UNL     1      39.564 -25.791 -13.949  0.00  0.00    -0.207 F 
ATOM      2  N   UNL     1      34.510 -23.986 -14.176  0.00  0.00    -0.193 N 
ATOM      3  N   UNL     1      34.460 -23.178 -15.250  0.00  0.00    -0.168 NA
ATOM      4  N   UNL     1      36.077 -25.380 -12.971  0.00  0.00    -0.251 NA
ATOM      5  C   UNL     1      36.554 -24.058 -14.977  0.00  0.00    +0.133 C 
ATOM      6  C   UNL     1      35.739 -24.539 -13.964  0.00  0.00    +0.133 C 
ATOM      7  C   UNL     1      35.706 -23.226 -15.734  0.00  0.00    +0.172 C 
ATOM      8  C   UNL     1      37.890 -24.475 -14.997  0.00  0.00    +0.015 C 
ATOM      9  C   UNL     1      38.302 -25.350 -13.991  0.00  0.00    +0.139 C 
ATOM     10  C   UNL     1      37.377 -25.756 -13.033  0.00  0.00    +0.182 C 
ENDROOT
BRANCH   7  14
ATOM     11  N   UNL     1      35.414 -22.803 -18.049  0.00  0.00    -0.326 NA
ATOM     12  N   UNL     1      36.986 -21.512 -16.756  0.00  0.00    -0.326 NA
ATOM     13  N   UNL     1      35.127 -22.377 -20.361  0.00  0.00    -0.334 N 
ATOM     14  C   UNL     1      36.054 -22.472 -16.911  0.00  0.00    +0.156 C 
ATOM     15  C   UNL     1      36.706 -21.070 -19.106  0.00  0.00    +0.210 C 
ATOM     16  C   UNL     1      35.766 -22.079 -19.131  0.00  0.00    +0.193 C 
ATOM     17  C   UNL     1      37.290 -20.827 -17.879  0.00  0.00    +0.193 C 
ATOM     18  H   UNL     1      34.453 -23.094 -20.403  0.00  0.00    +0.144 HD
ATOM     19  H   UNL     1      35.357 -21.869 -21.171  0.00  0.00    +0.144 HD
ATOM     20  N   UNL     1      38.266 -19.804 -17.783  0.00  0.00    -0.334 N 
ATOM     21  H   UNL     1      38.695 -19.614 -16.918  0.00  0.00    +0.144 HD
ATOM     22  H   UNL     1      38.514 -19.285 -18.582  0.00  0.00    +0.144 HD
BRANCH  15  24
ATOM     23  O   UNL     1      35.023 -19.381 -20.935  0.00  0.00    -0.226 OA
ATOM     24  N   UNL     1      37.048 -20.342 -20.248  0.00  0.00    -0.258 N 
ATOM     25  C   UNL     1      36.226 -19.571 -21.064  0.00  0.00    +0.402 C 
ATOM     26  H   UNL     1      37.997 -20.378 -20.510  0.00  0.00    +0.154 HD
BRANCH  25  27
ATOM     27  O   UNL     1      36.973 -19.030 -22.075  0.00  0.00    -0.431 OA
ATOM     28  C   UNL     1      36.240 -18.521 -23.196  0.00  0.00    +0.257 C 
ENDBRANCH  25  27
ENDBRANCH  15  24
ENDBRANCH   7  14
BRANCH   2  29
ATOM     29  C   UNL     1      33.322 -24.186 -13.379  0.00  0.00    +0.146 C 
BRANCH  29  31
ATOM     30  F   UNL     1      32.037 -21.893 -14.439  0.00  0.00    -0.204 F 
ATOM     31  C   UNL     1      32.058 -24.255 -14.200  0.00  0.00    +0.027 C 
ATOM     32  C   UNL     1      31.478 -23.085 -14.691  0.00  0.00    +0.138 C 
ATOM     33  C   UNL     1      31.469 -25.491 -14.468  0.00  0.00    -0.000 C 
ATOM     34  C   UNL     1      30.310 -23.151 -15.450  0.00  0.00    +0.029 C 
ATOM     35  C   UNL     1      30.300 -25.557 -15.226  0.00  0.00    -0.000 C 
ATOM     36  C   UNL     1      29.720 -24.387 -15.717  0.00  0.00    +0.002 C 
ENDBRANCH  29  31
ENDBRANCH   2  29
TORSDOF 5
ENDMDL
MODEL 5
REMARK VINA RESULT:     -10.2      1.646      2.045
REMARK  Name = 54674461
REMARK  5 active torsions:
REMARK  status: ('A' for Active; 'I' for Inactive)
REMARK    1  A    between atoms: N_2  and  C_29
REMARK    2  A    between atoms: C_7  and  C_14
REMARK    3  A    between atoms: C_15  and  N_21
REMARK    4  A    between atoms: C_22  and  O_24
REMARK    5  A    between atoms: C_29  and  C_31
REMARK                            x       y       z     vdW  Elec       q    Type
REMARK                         _______ _______ _______ _____ _____    ______ ____
ROOT
ATOM      1  F   UNL     1      29.518 -23.553 -15.080  0.00  0.00    -0.207 F 
ATOM      2  N   UNL     1      34.737 -24.427 -14.152  0.00  0.00    -0.193 N 
ATOM      3  N   UNL     1      35.384 -23.943 -15.227  0.00  0.00    -0.168 NA
ATOM      4  N   UNL     1      32.489 -24.677 -13.293  0.00  0.00    -0.251 NA
ATOM      5  C   UNL     1      33.122 -23.662 -15.430  0.00  0.00    +0.133 C 
ATOM      6  C   UNL     1      33.381 -24.286 -14.220  0.00  0.00    +0.133 C 
ATOM      7  C   UNL     1      34.397 -23.478 -16.001  0.00  0.00    +0.172 C 
ATOM      8  C   UNL     1      31.788 -23.394 -15.758  0.00  0.00    +0.015 C 
ATOM      9  C   UNL     1      30.814 -23.778 -14.834  0.00  0.00    +0.139 C 
ATOM     10  C   UNL     1      31.214 -24.397 -13.654  0.00  0.00    +0.182 C 
ENDROOT
BRANCH   7  14
ATOM     11  N   UNL     1      33.691 -22.800 -18.161  0.00  0.00    -0.326 NA
ATOM     12  N   UNL     1      35.961 -22.430 -17.442  0.00  0.00    -0.326 NA
ATOM     13  N   UNL     1      32.990 -22.121 -20.319  0.00  0.00    -0.334 N 
ATOM     14  C   UNL     1      34.700 -22.869 -17.271  0.00  0.00    +0.156 C 
ATOM     15  C   UNL     1      35.263 -21.737 -19.639  0.00  0.00    +0.210 C 
ATOM     16  C   UNL     1      34.009 -22.226 -19.339  0.00  0.00    +0.193 C 
ATOM     17  C   UNL     1      36.210 -21.867 -18.643  0.00  0.00    +0.193 C 
ATOM     18  H   UNL     1      32.087 -22.463 -20.127  0.00  0.00    +0.144 HD
ATOM     19  H   UNL     1      33.185 -21.706 -21.190  0.00  0.00    +0.144 HD
ATOM     20  N   UNL     1      37.521 -21.386 -18.887  0.00  0.00    -0.334 N 
ATOM     21  H   UNL     1      38.212 -21.469 -18.191  0.00  0.00    +0.144 HD
ATOM     22  H   UNL     1      37.739 -20.971 -19.752  0.00  0.00    +0.144 HD
BRANCH  15  24
ATOM     23  O   UNL     1      34.360 -19.135 -20.843  0.00  0.00    -0.226 OA
ATOM     24  N   UNL     1      35.559 -21.150 -20.872  0.00  0.00    -0.258 N 
ATOM     25  C   UNL     1      35.112 -19.936 -21.385  0.00  0.00    +0.402 C 
ATOM     26  H   UNL     1      36.163 -21.663 -21.456  0.00  0.00    +0.154 HD
BRANCH  25  27
ATOM     27  O   UNL     1      35.648 -19.747 -22.630  0.00  0.00    -0.431 OA
ATOM     28  C   UNL     1      35.302 -18.520 -23.284  0.00  0.00    +0.257 C 
ENDBRANCH  25  27
ENDBRANCH  15  24
ENDBRANCH   7  14
BRANCH   2  29
ATOM     29  C   UNL     1      35.492 -25.024 -13.075  0.00  0.00    +0.146 C 
BRANCH  29  31
ATOM     30  F   UNL     1      36.261 -26.983 -14.973  0.00  0.00    -0.204 F 
ATOM     31  C   UNL     1      36.929 -25.301 -13.437  0.00  0.00    +0.027 C 
ATOM     32  C   UNL     1      37.237 -26.281 -14.381  0.00  0.00    +0.138 C 
ATOM     33  C   UNL     1      37.953 -24.576 -12.826  0.00  0.00    -0.000 C 
ATOM     34  C   UNL     1      38.567 -26.535 -14.714  0.00  0.00    +0.029 C 
ATOM     35  C   UNL     1      39.284 -24.831 -13.159  0.00  0.00    -0.000 C 
ATOM     36  C   UNL     1      39.591 -25.811 -14.102  0.00  0.00    +0.002 C 
ENDBRANCH  29  31
ENDBRANCH   2  29
TORSDOF 5
ENDMDL
MODEL 6
REMARK VINA RESULT:     -10.1      1.202      2.089
REMARK  Name = 54674461
REMARK  5 active torsions:
REMARK  status: ('A' for Active; 'I' for Inactive)
REMARK    1  A    between atoms: N_2  and  C_29
REMARK    2  A    between atoms: C_7  and  C_14
REMARK    3  A    between atoms: C_15  and  N_21
REMARK    4  A    between atoms: C_22  and  O_24
REMARK    5  A    between atoms: C_29  and  C_31
REMARK                            x       y       z     vdW  Elec       q    Type
REMARK                         _______ _______ _______ _____ _____    ______ ____
ROOT
ATOM      1  F   UNL     1      30.871 -23.664 -15.599  0.00  0.00    -0.207 F 
ATOM      2  N   UNL     1      36.221 -23.934 -15.996  0.00  0.00    -0.193 N 
ATOM      3  N   UNL     1      36.544 -23.200 -17.076  0.00  0.00    -0.168 NA
ATOM      4  N   UNL     1      34.277 -24.630 -14.735  0.00  0.00    -0.251 NA
ATOM      5  C   UNL     1      34.282 -23.211 -16.731  0.00  0.00    +0.133 C 
ATOM      6  C   UNL     1      34.881 -23.975 -15.743  0.00  0.00    +0.133 C 
ATOM      7  C   UNL     1      35.360 -22.762 -17.519  0.00  0.00    +0.172 C 
ATOM      8  C   UNL     1      32.888 -23.084 -16.708  0.00  0.00    +0.015 C 
ATOM      9  C   UNL     1      32.204 -23.741 -15.684  0.00  0.00    +0.139 C 
ATOM     10  C   UNL     1      32.931 -24.478 -14.754  0.00  0.00    +0.182 C 
ENDROOT
BRANCH   7  14
ATOM     11  N   UNL     1      36.452 -21.395 -19.120  0.00  0.00    -0.326 NA
ATOM     12  N   UNL     1      34.071 -21.750 -19.232  0.00  0.00    -0.326 NA
ATOM     13  N   UNL     1      37.537 -20.029 -20.721  0.00  0.00    -0.334 N 
ATOM     14  C   UNL     1      35.290 -21.923 -18.689  0.00  0.00    +0.156 C 
ATOM     15  C   UNL     1      35.161 -20.357 -20.866  0.00  0.00    +0.210 C 
ATOM     16  C   UNL     1      36.350 -20.614 -20.215  0.00  0.00    +0.193 C 
ATOM     17  C   UNL     1      34.042 -20.957 -20.324  0.00  0.00    +0.193 C 
ATOM     18  H   UNL     1      38.398 -20.198 -20.274  0.00  0.00    +0.144 HD
ATOM     19  H   UNL     1      37.502 -19.454 -21.520  0.00  0.00    +0.144 HD
ATOM     20  N   UNL     1      32.787 -20.733 -20.943  0.00  0.00    -0.334 N 
ATOM     21  H   UNL     1      31.975 -21.151 -20.574  0.00  0.00    +0.144 HD
ATOM     22  H   UNL     1      32.727 -20.159 -21.741  0.00  0.00    +0.144 HD
BRANCH  15  24
ATOM     23  O   UNL     1      35.591 -17.400 -21.181  0.00  0.00    -0.226 OA
ATOM     24  N   UNL     1      35.092 -19.540 -21.997  0.00  0.00    -0.258 N 
ATOM     25  C   UNL     1      35.301 -18.167 -22.090  0.00  0.00    +0.402 C 
ATOM     26  H   UNL     1      34.865 -19.995 -22.840  0.00  0.00    +0.154 HD
BRANCH  25  27
ATOM     27  O   UNL     1      35.133 -17.772 -23.390  0.00  0.00    -0.431 OA
ATOM     28  C   UNL     1      34.715 -18.790 -24.307  0.00  0.00    +0.257 C 
ENDBRANCH  25  27
ENDBRANCH  15  24
ENDBRANCH   7  14
BRANCH   2  29
ATOM     29  C   UNL     1      37.266 -24.581 -15.238  0.00  0.00    +0.146 C 
BRANCH  29  31
ATOM     30  F   UNL     1      36.802 -26.702 -13.416  0.00  0.00    -0.204 F 
ATOM     31  C   UNL     1      37.138 -24.375 -13.750  0.00  0.00    +0.027 C 
ATOM     32  C   UNL     1      36.910 -25.466 -12.909  0.00  0.00    +0.138 C 
ATOM     33  C   UNL     1      37.249 -23.093 -13.212  0.00  0.00    -0.000 C 
ATOM     34  C   UNL     1      36.793 -25.273 -11.533  0.00  0.00    +0.029 C 
ATOM     35  C   UNL     1      37.131 -22.901 -11.835  0.00  0.00    -0.000 C 
ATOM     36  C   UNL     1      36.903 -23.990 -10.996  0.00  0.00    +0.002 C 
ENDBRANCH  29  31
ENDBRANCH   2  29
TORSDOF 5
ENDMDL
MODEL 7
REMARK VINA RESULT:      -9.8      3.852      7.318
REMARK  Name = 54674461
REMARK  5 active torsions:
REMARK  status: ('A' for Active; 'I' for Inactive)
REMARK    1  A    between atoms: N_2  and  C_29
REMARK    2  A    between atoms: C_7  and  C_14
REMARK    3  A    between atoms: C_15  and  N_21
REMARK    4  A    between atoms: C_22  and  O_24
REMARK    5  A    between atoms: C_29  and  C_31
REMARK                            x       y       z     vdW  Elec       q    Type
REMARK                         _______ _______ _______ _____ _____    ______ ____
ROOT
ATOM      1  F   UNL     1      35.981 -20.783 -21.056  0.00  0.00    -0.207 F 
ATOM      2  N   UNL     1      32.747 -22.921 -17.337  0.00  0.00    -0.193 N 
ATOM      3  N   UNL     1      33.558 -23.551 -16.467  0.00  0.00    -0.168 NA
ATOM      4  N   UNL     1      32.859 -21.616 -19.370  0.00  0.00    -0.251 NA
ATOM      5  C   UNL     1      34.757 -22.562 -18.147  0.00  0.00    +0.133 C 
ATOM      6  C   UNL     1      33.411 -22.313 -18.362  0.00  0.00    +0.133 C 
ATOM      7  C   UNL     1      34.780 -23.329 -16.965  0.00  0.00    +0.172 C 
ATOM      8  C   UNL     1      35.675 -22.043 -19.068  0.00  0.00    +0.015 C 
ATOM      9  C   UNL     1      35.162 -21.309 -20.137  0.00  0.00    +0.139 C 
ATOM     10  C   UNL     1      33.785 -21.134 -20.233  0.00  0.00    +0.182 C 
ENDROOT
BRANCH   7  14
ATOM     11  N   UNL     1      37.109 -23.230 -16.533  0.00  0.00    -0.326 NA
ATOM     12  N   UNL     1      35.742 -24.925 -15.500  0.00  0.00    -0.326 NA
ATOM     13  N   UNL     1      39.435 -23.137 -16.097  0.00  0.00    -0.334 N 
ATOM     14  C   UNL     1      35.941 -23.857 -16.295  0.00  0.00    +0.156 C 
ATOM     15  C   UNL     1      38.106 -24.843 -15.050  0.00  0.00    +0.210 C 
ATOM     16  C   UNL     1      38.175 -23.752 -15.891  0.00  0.00    +0.193 C 
ATOM     17  C   UNL     1      36.851 -25.395 -14.890  0.00  0.00    +0.193 C 
ATOM     18  H   UNL     1      39.510 -22.356 -16.693  0.00  0.00    +0.144 HD
ATOM     19  H   UNL     1      40.235 -23.489 -15.645  0.00  0.00    +0.144 HD
ATOM     20  N   UNL     1      36.708 -26.521 -14.041  0.00  0.00    -0.334 N 
ATOM     21  H   UNL     1      35.823 -26.931 -13.912  0.00  0.00    +0.144 HD
ATOM     22  H   UNL     1      37.496 -26.892 -13.580  0.00  0.00    +0.144 HD
BRANCH  15  24
ATOM     23  O   UNL     1      40.616 -26.069 -16.158  0.00  0.00    -0.226 OA
ATOM     24  N   UNL     1      39.232 -25.359 -14.404  0.00  0.00    -0.258 N 
ATOM     25  C   UNL     1      40.375 -25.918 -14.966  0.00  0.00    +0.402 C 
ATOM     26  H   UNL     1      39.215 -25.321 -13.420  0.00  0.00    +0.154 HD
BRANCH  25  27
ATOM     27  O   UNL     1      41.232 -26.295 -13.968  0.00  0.00    -0.431 OA
ATOM     28  C   UNL     1      41.766 -27.621 -14.064  0.00  0.00    +0.257 C 
ENDBRANCH  25  27
ENDBRANCH  15  24
ENDBRANCH   7  14
BRANCH   2  29
ATOM     29  C   UNL     1      31.320 -22.943 -17.122  0.00  0.00    +0.146 C 
BRANCH  29  31
ATOM     30  F   UNL     1      31.784 -22.057 -14.470  0.00  0.00    -0.204 F 
ATOM     31  C   UNL     1      30.911 -23.735 -15.906  0.00  0.00    +0.027 C 
ATOM     32  C   UNL     1      31.171 -23.239 -14.628  0.00  0.00    +0.138 C 
ATOM     33  C   UNL     1      30.272 -24.965 -16.058  0.00  0.00    -0.000 C 
ATOM     34  C   UNL     1      30.791 -23.972 -13.504  0.00  0.00    +0.029 C 
ATOM     35  C   UNL     1      29.893 -25.700 -14.934  0.00  0.00    -0.000 C 
ATOM     36  C   UNL     1      30.153 -25.204 -13.657  0.00  0.00    +0.002 C 
ENDBRANCH  29  31
ENDBRANCH   2  29
TORSDOF 5
ENDMDL
MODEL 8
REMARK VINA RESULT:      -9.5      8.776     13.430
REMARK  Name = 54674461
REMARK  5 active torsions:
REMARK  status: ('A' for Active; 'I' for Inactive)
REMARK    1  A    between atoms: N_2  and  C_29
REMARK    2  A    between atoms: C_7  and  C_14
REMARK    3  A    between atoms: C_15  and  N_21
REMARK    4  A    between atoms: C_22  and  O_24
REMARK    5  A    between atoms: C_29  and  C_31
REMARK                            x       y       z     vdW  Elec       q    Type
REMARK                         _______ _______ _______ _____ _____    ______ ____
ROOT
ATOM      1  F   UNL     1      31.596 -11.918 -17.436  0.00  0.00    -0.207 F 
ATOM      2  N   UNL     1      31.910 -10.433 -22.589  0.00  0.00    -0.193 N 
ATOM      3  N   UNL     1      32.604 -11.406 -23.207  0.00  0.00    -0.168 NA
ATOM      4  N   UNL     1      31.082  -9.849 -20.392  0.00  0.00    -0.251 NA
ATOM      5  C   UNL     1      32.358 -11.856 -20.977  0.00  0.00    +0.133 C 
ATOM      6  C   UNL     1      31.733 -10.650 -21.254  0.00  0.00    +0.133 C 
ATOM      7  C   UNL     1      32.874 -12.269 -22.222  0.00  0.00    +0.172 C 
ATOM      8  C   UNL     1      32.328 -12.323 -19.658  0.00  0.00    +0.015 C 
ATOM      9  C   UNL     1      31.666 -11.534 -18.716  0.00  0.00    +0.139 C 
ATOM     10  C   UNL     1      31.080 -10.342 -19.131  0.00  0.00    +0.182 C 
ENDROOT
BRANCH   7  14
ATOM     11  N   UNL     1      34.015 -14.191 -21.429  0.00  0.00    -0.326 NA
ATOM     12  N   UNL     1      33.850 -13.752 -23.793  0.00  0.00    -0.326 NA
ATOM     13  N   UNL     1      35.156 -16.111 -20.643  0.00  0.00    -0.334 N 
ATOM     14  C   UNL     1      33.620 -13.470 -22.497  0.00  0.00    +0.156 C 
ATOM     15  C   UNL     1      35.014 -15.707 -23.008  0.00  0.00    +0.210 C 
ATOM     16  C   UNL     1      34.712 -15.307 -21.723  0.00  0.00    +0.193 C 
ATOM     17  C   UNL     1      34.553 -14.883 -24.014  0.00  0.00    +0.193 C 
ATOM     18  H   UNL     1      34.952 -15.846 -19.716  0.00  0.00    +0.144 HD
ATOM     19  H   UNL     1      35.666 -16.934 -20.819  0.00  0.00    +0.144 HD
ATOM     20  N   UNL     1      34.830 -15.234 -25.359  0.00  0.00    -0.334 N 
ATOM     21  H   UNL     1      34.511 -14.661 -26.093  0.00  0.00    +0.144 HD
ATOM     22  H   UNL     1      35.342 -16.051 -25.558  0.00  0.00    +0.144 HD
BRANCH  15  24
ATOM     23  O   UNL     1      34.281 -18.169 -24.567  0.00  0.00    -0.226 OA
ATOM     24  N   UNL     1      35.742 -16.869 -23.275  0.00  0.00    -0.258 N 
ATOM     25  C   UNL     1      35.355 -17.987 -24.007  0.00  0.00    +0.402 C 
ATOM     26  H   UNL     1      36.650 -16.901 -22.895  0.00  0.00    +0.154 HD
BRANCH  25  27
ATOM     27  O   UNL     1      36.378 -18.897 -24.019  0.00  0.00    -0.431 OA
ATOM     28  C   UNL     1      37.249 -18.878 -22.882  0.00  0.00    +0.257 C 
ENDBRANCH  25  27
ENDBRANCH  15  24
ENDBRANCH   7  14
BRANCH   2  29
ATOM     29  C   UNL     1      31.437  -9.302 -23.352  0.00  0.00    +0.146 C 
BRANCH  29  31
ATOM     30  F   UNL     1      30.863  -6.730 -24.394  0.00  0.00    -0.204 F 
ATOM     31  C   UNL     1      32.494  -8.249 -23.576  0.00  0.00    +0.027 C 
ATOM     32  C   UNL     1      32.140  -7.002 -24.093  0.00  0.00    +0.138 C 
ATOM     33  C   UNL     1      33.826  -8.523 -23.265  0.00  0.00    -0.000 C 
ATOM     34  C   UNL     1      33.119  -6.030 -24.298  0.00  0.00    +0.029 C 
ATOM     35  C   UNL     1      34.805  -7.550 -23.471  0.00  0.00    -0.000 C 
ATOM     36  C   UNL     1      34.452  -6.304 -23.988  0.00  0.00    +0.002 C 
ENDBRANCH  29  31
ENDBRANCH   2  29
TORSDOF 5
ENDMDL
MODEL 9
REMARK VINA RESULT:      -9.4      8.662     13.267
REMARK  Name = 54674461
REMARK  5 active torsions:
REMARK  status: ('A' for Active; 'I' for Inactive)
REMARK    1  A    between atoms: N_2  and  C_29
REMARK    2  A    between atoms: C_7  and  C_14
REMARK    3  A    between atoms: C_15  and  N_21
REMARK    4  A    between atoms: C_22  and  O_24
REMARK    5  A    between atoms: C_29  and  C_31
REMARK                            x       y       z     vdW  Elec       q    Type
REMARK                         _______ _______ _______ _____ _____    ______ ____
ROOT
ATOM      1  F   UNL     1      31.605 -12.036 -17.360  0.00  0.00    -0.207 F 
ATOM      2  N   UNL     1      31.897 -10.577 -22.522  0.00  0.00    -0.193 N 
ATOM      3  N   UNL     1      32.598 -11.547 -23.135  0.00  0.00    -0.168 NA
ATOM      4  N   UNL     1      31.069  -9.988 -20.326  0.00  0.00    -0.251 NA
ATOM      5  C   UNL     1      32.360 -11.987 -20.902  0.00  0.00    +0.133 C 
ATOM      6  C   UNL     1      31.725 -10.788 -21.185  0.00  0.00    +0.133 C 
ATOM      7  C   UNL     1      32.877 -12.403 -22.145  0.00  0.00    +0.172 C 
ATOM      8  C   UNL     1      32.336 -12.447 -19.580  0.00  0.00    +0.015 C 
ATOM      9  C   UNL     1      31.669 -11.658 -18.642  0.00  0.00    +0.139 C 
ATOM     10  C   UNL     1      31.073 -10.473 -19.062  0.00  0.00    +0.182 C 
ENDROOT
BRANCH   7  14
ATOM     11  N   UNL     1      33.882 -13.875 -23.710  0.00  0.00    -0.326 NA
ATOM     12  N   UNL     1      34.012 -14.324 -21.346  0.00  0.00    -0.326 NA
ATOM     13  N   UNL     1      34.887 -15.348 -25.267  0.00  0.00    -0.334 N 
ATOM     14  C   UNL     1      33.632 -13.600 -22.415  0.00  0.00    +0.156 C 
ATOM     15  C   UNL     1      35.038 -15.832 -22.918  0.00  0.00    +0.210 C 
ATOM     16  C   UNL     1      34.590 -15.002 -23.926  0.00  0.00    +0.193 C 
ATOM     17  C   UNL     1      34.716 -15.439 -21.634  0.00  0.00    +0.193 C 
ATOM     18  H   UNL     1      34.578 -14.772 -26.004  0.00  0.00    +0.144 HD
ATOM     19  H   UNL     1      35.403 -16.163 -25.463  0.00  0.00    +0.144 HD
ATOM     20  N   UNL     1      35.145 -16.247 -20.551  0.00  0.00    -0.334 N 
ATOM     21  H   UNL     1      34.927 -15.987 -19.628  0.00  0.00    +0.144 HD
ATOM     22  H   UNL     1      35.659 -17.068 -20.724  0.00  0.00    +0.144 HD
BRANCH  15  24
ATOM     23  O   UNL     1      34.286 -18.326 -24.416  0.00  0.00    -0.226 OA
ATOM     24  N   UNL     1      35.766 -16.995 -23.179  0.00  0.00    -0.258 N 
ATOM     25  C   UNL     1      35.370 -18.128 -23.882  0.00  0.00    +0.402 C 
ATOM     26  H   UNL     1      36.682 -17.015 -22.817  0.00  0.00    +0.154 HD
BRANCH  25  27
ATOM     27  O   UNL     1      36.398 -19.032 -23.899  0.00  0.00    -0.431 OA
ATOM     28  C   UNL     1      37.368 -18.900 -22.852  0.00  0.00    +0.257 C 
ENDBRANCH  25  27
ENDBRANCH  15  24
ENDBRANCH   7  14
BRANCH   2  29
ATOM     29  C   UNL     1      31.414  -9.454 -23.289  0.00  0.00    +0.146 C 
BRANCH  29  31
ATOM     30  F   UNL     1      30.704  -6.731 -22.950  0.00  0.00    -0.204 F 
ATOM     31  C   UNL     1      32.409  -8.325 -23.387  0.00  0.00    +0.027 C 
ATOM     32  C   UNL     1      31.990  -7.006 -23.209  0.00  0.00    +0.138 C 
ATOM     33  C   UNL     1      33.750  -8.600 -23.655  0.00  0.00    -0.000 C 
ATOM     34  C   UNL     1      32.912  -5.963 -23.298  0.00  0.00    +0.029 C 
ATOM     35  C   UNL     1      34.672  -7.557 -23.746  0.00  0.00    -0.000 C 
ATOM     36  C   UNL     1      34.253  -6.239 -23.568  0.00  0.00    +0.002 C 
ENDBRANCH  29  31
ENDBRANCH   2  29
TORSDOF 5
ENDMDL
