MODEL 1
REMARK VINA RESULT:     -11.3      0.000      0.000
REMARK  Name = 70798655
REMARK  2 active torsions:
REMARK  status: ('A' for Active; 'I' for Inactive)
REMARK    1  A    between atoms: C_3  and  C_29
REMARK    2  A    between atoms: C_5  and  C_13
REMARK                            x       y       z     vdW  Elec       q    Type
REMARK                         _______ _______ _______ _____ _____    ______ ____
ROOT
ATOM      1  N   UNL     1      34.119 -23.773 -15.302  0.00  0.00    -0.245 N 
ATOM      2  N   UNL     1      32.512 -24.760 -14.101  0.00  0.00    -0.227 NA
ATOM      3  C   UNL     1      34.709 -24.200 -14.140  0.00  0.00    +0.130 C 
ATOM      4  C   UNL     1      32.780 -24.138 -15.231  0.00  0.00    +0.139 C 
ATOM      5  C   UNL     1      33.911 -22.770 -17.441  0.00  0.00    +0.012 C 
ATOM      6  C   UNL     1      34.684 -23.101 -16.384  0.00  0.00    +0.071 C 
ATOM      7  C   UNL     1      33.703 -24.801 -13.421  0.00  0.00    +0.120 C 
ATOM      8  C   UNL     1      31.959 -23.796 -16.341  0.00  0.00    +0.035 C 
ATOM      9  C   UNL     1      32.494 -23.146 -17.393  0.00  0.00    +0.004 C 
ENDROOT
BRANCH   5  13
ATOM     10  O   UNL     1      36.016 -20.072 -21.819  0.00  0.00    -0.414 OA
ATOM     11  N   UNL     1      33.754 -20.112 -21.679  0.00  0.00    -0.356 NA
ATOM     12  N   UNL     1      34.871 -18.996 -23.495  0.00  0.00    -0.302 N 
ATOM     13  C   UNL     1      34.518 -22.065 -18.587  0.00  0.00    -0.014 C 
ATOM     14  C   UNL     1      33.686 -21.453 -19.535  0.00  0.00    +0.089 C 
ATOM     15  C   UNL     1      35.913 -22.019 -18.708  0.00  0.00    -0.001 C 
ATOM     16  C   UNL     1      34.291 -20.790 -20.613  0.00  0.00    +0.152 C 
ATOM     17  C   UNL     1      35.676 -20.769 -20.695  0.00  0.00    +0.175 C 
ATOM     18  C   UNL     1      36.532 -21.362 -19.776  0.00  0.00    +0.040 C 
ATOM     19  C   UNL     1      34.813 -19.713 -22.349  0.00  0.00    +0.341 C 
ATOM     20  H   UNL     1      35.744 -18.767 -23.889  0.00  0.00    +0.148 HD
ATOM     21  H   UNL     1      34.041 -18.703 -23.934  0.00  0.00    +0.148 HD
ENDBRANCH   5  13
BRANCH   3  29
ATOM     22  O   UNL     1      38.857 -27.021 -14.764  0.00  0.00    -0.350 OA
ATOM     23  O   UNL     1      36.374 -23.130 -12.975  0.00  0.00    -0.268 OA
ATOM     24  N   UNL     1      37.059 -24.893 -14.347  0.00  0.00    -0.270 N 
ATOM     25  C   UNL     1      38.475 -24.752 -14.013  0.00  0.00    +0.126 C 
ATOM     26  C   UNL     1      36.773 -25.923 -15.353  0.00  0.00    +0.126 C 
ATOM     27  C   UNL     1      37.459 -27.231 -14.977  0.00  0.00    +0.164 C 
ATOM     28  C   UNL     1      39.079 -26.109 -13.684  0.00  0.00    +0.164 C 
ATOM     29  C   UNL     1      36.121 -24.033 -13.771  0.00  0.00    +0.265 C 
ENDBRANCH   3  29
TORSDOF 2
ENDMDL
MODEL 2
REMARK VINA RESULT:     -10.8      1.206      1.827
REMARK  Name = 70798655
REMARK  2 active torsions:
REMARK  status: ('A' for Active; 'I' for Inactive)
REMARK    1  A    between atoms: C_3  and  C_29
REMARK    2  A    between atoms: C_5  and  C_13
REMARK                            x       y       z     vdW  Elec       q    Type
REMARK                         _______ _______ _______ _____ _____    ______ ____
ROOT
ATOM      1  N   UNL     1      33.847 -24.021 -15.834  0.00  0.00    -0.245 N 
ATOM      2  N   UNL     1      32.154 -24.716 -14.549  0.00  0.00    -0.227 NA
ATOM      3  C   UNL     1      34.401 -24.795 -14.846  0.00  0.00    +0.130 C 
ATOM      4  C   UNL     1      32.475 -24.004 -15.609  0.00  0.00    +0.139 C 
ATOM      5  C   UNL     1      33.725 -22.636 -17.756  0.00  0.00    +0.012 C 
ATOM      6  C   UNL     1      34.469 -23.353 -16.885  0.00  0.00    +0.071 C 
ATOM      7  C   UNL     1      33.343 -25.208 -14.072  0.00  0.00    +0.120 C 
ATOM      8  C   UNL     1      31.683 -23.254 -16.522  0.00  0.00    +0.035 C 
ATOM      9  C   UNL     1      32.274 -22.604 -17.543  0.00  0.00    +0.004 C 
ENDROOT
BRANCH   5  13
ATOM     10  O   UNL     1      36.055 -19.951 -22.025  0.00  0.00    -0.414 OA
ATOM     11  N   UNL     1      33.791 -19.877 -21.931  0.00  0.00    -0.356 NA
ATOM     12  N   UNL     1      35.002 -18.779 -23.697  0.00  0.00    -0.302 N 
ATOM     13  C   UNL     1      34.390 -21.938 -18.872  0.00  0.00    -0.014 C 
ATOM     14  C   UNL     1      33.610 -21.262 -19.822  0.00  0.00    +0.089 C 
ATOM     15  C   UNL     1      35.789 -21.961 -18.964  0.00  0.00    -0.001 C 
ATOM     16  C   UNL     1      34.271 -20.607 -20.871  0.00  0.00    +0.152 C 
ATOM     17  C   UNL     1      35.656 -20.655 -20.925  0.00  0.00    +0.175 C 
ATOM     18  C   UNL     1      36.462 -21.312 -20.005  0.00  0.00    +0.040 C 
ATOM     19  C   UNL     1      34.884 -19.519 -22.571  0.00  0.00    +0.341 C 
ATOM     20  H   UNL     1      35.893 -18.587 -24.069  0.00  0.00    +0.148 HD
ATOM     21  H   UNL     1      34.197 -18.434 -24.146  0.00  0.00    +0.148 HD
ENDBRANCH   5  13
BRANCH   3  29
ATOM     22  O   UNL     1      37.678 -24.266 -11.034  0.00  0.00    -0.350 OA
ATOM     23  O   UNL     1      36.455 -25.357 -15.705  0.00  0.00    -0.268 OA
ATOM     24  N   UNL     1      36.359 -25.078 -13.388  0.00  0.00    -0.270 N 
ATOM     25  C   UNL     1      37.774 -25.383 -13.179  0.00  0.00    +0.126 C 
ATOM     26  C   UNL     1      35.601 -24.843 -12.152  0.00  0.00    +0.126 C 
ATOM     27  C   UNL     1      36.333 -23.841 -11.269  0.00  0.00    +0.164 C 
ATOM     28  C   UNL     1      38.409 -24.350 -12.260  0.00  0.00    +0.164 C 
ATOM     29  C   UNL     1      35.828 -25.098 -14.679  0.00  0.00    +0.265 C 
ENDBRANCH   3  29
TORSDOF 2
ENDMDL
MODEL 3
REMARK VINA RESULT:     -10.7      4.572     10.686
REMARK  Name = 70798655
REMARK  2 active torsions:
REMARK  status: ('A' for Active; 'I' for Inactive)
REMARK    1  A    between atoms: C_3  and  C_29
REMARK    2  A    between atoms: C_5  and  C_13
REMARK                            x       y       z     vdW  Elec       q    Type
REMARK                         _______ _______ _______ _____ _____    ______ ____
ROOT
ATOM      1  N   UNL     1      34.966 -16.626 -22.671  0.00  0.00    -0.245 N 
ATOM      2  N   UNL     1      35.273 -15.669 -24.668  0.00  0.00    -0.227 NA
ATOM      3  C   UNL     1      34.662 -15.297 -22.517  0.00  0.00    +0.130 C 
ATOM      4  C   UNL     1      35.332 -16.802 -24.000  0.00  0.00    +0.139 C 
ATOM      5  C   UNL     1      35.281 -18.906 -22.099  0.00  0.00    +0.012 C 
ATOM      6  C   UNL     1      34.938 -17.652 -21.731  0.00  0.00    +0.071 C 
ATOM      7  C   UNL     1      34.858 -14.733 -23.755  0.00  0.00    +0.120 C 
ATOM      8  C   UNL     1      35.694 -18.119 -24.398  0.00  0.00    +0.035 C 
ATOM      9  C   UNL     1      35.670 -19.121 -23.497  0.00  0.00    +0.004 C 
ENDROOT
BRANCH   5  13
ATOM     10  O   UNL     1      34.935 -22.982 -18.339  0.00  0.00    -0.414 OA
ATOM     11  N   UNL     1      32.959 -22.141 -19.067  0.00  0.00    -0.356 NA
ATOM     12  N   UNL     1      33.036 -23.912 -17.440  0.00  0.00    -0.302 N 
ATOM     13  C   UNL     1      35.241 -19.990 -21.100  0.00  0.00    -0.014 C 
ATOM     14  C   UNL     1      34.000 -20.457 -20.642  0.00  0.00    +0.089 C 
ATOM     15  C   UNL     1      36.442 -20.535 -20.625  0.00  0.00    -0.001 C 
ATOM     16  C   UNL     1      33.993 -21.488 -19.692  0.00  0.00    +0.152 C 
ATOM     17  C   UNL     1      35.205 -22.000 -19.249  0.00  0.00    +0.175 C 
ATOM     18  C   UNL     1      36.452 -21.565 -19.678  0.00  0.00    +0.040 C 
ATOM     19  C   UNL     1      33.573 -23.004 -18.287  0.00  0.00    +0.341 C 
ATOM     20  H   UNL     1      33.624 -24.500 -16.912  0.00  0.00    +0.148 HD
ATOM     21  H   UNL     1      32.059 -23.984 -17.351  0.00  0.00    +0.148 HD
ENDBRANCH   5  13
BRANCH   3  29
ATOM     22  O   UNL     1      31.678 -11.348 -21.492  0.00  0.00    -0.350 OA
ATOM     23  O   UNL     1      34.826 -14.961 -20.251  0.00  0.00    -0.268 OA
ATOM     24  N   UNL     1      33.166 -13.736 -21.347  0.00  0.00    -0.270 N 
ATOM     25  C   UNL     1      32.694 -13.073 -20.133  0.00  0.00    +0.126 C 
ATOM     26  C   UNL     1      32.395 -13.411 -22.554  0.00  0.00    +0.126 C 
ATOM     27  C   UNL     1      32.236 -11.901 -22.686  0.00  0.00    +0.164 C 
ATOM     28  C   UNL     1      32.535 -11.579 -20.371  0.00  0.00    +0.164 C 
ATOM     29  C   UNL     1      34.223 -14.645 -21.276  0.00  0.00    +0.265 C 
ENDBRANCH   3  29
TORSDOF 2
ENDMDL
MODEL 4
REMARK VINA RESULT:     -10.1      2.940      4.818
REMARK  Name = 70798655
REMARK  2 active torsions:
REMARK  status: ('A' for Active; 'I' for Inactive)
REMARK    1  A    between atoms: C_3  and  C_29
REMARK    2  A    between atoms: C_5  and  C_13
REMARK                            x       y       z     vdW  Elec       q    Type
REMARK                         _______ _______ _______ _____ _____    ______ ____
ROOT
ATOM      1  N   UNL     1      35.046 -22.682 -17.298  0.00  0.00    -0.245 N 
ATOM      2  N   UNL     1      35.878 -23.733 -15.508  0.00  0.00    -0.227 NA
ATOM      3  C   UNL     1      33.984 -23.282 -16.670  0.00  0.00    +0.130 C 
ATOM      4  C   UNL     1      36.178 -22.986 -16.550  0.00  0.00    +0.139 C 
ATOM      5  C   UNL     1      36.236 -21.407 -18.904  0.00  0.00    +0.012 C 
ATOM      6  C   UNL     1      35.065 -21.907 -18.454  0.00  0.00    +0.071 C 
ATOM      7  C   UNL     1      34.521 -23.921 -15.577  0.00  0.00    +0.120 C 
ATOM      8  C   UNL     1      37.416 -22.462 -17.015  0.00  0.00    +0.035 C 
ATOM      9  C   UNL     1      37.447 -21.711 -18.133  0.00  0.00    +0.004 C 
ENDROOT
BRANCH   5  13
ATOM     10  O   UNL     1      36.102 -18.363 -23.550  0.00  0.00    -0.414 OA
ATOM     11  N   UNL     1      34.277 -19.651 -23.162  0.00  0.00    -0.356 NA
ATOM     12  N   UNL     1      34.424 -18.254 -25.116  0.00  0.00    -0.302 N 
ATOM     13  C   UNL     1      36.248 -20.580 -20.127  0.00  0.00    -0.014 C 
ATOM     14  C   UNL     1      35.145 -20.619 -20.992  0.00  0.00    +0.089 C 
ATOM     15  C   UNL     1      37.358 -19.771 -20.401  0.00  0.00    -0.001 C 
ATOM     16  C   UNL     1      35.184 -19.822 -22.146  0.00  0.00    +0.152 C 
ATOM     17  C   UNL     1      36.303 -19.036 -22.380  0.00  0.00    +0.175 C 
ATOM     18  C   UNL     1      37.413 -18.970 -21.547  0.00  0.00    +0.040 C 
ATOM     19  C   UNL     1      34.870 -18.784 -23.954  0.00  0.00    +0.341 C 
ATOM     20  H   UNL     1      34.981 -17.609 -25.609  0.00  0.00    +0.148 HD
ATOM     21  H   UNL     1      33.542 -18.513 -25.468  0.00  0.00    +0.148 HD
ENDBRANCH   5  13
BRANCH   3  29
ATOM     22  O   UNL     1      29.637 -24.901 -14.664  0.00  0.00    -0.350 OA
ATOM     23  O   UNL     1      32.382 -22.921 -18.275  0.00  0.00    -0.268 OA
ATOM     24  N   UNL     1      31.592 -23.538 -16.165  0.00  0.00    -0.270 N 
ATOM     25  C   UNL     1      30.184 -23.493 -16.554  0.00  0.00    +0.126 C 
ATOM     26  C   UNL     1      31.819 -23.842 -14.746  0.00  0.00    +0.126 C 
ATOM     27  C   UNL     1      31.018 -25.071 -14.336  0.00  0.00    +0.164 C 
ATOM     28  C   UNL     1      29.461 -24.743 -16.074  0.00  0.00    +0.164 C 
ATOM     29  C   UNL     1      32.581 -23.235 -17.103  0.00  0.00    +0.265 C 
ENDBRANCH   3  29
TORSDOF 2
ENDMDL
MODEL 5
REMARK VINA RESULT:      -9.9      8.080     13.023
REMARK  Name = 70798655
REMARK  2 active torsions:
REMARK  status: ('A' for Active; 'I' for Inactive)
REMARK    1  A    between atoms: C_3  and  C_29
REMARK    2  A    between atoms: C_5  and  C_13
REMARK                            x       y       z     vdW  Elec       q    Type
REMARK                         _______ _______ _______ _____ _____    ______ ____
ROOT
ATOM      1  N   UNL     1      34.205 -14.312 -25.164  0.00  0.00    -0.245 N 
ATOM      2  N   UNL     1      33.816 -15.754 -26.827  0.00  0.00    -0.227 NA
ATOM      3  C   UNL     1      34.462 -15.562 -24.663  0.00  0.00    +0.130 C 
ATOM      4  C   UNL     1      33.815 -14.482 -26.487  0.00  0.00    +0.139 C 
ATOM      5  C   UNL     1      33.989 -11.951 -25.222  0.00  0.00    +0.012 C 
ATOM      6  C   UNL     1      34.294 -13.073 -24.534  0.00  0.00    +0.071 C 
ATOM      7  C   UNL     1      34.216 -16.428 -25.701  0.00  0.00    +0.120 C 
ATOM      8  C   UNL     1      33.494 -13.306 -27.220  0.00  0.00    +0.035 C 
ATOM      9  C   UNL     1      33.576 -12.102 -26.621  0.00  0.00    +0.004 C 
ENDROOT
BRANCH   5  13
ATOM     10  O   UNL     1      34.208  -7.050 -22.613  0.00  0.00    -0.414 OA
ATOM     11  N   UNL     1      32.340  -8.281 -22.244  0.00  0.00    -0.356 NA
ATOM     12  N   UNL     1      32.638  -6.128 -21.211  0.00  0.00    -0.302 N 
ATOM     13  C   UNL     1      34.094 -10.641 -24.551  0.00  0.00    -0.014 C 
ATOM     14  C   UNL     1      33.049 -10.210 -23.720  0.00  0.00    +0.089 C 
ATOM     15  C   UNL     1      35.233  -9.851 -24.754  0.00  0.00    -0.001 C 
ATOM     16  C   UNL     1      33.177  -8.960 -23.095  0.00  0.00    +0.152 C 
ATOM     17  C   UNL     1      34.321  -8.210 -23.324  0.00  0.00    +0.175 C 
ATOM     18  C   UNL     1      35.376  -8.603 -24.138  0.00  0.00    +0.040 C 
ATOM     19  C   UNL     1      32.999  -7.169 -21.996  0.00  0.00    +0.341 C 
ATOM     20  H   UNL     1      33.237  -5.352 -21.117  0.00  0.00    +0.148 HD
ATOM     21  H   UNL     1      31.777  -6.146 -20.735  0.00  0.00    +0.148 HD
ENDBRANCH   5  13
BRANCH   3  29
ATOM     22  O   UNL     1      35.619 -19.848 -22.245  0.00  0.00    -0.350 OA
ATOM     23  O   UNL     1      34.808 -14.970 -22.471  0.00  0.00    -0.268 OA
ATOM     24  N   UNL     1      35.404 -17.155 -23.044  0.00  0.00    -0.270 N 
ATOM     25  C   UNL     1      35.864 -17.503 -21.701  0.00  0.00    +0.126 C 
ATOM     26  C   UNL     1      35.592 -18.216 -24.042  0.00  0.00    +0.126 C 
ATOM     27  C   UNL     1      35.043 -19.536 -23.517  0.00  0.00    +0.164 C 
ATOM     28  C   UNL     1      35.293 -18.848 -21.276  0.00  0.00    +0.164 C 
ATOM     29  C   UNL     1      34.906 -15.876 -23.298  0.00  0.00    +0.265 C 
ENDBRANCH   3  29
TORSDOF 2
ENDMDL
MODEL 6
REMARK VINA RESULT:      -9.8      3.092      5.349
REMARK  Name = 70798655
REMARK  2 active torsions:
REMARK  status: ('A' for Active; 'I' for Inactive)
REMARK    1  A    between atoms: C_3  and  C_29
REMARK    2  A    between atoms: C_5  and  C_13
REMARK                            x       y       z     vdW  Elec       q    Type
REMARK                         _______ _______ _______ _____ _____    ______ ____
ROOT
ATOM      1  N   UNL     1      36.169 -22.770 -16.538  0.00  0.00    -0.245 N 
ATOM      2  N   UNL     1      37.808 -22.171 -17.936  0.00  0.00    -0.227 NA
ATOM      3  C   UNL     1      37.337 -22.848 -15.824  0.00  0.00    +0.130 C 
ATOM      4  C   UNL     1      36.509 -22.353 -17.819  0.00  0.00    +0.139 C 
ATOM      5  C   UNL     1      33.847 -22.897 -17.007  0.00  0.00    +0.012 C 
ATOM      6  C   UNL     1      34.865 -23.040 -16.130  0.00  0.00    +0.071 C 
ATOM      7  C   UNL     1      38.326 -22.476 -16.703  0.00  0.00    +0.120 C 
ATOM      8  C   UNL     1      35.444 -22.198 -18.750  0.00  0.00    +0.035 C 
ATOM      9  C   UNL     1      34.178 -22.455 -18.366  0.00  0.00    +0.004 C 
ENDROOT
BRANCH   5  13
ATOM     10  O   UNL     1      28.588 -23.812 -15.467  0.00  0.00    -0.414 OA
ATOM     11  N   UNL     1      28.891 -22.197 -17.028  0.00  0.00    -0.356 NA
ATOM     12  N   UNL     1      26.694 -22.753 -16.222  0.00  0.00    -0.302 N 
ATOM     13  C   UNL     1      32.468 -23.177 -16.566  0.00  0.00    -0.014 C 
ATOM     14  C   UNL     1      31.407 -22.445 -17.120  0.00  0.00    +0.089 C 
ATOM     15  C   UNL     1      32.240 -24.169 -15.602  0.00  0.00    -0.001 C 
ATOM     16  C   UNL     1      30.107 -22.733 -16.681  0.00  0.00    +0.152 C 
ATOM     17  C   UNL     1      29.926 -23.722 -15.725  0.00  0.00    +0.175 C 
ATOM     18  C   UNL     1      30.949 -24.468 -15.154  0.00  0.00    +0.040 C 
ATOM     19  C   UNL     1      28.040 -22.870 -16.285  0.00  0.00    +0.341 C 
ATOM     20  H   UNL     1      26.178 -23.330 -15.613  0.00  0.00    +0.148 HD
ATOM     21  H   UNL     1      26.230 -22.093 -16.785  0.00  0.00    +0.148 HD
ENDBRANCH   5  13
BRANCH   3  29
ATOM     22  O   UNL     1      37.542 -27.306 -13.450  0.00  0.00    -0.350 OA
ATOM     23  O   UNL     1      37.307 -22.363 -13.579  0.00  0.00    -0.268 OA
ATOM     24  N   UNL     1      37.771 -24.584 -14.138  0.00  0.00    -0.270 N 
ATOM     25  C   UNL     1      37.920 -25.020 -12.750  0.00  0.00    +0.126 C 
ATOM     26  C   UNL     1      38.038 -25.629 -15.134  0.00  0.00    +0.126 C 
ATOM     27  C   UNL     1      37.262 -26.894 -14.790  0.00  0.00    +0.164 C 
ATOM     28  C   UNL     1      37.139 -26.304 -12.512  0.00  0.00    +0.164 C 
ATOM     29  C   UNL     1      37.469 -23.250 -14.417  0.00  0.00    +0.265 C 
ENDBRANCH   3  29
TORSDOF 2
ENDMDL
MODEL 7
REMARK VINA RESULT:      -9.1      1.834      2.608
REMARK  Name = 70798655
REMARK  2 active torsions:
REMARK  status: ('A' for Active; 'I' for Inactive)
REMARK    1  A    between atoms: C_3  and  C_29
REMARK    2  A    between atoms: C_5  and  C_13
REMARK                            x       y       z     vdW  Elec       q    Type
REMARK                         _______ _______ _______ _____ _____    ______ ____
ROOT
ATOM      1  N   UNL     1      35.797 -24.150 -13.448  0.00  0.00    -0.245 N 
ATOM      2  N   UNL     1      34.792 -24.966 -11.625  0.00  0.00    -0.227 NA
ATOM      3  C   UNL     1      36.792 -24.429 -12.547  0.00  0.00    +0.130 C 
ATOM      4  C   UNL     1      34.596 -24.495 -12.840  0.00  0.00    +0.139 C 
ATOM      5  C   UNL     1      34.770 -23.427 -15.460  0.00  0.00    +0.012 C 
ATOM      6  C   UNL     1      35.892 -23.626 -14.735  0.00  0.00    +0.071 C 
ATOM      7  C   UNL     1      36.150 -24.927 -11.438  0.00  0.00    +0.120 C 
ATOM      8  C   UNL     1      33.408 -24.292 -13.596  0.00  0.00    +0.035 C 
ATOM      9  C   UNL     1      33.488 -23.785 -14.842  0.00  0.00    +0.004 C 
ENDROOT
BRANCH   5  13
ATOM     10  O   UNL     1      35.351 -21.280 -20.552  0.00  0.00    -0.414 OA
ATOM     11  N   UNL     1      37.025 -20.825 -19.092  0.00  0.00    -0.356 NA
ATOM     12  N   UNL     1      37.079 -19.993 -21.350  0.00  0.00    -0.302 N 
ATOM     13  C   UNL     1      34.879 -22.878 -16.825  0.00  0.00    -0.014 C 
ATOM     14  C   UNL     1      35.999 -22.106 -17.168  0.00  0.00    +0.089 C 
ATOM     15  C   UNL     1      33.864 -23.138 -17.756  0.00  0.00    -0.001 C 
ATOM     16  C   UNL     1      36.075 -21.598 -18.473  0.00  0.00    +0.152 C 
ATOM     17  C   UNL     1      35.048 -21.879 -19.363  0.00  0.00    +0.175 C 
ATOM     18  C   UNL     1      33.925 -22.639 -19.061  0.00  0.00    +0.040 C 
ATOM     19  C   UNL     1      36.546 -20.673 -20.308  0.00  0.00    +0.341 C 
ATOM     20  H   UNL     1      36.604 -19.963 -22.212  0.00  0.00    +0.148 HD
ATOM     21  H   UNL     1      37.941 -19.529 -21.245  0.00  0.00    +0.148 HD
ENDBRANCH   5  13
BRANCH   3  29
ATOM     22  O   UNL     1      40.322 -26.822 -15.261  0.00  0.00    -0.350 OA
ATOM     23  O   UNL     1      38.789 -23.443 -11.984  0.00  0.00    -0.268 OA
ATOM     24  N   UNL     1      38.853 -24.916 -13.797  0.00  0.00    -0.270 N 
ATOM     25  C   UNL     1      40.282 -24.733 -14.041  0.00  0.00    +0.126 C 
ATOM     26  C   UNL     1      38.180 -25.792 -14.764  0.00  0.00    +0.126 C 
ATOM     27  C   UNL     1      38.958 -27.092 -14.926  0.00  0.00    +0.164 C 
ATOM     28  C   UNL     1      40.967 -26.079 -14.222  0.00  0.00    +0.164 C 
ATOM     29  C   UNL     1      38.232 -24.225 -12.754  0.00  0.00    +0.265 C 
ENDBRANCH   3  29
TORSDOF 2
ENDMDL
MODEL 8
REMARK VINA RESULT:      -8.7      3.398      7.695
REMARK  Name = 70798655
REMARK  2 active torsions:
REMARK  status: ('A' for Active; 'I' for Inactive)
REMARK    1  A    between atoms: C_3  and  C_29
REMARK    2  A    between atoms: C_5  and  C_13
REMARK                            x       y       z     vdW  Elec       q    Type
REMARK                         _______ _______ _______ _____ _____    ______ ____
ROOT
ATOM      1  N   UNL     1      34.970 -22.369 -17.953  0.00  0.00    -0.245 N 
ATOM      2  N   UNL     1      37.178 -22.503 -17.625  0.00  0.00    -0.227 NA
ATOM      3  C   UNL     1      35.561 -21.786 -19.045  0.00  0.00    +0.130 C 
ATOM      4  C   UNL     1      35.997 -22.790 -17.117  0.00  0.00    +0.139 C 
ATOM      5  C   UNL     1      33.249 -23.149 -16.519  0.00  0.00    +0.012 C 
ATOM      6  C   UNL     1      33.618 -22.541 -17.668  0.00  0.00    +0.071 C 
ATOM      7  C   UNL     1      36.914 -21.880 -18.819  0.00  0.00    +0.120 C 
ATOM      8  C   UNL     1      35.619 -23.433 -15.905  0.00  0.00    +0.035 C 
ATOM      9  C   UNL     1      34.314 -23.606 -15.619  0.00  0.00    +0.004 C 
ENDROOT
BRANCH   5  13
ATOM     10  O   UNL     1      27.809 -23.695 -15.534  0.00  0.00    -0.414 OA
ATOM     11  N   UNL     1      28.399 -21.966 -16.875  0.00  0.00    -0.356 NA
ATOM     12  N   UNL     1      26.095 -22.384 -16.321  0.00  0.00    -0.302 N 
ATOM     13  C   UNL     1      31.815 -23.335 -16.228  0.00  0.00    -0.014 C 
ATOM     14  C   UNL     1      30.880 -22.449 -16.784  0.00  0.00    +0.089 C 
ATOM     15  C   UNL     1      31.411 -24.393 -15.402  0.00  0.00    -0.001 C 
ATOM     16  C   UNL     1      29.524 -22.652 -16.489  0.00  0.00    +0.152 C 
ATOM     17  C   UNL     1      29.167 -23.711 -15.667  0.00  0.00    +0.175 C 
ATOM     18  C   UNL     1      30.062 -24.609 -15.100  0.00  0.00    +0.040 C 
ATOM     19  C   UNL     1      27.425 -22.625 -16.285  0.00  0.00    +0.341 C 
ATOM     20  H   UNL     1      25.475 -22.966 -15.824  0.00  0.00    +0.148 HD
ATOM     21  H   UNL     1      25.747 -21.626 -16.844  0.00  0.00    +0.148 HD
ENDBRANCH   5  13
BRANCH   3  29
ATOM     22  O   UNL     1      36.759 -18.209 -22.408  0.00  0.00    -0.350 OA
ATOM     23  O   UNL     1      33.666 -21.444 -20.295  0.00  0.00    -0.268 OA
ATOM     24  N   UNL     1      35.608 -20.411 -21.082  0.00  0.00    -0.270 N 
ATOM     25  C   UNL     1      34.954 -19.812 -22.244  0.00  0.00    +0.126 C 
ATOM     26  C   UNL     1      37.055 -20.171 -21.010  0.00  0.00    +0.126 C 
ATOM     27  C   UNL     1      37.352 -18.689 -21.199  0.00  0.00    +0.164 C 
ATOM     28  C   UNL     1      35.336 -18.345 -22.370  0.00  0.00    +0.164 C 
ATOM     29  C   UNL     1      34.866 -21.194 -20.195  0.00  0.00    +0.265 C 
ENDBRANCH   3  29
TORSDOF 2
ENDMDL
MODEL 9
REMARK VINA RESULT:      -8.6      1.409      1.948
REMARK  Name = 70798655
REMARK  2 active torsions:
REMARK  status: ('A' for Active; 'I' for Inactive)
REMARK    1  A    between atoms: C_3  and  C_29
REMARK    2  A    between atoms: C_5  and  C_13
REMARK                            x       y       z     vdW  Elec       q    Type
REMARK                         _______ _______ _______ _____ _____    ______ ____
ROOT
ATOM      1  N   UNL     1      33.580 -24.021 -16.161  0.00  0.00    -0.245 N 
ATOM      2  N   UNL     1      31.874 -24.608 -14.840  0.00  0.00    -0.227 NA
ATOM      3  C   UNL     1      34.090 -24.891 -15.231  0.00  0.00    +0.130 C 
ATOM      4  C   UNL     1      32.226 -23.881 -15.880  0.00  0.00    +0.139 C 
ATOM      5  C   UNL     1      33.526 -22.542 -18.014  0.00  0.00    +0.012 C 
ATOM      6  C   UNL     1      34.227 -23.368 -17.207  0.00  0.00    +0.071 C 
ATOM      7  C   UNL     1      33.025 -25.236 -14.433  0.00  0.00    +0.120 C 
ATOM      8  C   UNL     1      31.479 -23.015 -16.726  0.00  0.00    +0.035 C 
ATOM      9  C   UNL     1      32.094 -22.378 -17.741  0.00  0.00    +0.004 C 
ENDROOT
BRANCH   5  13
ATOM     10  O   UNL     1      35.954 -19.907 -22.261  0.00  0.00    -0.414 OA
ATOM     11  N   UNL     1      33.696 -19.736 -22.155  0.00  0.00    -0.356 NA
ATOM     12  N   UNL     1      34.945 -18.670 -23.914  0.00  0.00    -0.302 N 
ATOM     13  C   UNL     1      34.217 -21.859 -19.125  0.00  0.00    -0.014 C 
ATOM     14  C   UNL     1      33.463 -21.138 -20.062  0.00  0.00    +0.089 C 
ATOM     15  C   UNL     1      35.612 -21.942 -19.224  0.00  0.00    -0.001 C 
ATOM     16  C   UNL     1      34.147 -20.499 -21.107  0.00  0.00    +0.152 C 
ATOM     17  C   UNL     1      35.529 -20.607 -21.168  0.00  0.00    +0.175 C 
ATOM     18  C   UNL     1      36.309 -21.311 -20.260  0.00  0.00    +0.040 C 
ATOM     19  C   UNL     1      34.800 -19.418 -22.796  0.00  0.00    +0.341 C 
ATOM     20  H   UNL     1      35.843 -18.512 -24.287  0.00  0.00    +0.148 HD
ATOM     21  H   UNL     1      34.154 -18.284 -24.354  0.00  0.00    +0.148 HD
ENDBRANCH   5  13
BRANCH   3  29
ATOM     22  O   UNL     1      38.559 -22.568 -15.655  0.00  0.00    -0.350 OA
ATOM     23  O   UNL     1      35.670 -26.555 -15.146  0.00  0.00    -0.268 OA
ATOM     24  N   UNL     1      36.484 -24.368 -15.032  0.00  0.00    -0.270 N 
ATOM     25  C   UNL     1      37.884 -24.774 -14.925  0.00  0.00    +0.126 C 
ATOM     26  C   UNL     1      36.264 -22.919 -14.944  0.00  0.00    +0.126 C 
ATOM     27  C   UNL     1      37.202 -22.186 -15.895  0.00  0.00    +0.164 C 
ATOM     28  C   UNL     1      38.745 -23.967 -15.885  0.00  0.00    +0.164 C 
ATOM     29  C   UNL     1      35.486 -25.339 -15.135  0.00  0.00    +0.265 C 
ENDBRANCH   3  29
TORSDOF 2
ENDMDL
