MODEL 1
REMARK VINA RESULT:     -12.0      0.000      0.000
REMARK  Name = 5326869
REMARK  6 active torsions:
REMARK  status: ('A' for Active; 'I' for Inactive)
REMARK    1  A    between atoms: N_2  and  C_11
REMARK    2  A    between atoms: C_3  and  C_25
REMARK    3  A    between atoms: N_5  and  C_14
REMARK    4  A    between atoms: C_14  and  C_15
REMARK    5  A    between atoms: C_15  and  C_17
REMARK    6  A    between atoms: C_23  and  N_30
REMARK                            x       y       z     vdW  Elec       q    Type
REMARK                         _______ _______ _______ _____ _____    ______ ____
ROOT
ATOM      1  O   UNL     1      31.949 -14.053 -21.058  0.00  0.00    -0.270 OA
ATOM      2  N   UNL     1      33.482 -13.134 -22.585  0.00  0.00    -0.280 N 
ATOM      3  C   UNL     1      32.572 -13.104 -21.519  0.00  0.00    +0.250 C 
ATOM      4  H   UNL     1      33.894 -12.272 -22.825  0.00  0.00    +0.155 HD
ENDROOT
BRANCH   2  11
ATOM      5  N   UNL     1      35.540 -17.561 -23.192  0.00  0.00    -0.286 N 
ATOM      6  C   UNL     1      34.899 -16.389 -23.526  0.00  0.00    +0.053 C 
ATOM      7  C   UNL     1      34.652 -16.432 -24.899  0.00  0.00    +0.015 C 
ATOM      8  C   UNL     1      35.706 -18.341 -24.305  0.00  0.00    +0.065 C 
ATOM      9  C   UNL     1      34.524 -15.305 -22.724  0.00  0.00    +0.029 C 
ATOM     10  C   UNL     1      35.167 -17.670 -25.378  0.00  0.00    +0.017 C 
ATOM     11  C   UNL     1      33.875 -14.234 -23.348  0.00  0.00    +0.052 C 
ATOM     12  C   UNL     1      33.997 -15.341 -25.505  0.00  0.00    +0.003 C 
ATOM     13  C   UNL     1      33.615 -14.251 -24.716  0.00  0.00    +0.015 C 
BRANCH   5  14
ATOM     14  C   UNL     1      35.980 -17.930 -21.864  0.00  0.00    +0.100 C 
BRANCH  14  15
ATOM     15  C   UNL     1      36.480 -19.375 -21.766  0.00  0.00    +0.048 C 
BRANCH  15  17
ATOM     16  N   UNL     1      33.910 -21.912 -19.461  0.00  0.00    -0.242 NA
ATOM     17  C   UNL     1      35.576 -20.269 -20.956  0.00  0.00    -0.017 C 
ATOM     18  C   UNL     1      36.129 -21.237 -20.140  0.00  0.00    +0.016 C 
ATOM     19  C   UNL     1      34.205 -20.105 -21.039  0.00  0.00    +0.016 C 
ATOM     20  C   UNL     1      35.255 -22.032 -19.415  0.00  0.00    +0.099 C 
ATOM     21  C   UNL     1      33.418 -20.950 -20.274  0.00  0.00    +0.099 C 
ENDBRANCH  15  17
ENDBRANCH  14  15
ENDBRANCH   5  14
ENDBRANCH   2  11
BRANCH   3  25
ATOM     22  F   UNL     1      31.959 -10.267 -17.652  0.00  0.00    -0.204 F 
ATOM     23  C   UNL     1      31.993  -9.417 -21.189  0.00  0.00    +0.050 C 
ATOM     24  C   UNL     1      32.211 -10.674 -21.753  0.00  0.00    +0.019 C 
ATOM     25  C   UNL     1      32.338 -11.765 -20.919  0.00  0.00    +0.057 C 
ATOM     26  C   UNL     1      31.908  -9.280 -19.804  0.00  0.00    +0.044 C 
ATOM     27  C   UNL     1      32.258 -11.656 -19.546  0.00  0.00    +0.034 C 
ATOM     28  C   UNL     1      32.040 -10.399 -18.982  0.00  0.00    +0.142 C 
BRANCH  23  30
ATOM     29  O   UNL     1      31.853  -6.089 -23.756  0.00  0.00    -0.350 OA
ATOM     30  N   UNL     1      31.861  -8.295 -22.013  0.00  0.00    -0.303 N 
ATOM     31  C   UNL     1      32.368  -6.993 -21.564  0.00  0.00    +0.123 C 
ATOM     32  C   UNL     1      31.861  -8.498 -23.468  0.00  0.00    +0.123 C 
ATOM     33  C   UNL     1      31.693  -5.877 -22.354  0.00  0.00    +0.164 C 
ATOM     34  C   UNL     1      31.213  -7.302 -24.156  0.00  0.00    +0.164 C 
ENDBRANCH  23  30
ENDBRANCH   3  25
TORSDOF 6
ENDMDL
MODEL 2
REMARK VINA RESULT:     -11.9      4.399     11.100
REMARK  Name = 5326869
REMARK  6 active torsions:
REMARK  status: ('A' for Active; 'I' for Inactive)
REMARK    1  A    between atoms: N_2  and  C_11
REMARK    2  A    between atoms: C_3  and  C_25
REMARK    3  A    between atoms: N_5  and  C_14
REMARK    4  A    between atoms: C_14  and  C_15
REMARK    5  A    between atoms: C_15  and  C_17
REMARK    6  A    between atoms: C_23  and  N_30
REMARK                            x       y       z     vdW  Elec       q    Type
REMARK                         _______ _______ _______ _____ _____    ______ ____
ROOT
ATOM      1  O   UNL     1      33.285 -21.122 -20.749  0.00  0.00    -0.270 OA
ATOM      2  N   UNL     1      35.360 -20.017 -20.715  0.00  0.00    -0.280 N 
ATOM      3  C   UNL     1      34.391 -20.921 -20.259  0.00  0.00    +0.250 C 
ATOM      4  H   UNL     1      36.197 -19.986 -20.197  0.00  0.00    +0.155 HD
ENDROOT
BRANCH   2  11
ATOM      5  N   UNL     1      35.014 -15.581 -22.814  0.00  0.00    -0.286 N 
ATOM      6  C   UNL     1      35.115 -16.951 -22.722  0.00  0.00    +0.053 C 
ATOM      7  C   UNL     1      35.137 -17.450 -24.026  0.00  0.00    +0.015 C 
ATOM      8  C   UNL     1      34.972 -15.198 -24.128  0.00  0.00    +0.065 C 
ATOM      9  C   UNL     1      35.186 -17.778 -21.595  0.00  0.00    +0.029 C 
ATOM     10  C   UNL     1      35.047 -16.332 -24.903  0.00  0.00    +0.017 C 
ATOM     11  C   UNL     1      35.285 -19.156 -21.810  0.00  0.00    +0.052 C 
ATOM     12  C   UNL     1      35.237 -18.843 -24.218  0.00  0.00    +0.003 C 
ATOM     13  C   UNL     1      35.310 -19.682 -23.101  0.00  0.00    +0.015 C 
BRANCH   5  14
ATOM     14  C   UNL     1      34.961 -14.665 -21.695  0.00  0.00    +0.100 C 
BRANCH  14  15
ATOM     15  C   UNL     1      33.647 -14.735 -20.910  0.00  0.00    +0.048 C 
BRANCH  15  17
ATOM     16  N   UNL     1      31.327 -11.140 -21.154  0.00  0.00    -0.242 NA
ATOM     17  C   UNL     1      32.830 -13.470 -20.996  0.00  0.00    -0.017 C 
ATOM     18  C   UNL     1      32.263 -12.947 -19.850  0.00  0.00    +0.016 C 
ATOM     19  C   UNL     1      32.660 -12.851 -22.221  0.00  0.00    +0.016 C 
ATOM     20  C   UNL     1      31.522 -11.783 -19.981  0.00  0.00    +0.099 C 
ATOM     21  C   UNL     1      31.902 -11.692 -22.246  0.00  0.00    +0.099 C 
ENDBRANCH  15  17
ENDBRANCH  14  15
ENDBRANCH   5  14
ENDBRANCH   2  11
BRANCH   3  25
ATOM     22  F   UNL     1      37.717 -22.619 -17.188  0.00  0.00    -0.204 F 
ATOM     23  C   UNL     1      34.098 -22.982 -17.144  0.00  0.00    +0.050 C 
ATOM     24  C   UNL     1      33.754 -22.266 -18.291  0.00  0.00    +0.019 C 
ATOM     25  C   UNL     1      34.756 -21.686 -19.039  0.00  0.00    +0.057 C 
ATOM     26  C   UNL     1      35.436 -23.102 -16.772  0.00  0.00    +0.044 C 
ATOM     27  C   UNL     1      36.088 -21.789 -18.693  0.00  0.00    +0.034 C 
ATOM     28  C   UNL     1      36.432 -22.506 -17.546  0.00  0.00    +0.142 C 
BRANCH  23  30
ATOM     29  O   UNL     1      31.042 -24.530 -14.705  0.00  0.00    -0.350 OA
ATOM     30  N   UNL     1      33.100 -23.580 -16.368  0.00  0.00    -0.303 N 
ATOM     31  C   UNL     1      33.390 -23.987 -14.989  0.00  0.00    +0.123 C 
ATOM     32  C   UNL     1      31.702 -23.210 -16.630  0.00  0.00    +0.123 C 
ATOM     33  C   UNL     1      32.370 -25.025 -14.532  0.00  0.00    +0.164 C 
ATOM     34  C   UNL     1      30.773 -24.289 -16.086  0.00  0.00    +0.164 C 
ENDBRANCH  23  30
ENDBRANCH   3  25
TORSDOF 6
ENDMDL
MODEL 3
REMARK VINA RESULT:     -11.4      4.537     11.422
REMARK  Name = 5326869
REMARK  6 active torsions:
REMARK  status: ('A' for Active; 'I' for Inactive)
REMARK    1  A    between atoms: N_2  and  C_11
REMARK    2  A    between atoms: C_3  and  C_25
REMARK    3  A    between atoms: N_5  and  C_14
REMARK    4  A    between atoms: C_14  and  C_15
REMARK    5  A    between atoms: C_15  and  C_17
REMARK    6  A    between atoms: C_23  and  N_30
REMARK                            x       y       z     vdW  Elec       q    Type
REMARK                         _______ _______ _______ _____ _____    ______ ____
ROOT
ATOM      1  O   UNL     1      36.787 -21.298 -20.481  0.00  0.00    -0.270 OA
ATOM      2  N   UNL     1      34.734 -20.156 -20.590  0.00  0.00    -0.280 N 
ATOM      3  C   UNL     1      35.652 -21.080 -20.072  0.00  0.00    +0.250 C 
ATOM      4  H   UNL     1      33.862 -20.113 -20.135  0.00  0.00    +0.155 HD
ENDROOT
BRANCH   2  11
ATOM      5  N   UNL     1      35.082 -15.704 -22.653  0.00  0.00    -0.286 N 
ATOM      6  C   UNL     1      35.059 -17.078 -22.566  0.00  0.00    +0.053 C 
ATOM      7  C   UNL     1      35.252 -17.574 -23.856  0.00  0.00    +0.015 C 
ATOM      8  C   UNL     1      35.283 -15.316 -23.951  0.00  0.00    +0.065 C 
ATOM      9  C   UNL     1      34.882 -17.910 -21.454  0.00  0.00    +0.029 C 
ATOM     10  C   UNL     1      35.393 -16.452 -24.720  0.00  0.00    +0.017 C 
ATOM     11  C   UNL     1      34.905 -19.291 -21.671  0.00  0.00    +0.052 C 
ATOM     12  C   UNL     1      35.272 -18.970 -24.050  0.00  0.00    +0.003 C 
ATOM     13  C   UNL     1      35.097 -19.814 -22.948  0.00  0.00    +0.015 C 
BRANCH   5  14
ATOM     14  C   UNL     1      34.920 -14.788 -21.544  0.00  0.00    +0.100 C 
BRANCH  14  15
ATOM     15  C   UNL     1      33.519 -14.818 -20.926  0.00  0.00    +0.048 C 
BRANCH  15  17
ATOM     16  N   UNL     1      31.466 -11.065 -21.187  0.00  0.00    -0.242 NA
ATOM     17  C   UNL     1      32.795 -13.498 -21.018  0.00  0.00    -0.017 C 
ATOM     18  C   UNL     1      32.262 -12.932 -19.875  0.00  0.00    +0.016 C 
ATOM     19  C   UNL     1      32.677 -12.870 -22.244  0.00  0.00    +0.016 C 
ATOM     20  C   UNL     1      31.608 -11.719 -20.012  0.00  0.00    +0.099 C 
ATOM     21  C   UNL     1      32.004 -11.659 -22.275  0.00  0.00    +0.099 C 
ENDBRANCH  15  17
ENDBRANCH  14  15
ENDBRANCH   5  14
ENDBRANCH   2  11
BRANCH   3  25
ATOM     22  F   UNL     1      32.084 -23.348 -17.725  0.00  0.00    -0.204 F 
ATOM     23  C   UNL     1      35.603 -23.016 -16.864  0.00  0.00    +0.050 C 
ATOM     24  C   UNL     1      36.061 -22.259 -17.942  0.00  0.00    +0.019 C 
ATOM     25  C   UNL     1      35.165 -21.886 -18.922  0.00  0.00    +0.057 C 
ATOM     26  C   UNL     1      34.260 -23.384 -16.791  0.00  0.00    +0.044 C 
ATOM     27  C   UNL     1      33.831 -22.237 -18.873  0.00  0.00    +0.034 C 
ATOM     28  C   UNL     1      33.373 -22.994 -17.795  0.00  0.00    +0.142 C 
BRANCH  23  30
ATOM     29  O   UNL     1      38.278 -23.929 -13.750  0.00  0.00    -0.350 OA
ATOM     30  N   UNL     1      36.491 -23.407 -15.857  0.00  0.00    -0.303 N 
ATOM     31  C   UNL     1      37.937 -23.253 -16.056  0.00  0.00    +0.123 C 
ATOM     32  C   UNL     1      36.039 -23.323 -14.462  0.00  0.00    +0.123 C 
ATOM     33  C   UNL     1      38.689 -24.169 -15.096  0.00  0.00    +0.164 C 
ATOM     34  C   UNL     1      36.892 -24.234 -13.587  0.00  0.00    +0.164 C 
ENDBRANCH  23  30
ENDBRANCH   3  25
TORSDOF 6
ENDMDL
MODEL 4
REMARK VINA RESULT:     -11.3      4.785      8.854
REMARK  Name = 5326869
REMARK  6 active torsions:
REMARK  status: ('A' for Active; 'I' for Inactive)
REMARK    1  A    between atoms: N_2  and  C_11
REMARK    2  A    between atoms: C_3  and  C_25
REMARK    3  A    between atoms: N_5  and  C_14
REMARK    4  A    between atoms: C_14  and  C_15
REMARK    5  A    between atoms: C_15  and  C_17
REMARK    6  A    between atoms: C_23  and  N_30
REMARK                            x       y       z     vdW  Elec       q    Type
REMARK                         _______ _______ _______ _____ _____    ______ ____
ROOT
ATOM      1  O   UNL     1      37.033 -18.768 -20.691  0.00  0.00    -0.270 OA
ATOM      2  N   UNL     1      35.650 -20.670 -20.697  0.00  0.00    -0.280 N 
ATOM      3  C   UNL     1      36.202 -19.495 -21.225  0.00  0.00    +0.250 C 
ATOM      4  H   UNL     1      34.992 -21.131 -21.266  0.00  0.00    +0.155 HD
ENDROOT
BRANCH   2  11
ATOM      5  N   UNL     1      34.493 -23.447 -16.805  0.00  0.00    -0.286 N 
ATOM      6  C   UNL     1      35.249 -22.637 -17.621  0.00  0.00    +0.053 C 
ATOM      7  C   UNL     1      36.482 -22.454 -16.992  0.00  0.00    +0.015 C 
ATOM      8  C   UNL     1      35.205 -23.783 -15.684  0.00  0.00    +0.065 C 
ATOM      9  C   UNL     1      34.938 -22.056 -18.856  0.00  0.00    +0.029 C 
ATOM     10  C   UNL     1      36.440 -23.184 -15.771  0.00  0.00    +0.017 C 
ATOM     11  C   UNL     1      35.918 -21.266 -19.464  0.00  0.00    +0.052 C 
ATOM     12  C   UNL     1      37.455 -21.654 -17.625  0.00  0.00    +0.003 C 
ATOM     13  C   UNL     1      37.158 -21.068 -18.860  0.00  0.00    +0.015 C 
BRANCH   5  14
ATOM     14  C   UNL     1      33.143 -23.891 -17.077  0.00  0.00    +0.100 C 
BRANCH  14  15
ATOM     15  C   UNL     1      32.077 -22.842 -16.746  0.00  0.00    +0.048 C 
BRANCH  15  17
ATOM     16  N   UNL     1      28.344 -24.544 -15.509  0.00  0.00    -0.242 NA
ATOM     17  C   UNL     1      30.763 -23.440 -16.310  0.00  0.00    -0.017 C 
ATOM     18  C   UNL     1      29.580 -22.846 -16.705  0.00  0.00    +0.016 C 
ATOM     19  C   UNL     1      30.760 -24.577 -15.522  0.00  0.00    +0.016 C 
ATOM     20  C   UNL     1      28.400 -23.434 -16.279  0.00  0.00    +0.099 C 
ATOM     21  C   UNL     1      29.528 -25.087 -15.149  0.00  0.00    +0.099 C 
ENDBRANCH  15  17
ENDBRANCH  14  15
ENDBRANCH   5  14
ENDBRANCH   2  11
BRANCH   3  25
ATOM     22  F   UNL     1      34.907 -20.616 -25.747  0.00  0.00    -0.204 F 
ATOM     23  C   UNL     1      34.901 -17.400 -24.046  0.00  0.00    +0.050 C 
ATOM     24  C   UNL     1      35.382 -17.773 -22.791  0.00  0.00    +0.019 C 
ATOM     25  C   UNL     1      35.692 -19.097 -22.563  0.00  0.00    +0.057 C 
ATOM     26  C   UNL     1      34.741 -18.360 -25.044  0.00  0.00    +0.044 C 
ATOM     27  C   UNL     1      35.542 -20.066 -23.533  0.00  0.00    +0.034 C 
ATOM     28  C   UNL     1      35.062 -19.694 -24.789  0.00  0.00    +0.142 C 
BRANCH  23  30
ATOM     29  O   UNL     1      34.178 -13.357 -24.948  0.00  0.00    -0.350 OA
ATOM     30  N   UNL     1      34.580 -16.064 -24.303  0.00  0.00    -0.303 N 
ATOM     31  C   UNL     1      35.070 -15.008 -23.410  0.00  0.00    +0.123 C 
ATOM     32  C   UNL     1      34.374 -15.656 -25.699  0.00  0.00    +0.123 C 
ATOM     33  C   UNL     1      34.219 -13.754 -23.578  0.00  0.00    +0.164 C 
ATOM     34  C   UNL     1      33.560 -14.368 -25.746  0.00  0.00    +0.164 C 
ENDBRANCH  23  30
ENDBRANCH   3  25
TORSDOF 6
ENDMDL
MODEL 5
REMARK VINA RESULT:     -11.1      3.032      5.955
REMARK  Name = 5326869
REMARK  6 active torsions:
REMARK  status: ('A' for Active; 'I' for Inactive)
REMARK    1  A    between atoms: N_2  and  C_11
REMARK    2  A    between atoms: C_3  and  C_25
REMARK    3  A    between atoms: N_5  and  C_14
REMARK    4  A    between atoms: C_14  and  C_15
REMARK    5  A    between atoms: C_15  and  C_17
REMARK    6  A    between atoms: C_23  and  N_30
REMARK                            x       y       z     vdW  Elec       q    Type
REMARK                         _______ _______ _______ _____ _____    ______ ____
ROOT
ATOM      1  O   UNL     1      33.409  -7.489 -20.500  0.00  0.00    -0.270 OA
ATOM      2  N   UNL     1      31.938  -8.742 -21.838  0.00  0.00    -0.280 N 
ATOM      3  C   UNL     1      32.623  -7.588 -21.435  0.00  0.00    +0.250 C 
ATOM      4  H   UNL     1      31.341  -8.640 -22.615  0.00  0.00    +0.155 HD
ENDROOT
BRANCH   2  11
ATOM      5  N   UNL     1      32.896 -13.566 -21.952  0.00  0.00    -0.286 N 
ATOM      6  C   UNL     1      32.498 -12.350 -21.443  0.00  0.00    +0.053 C 
ATOM      7  C   UNL     1      32.109 -12.566 -20.119  0.00  0.00    +0.015 C 
ATOM      8  C   UNL     1      32.772 -14.540 -20.997  0.00  0.00    +0.065 C 
ATOM      9  C   UNL     1      32.453 -11.089 -22.048  0.00  0.00    +0.029 C 
ATOM     10  C   UNL     1      32.288 -13.952 -19.852  0.00  0.00    +0.017 C 
ATOM     11  C   UNL     1      31.997 -10.017 -21.275  0.00  0.00    +0.052 C 
ATOM     12  C   UNL     1      31.653 -11.470 -19.360  0.00  0.00    +0.003 C 
ATOM     13  C   UNL     1      31.603 -10.203 -19.951  0.00  0.00    +0.015 C 
BRANCH   5  14
ATOM     14  C   UNL     1      33.379 -13.799 -23.296  0.00  0.00    +0.100 C 
BRANCH  14  15
ATOM     15  C   UNL     1      34.819 -14.318 -23.347  0.00  0.00    +0.048 C 
BRANCH  15  17
ATOM     16  N   UNL     1      35.113 -18.411 -24.583  0.00  0.00    -0.242 NA
ATOM     17  C   UNL     1      34.921 -15.758 -23.782  0.00  0.00    -0.017 C 
ATOM     18  C   UNL     1      34.487 -16.122 -25.042  0.00  0.00    +0.016 C 
ATOM     19  C   UNL     1      35.450 -16.696 -22.914  0.00  0.00    +0.016 C 
ATOM     20  C   UNL     1      34.603 -17.457 -25.394  0.00  0.00    +0.099 C 
ATOM     21  C   UNL     1      35.524 -18.005 -23.361  0.00  0.00    +0.099 C 
ENDBRANCH  15  17
ENDBRANCH  14  15
ENDBRANCH   5  14
ENDBRANCH   2  11
BRANCH   3  25
ATOM     22  F   UNL     1      30.044  -3.563 -22.165  0.00  0.00    -0.204 F 
ATOM     23  C   UNL     1      32.810  -4.944 -24.083  0.00  0.00    +0.050 C 
ATOM     24  C   UNL     1      33.086  -6.094 -23.344  0.00  0.00    +0.019 C 
ATOM     25  C   UNL     1      32.328  -6.364 -22.224  0.00  0.00    +0.057 C 
ATOM     26  C   UNL     1      31.783  -4.090 -23.685  0.00  0.00    +0.044 C 
ATOM     27  C   UNL     1      31.307  -5.535 -21.809  0.00  0.00    +0.034 C 
ATOM     28  C   UNL     1      31.030  -4.384 -22.548  0.00  0.00    +0.142 C 
BRANCH  23  30
ATOM     29  O   UNL     1      34.897  -4.202 -27.658  0.00  0.00    -0.350 OA
ATOM     30  N   UNL     1      33.564  -4.648 -25.223  0.00  0.00    -0.303 N 
ATOM     31  C   UNL     1      34.577  -5.598 -25.699  0.00  0.00    +0.123 C 
ATOM     32  C   UNL     1      32.948  -3.816 -26.265  0.00  0.00    +0.123 C 
ATOM     33  C   UNL     1      35.575  -4.879 -26.599  0.00  0.00    +0.164 C 
ATOM     34  C   UNL     1      34.033  -3.192 -27.136  0.00  0.00    +0.164 C 
ENDBRANCH  23  30
ENDBRANCH   3  25
TORSDOF 6
ENDMDL
MODEL 6
REMARK VINA RESULT:     -11.0      3.967      7.326
REMARK  Name = 5326869
REMARK  6 active torsions:
REMARK  status: ('A' for Active; 'I' for Inactive)
REMARK    1  A    between atoms: N_2  and  C_11
REMARK    2  A    between atoms: C_3  and  C_25
REMARK    3  A    between atoms: N_5  and  C_14
REMARK    4  A    between atoms: C_14  and  C_15
REMARK    5  A    between atoms: C_15  and  C_17
REMARK    6  A    between atoms: C_23  and  N_30
REMARK                            x       y       z     vdW  Elec       q    Type
REMARK                         _______ _______ _______ _____ _____    ______ ____
ROOT
ATOM      1  O   UNL     1      34.706  -7.392 -22.851  0.00  0.00    -0.270 OA
ATOM      2  N   UNL     1      32.382  -7.646 -22.601  0.00  0.00    -0.280 N 
ATOM      3  C   UNL     1      33.553  -7.054 -23.094  0.00  0.00    +0.250 C 
ATOM      4  H   UNL     1      31.536  -7.243 -22.902  0.00  0.00    +0.155 HD
ENDROOT
BRANCH   2  11
ATOM      5  N   UNL     1      32.357 -12.454 -21.558  0.00  0.00    -0.286 N 
ATOM      6  C   UNL     1      32.278 -11.096 -21.345  0.00  0.00    +0.053 C 
ATOM      7  C   UNL     1      32.041 -10.907 -19.983  0.00  0.00    +0.015 C 
ATOM      8  C   UNL     1      32.179 -13.128 -20.380  0.00  0.00    +0.065 C 
ATOM      9  C   UNL     1      32.396 -10.032 -22.247  0.00  0.00    +0.029 C 
ATOM     10  C   UNL     1      31.981 -12.197 -19.386  0.00  0.00    +0.017 C 
ATOM     11  C   UNL     1      32.269  -8.736 -21.737  0.00  0.00    +0.052 C 
ATOM     12  C   UNL     1      31.917  -9.592 -19.492  0.00  0.00    +0.003 C 
ATOM     13  C   UNL     1      32.033  -8.518 -20.382  0.00  0.00    +0.015 C 
BRANCH   5  14
ATOM     14  C   UNL     1      32.594 -13.093 -22.835  0.00  0.00    +0.100 C 
BRANCH  14  15
ATOM     15  C   UNL     1      34.059 -13.484 -23.060  0.00  0.00    +0.048 C 
BRANCH  15  17
ATOM     16  N   UNL     1      34.577 -16.458 -26.101  0.00  0.00    -0.242 NA
ATOM     17  C   UNL     1      34.242 -14.530 -24.130  0.00  0.00    -0.017 C 
ATOM     18  C   UNL     1      35.061 -15.616 -23.888  0.00  0.00    +0.016 C 
ATOM     19  C   UNL     1      33.585 -14.389 -25.339  0.00  0.00    +0.016 C 
ATOM     20  C   UNL     1      35.196 -16.550 -24.903  0.00  0.00    +0.099 C 
ATOM     21  C   UNL     1      33.786 -15.378 -26.289  0.00  0.00    +0.099 C 
ENDBRANCH  15  17
ENDBRANCH  14  15
ENDBRANCH   5  14
ENDBRANCH   2  11
BRANCH   3  25
ATOM     22  F   UNL     1      31.056  -3.110 -24.357  0.00  0.00    -0.204 F 
ATOM     23  C   UNL     1      34.042  -4.560 -25.847  0.00  0.00    +0.050 C 
ATOM     24  C   UNL     1      34.234  -5.664 -25.016  0.00  0.00    +0.019 C 
ATOM     25  C   UNL     1      33.348  -5.880 -23.981  0.00  0.00    +0.057 C 
ATOM     26  C   UNL     1      32.969  -3.699 -25.625  0.00  0.00    +0.044 C 
ATOM     27  C   UNL     1      32.278  -5.042 -23.740  0.00  0.00    +0.034 C 
ATOM     28  C   UNL     1      32.086  -3.939 -24.572  0.00  0.00    +0.142 C 
BRANCH  23  30
ATOM     29  O   UNL     1      36.601  -4.061 -29.146  0.00  0.00    -0.350 OA
ATOM     30  N   UNL     1      34.926  -4.319 -26.903  0.00  0.00    -0.303 N 
ATOM     31  C   UNL     1      36.227  -4.997 -26.939  0.00  0.00    +0.123 C 
ATOM     32  C   UNL     1      34.361  -3.979 -28.217  0.00  0.00    +0.123 C 
ATOM     33  C   UNL     1      37.180  -4.235 -27.854  0.00  0.00    +0.164 C 
ATOM     34  C   UNL     1      35.414  -3.272 -29.063  0.00  0.00    +0.164 C 
ENDBRANCH  23  30
ENDBRANCH   3  25
TORSDOF 6
ENDMDL
MODEL 7
REMARK VINA RESULT:     -10.7      2.355      3.138
REMARK  Name = 5326869
REMARK  6 active torsions:
REMARK  status: ('A' for Active; 'I' for Inactive)
REMARK    1  A    between atoms: N_2  and  C_11
REMARK    2  A    between atoms: C_3  and  C_25
REMARK    3  A    between atoms: N_5  and  C_14
REMARK    4  A    between atoms: C_14  and  C_15
REMARK    5  A    between atoms: C_15  and  C_17
REMARK    6  A    between atoms: C_23  and  N_30
REMARK                            x       y       z     vdW  Elec       q    Type
REMARK                         _______ _______ _______ _____ _____    ______ ____
ROOT
ATOM      1  O   UNL     1      32.796 -13.180 -23.309  0.00  0.00    -0.270 OA
ATOM      2  N   UNL     1      34.604 -13.700 -24.719  0.00  0.00    -0.280 N 
ATOM      3  C   UNL     1      33.762 -12.851 -23.988  0.00  0.00    +0.250 C 
ATOM      4  H   UNL     1      35.336 -13.263 -25.211  0.00  0.00    +0.155 HD
ENDROOT
BRANCH   2  11
ATOM      5  N   UNL     1      35.314 -18.295 -23.111  0.00  0.00    -0.286 N 
ATOM      6  C   UNL     1      34.924 -17.278 -23.954  0.00  0.00    +0.053 C 
ATOM      7  C   UNL     1      34.374 -17.874 -25.090  0.00  0.00    +0.015 C 
ATOM      8  C   UNL     1      35.029 -19.510 -23.676  0.00  0.00    +0.065 C 
ATOM      9  C   UNL     1      35.018 -15.890 -23.797  0.00  0.00    +0.029 C 
ATOM     10  C   UNL     1      34.446 -19.282 -24.901  0.00  0.00    +0.017 C 
ATOM     11  C   UNL     1      34.532 -15.089 -24.835  0.00  0.00    +0.052 C 
ATOM     12  C   UNL     1      33.891 -17.045 -26.123  0.00  0.00    +0.003 C 
ATOM     13  C   UNL     1      33.978 -15.656 -25.980  0.00  0.00    +0.015 C 
BRANCH   5  14
ATOM     14  C   UNL     1      35.933 -18.124 -21.815  0.00  0.00    +0.100 C 
BRANCH  14  15
ATOM     15  C   UNL     1      36.767 -19.330 -21.372  0.00  0.00    +0.048 C 
BRANCH  15  17
ATOM     16  N   UNL     1      34.557 -22.164 -19.038  0.00  0.00    -0.242 NA
ATOM     17  C   UNL     1      35.989 -20.327 -20.550  0.00  0.00    -0.017 C 
ATOM     18  C   UNL     1      34.620 -20.424 -20.714  0.00  0.00    +0.016 C 
ATOM     19  C   UNL     1      36.656 -21.132 -19.645  0.00  0.00    +0.016 C 
ATOM     20  C   UNL     1      33.952 -21.355 -19.936  0.00  0.00    +0.099 C 
ATOM     21  C   UNL     1      35.897 -22.031 -18.916  0.00  0.00    +0.099 C 
ENDBRANCH  15  17
ENDBRANCH  14  15
ENDBRANCH   5  14
ENDBRANCH   2  11
BRANCH   3  25
ATOM     22  F   UNL     1      36.432  -9.230 -25.759  0.00  0.00    -0.204 F 
ATOM     23  C   UNL     1      33.616  -9.145 -23.458  0.00  0.00    +0.050 C 
ATOM     24  C   UNL     1      33.318 -10.505 -23.366  0.00  0.00    +0.019 C 
ATOM     25  C   UNL     1      34.080 -11.403 -24.084  0.00  0.00    +0.057 C 
ATOM     26  C   UNL     1      34.667  -8.715 -24.265  0.00  0.00    +0.044 C 
ATOM     27  C   UNL     1      35.125 -11.003 -24.890  0.00  0.00    +0.034 C 
ATOM     28  C   UNL     1      35.423  -9.643 -24.982  0.00  0.00    +0.142 C 
BRANCH  23  30
ATOM     29  O   UNL     1      31.202  -6.557 -21.186  0.00  0.00    -0.350 OA
ATOM     30  N   UNL     1      32.859  -8.214 -22.739  0.00  0.00    -0.303 N 
ATOM     31  C   UNL     1      31.559  -7.771 -23.257  0.00  0.00    +0.123 C 
ATOM     32  C   UNL     1      32.989  -8.196 -21.276  0.00  0.00    +0.123 C 
ATOM     33  C   UNL     1      31.171  -6.446 -22.609  0.00  0.00    +0.164 C 
ATOM     34  C   UNL     1      32.525  -6.849 -20.734  0.00  0.00    +0.164 C 
ENDBRANCH  23  30
ENDBRANCH   3  25
TORSDOF 6
ENDMDL
MODEL 8
REMARK VINA RESULT:     -10.5      3.973     11.597
REMARK  Name = 5326869
REMARK  6 active torsions:
REMARK  status: ('A' for Active; 'I' for Inactive)
REMARK    1  A    between atoms: N_2  and  C_11
REMARK    2  A    between atoms: C_3  and  C_25
REMARK    3  A    between atoms: N_5  and  C_14
REMARK    4  A    between atoms: C_14  and  C_15
REMARK    5  A    between atoms: C_15  and  C_17
REMARK    6  A    between atoms: C_23  and  N_30
REMARK                            x       y       z     vdW  Elec       q    Type
REMARK                         _______ _______ _______ _____ _____    ______ ____
ROOT
ATOM      1  O   UNL     1      35.020 -10.556 -24.723  0.00  0.00    -0.270 OA
ATOM      2  N   UNL     1      33.027 -10.954 -23.542  0.00  0.00    -0.280 N 
ATOM      3  C   UNL     1      34.108 -11.293 -24.367  0.00  0.00    +0.250 C 
ATOM      4  H   UNL     1      32.382 -11.675 -23.358  0.00  0.00    +0.155 HD
ENDROOT
BRANCH   2  11
ATOM      5  N   UNL     1      32.640  -6.050 -23.561  0.00  0.00    -0.286 N 
ATOM      6  C   UNL     1      32.597  -7.337 -23.073  0.00  0.00    +0.053 C 
ATOM      7  C   UNL     1      32.192  -7.258 -21.740  0.00  0.00    +0.015 C 
ATOM      8  C   UNL     1      32.276  -5.163 -22.583  0.00  0.00    +0.065 C 
ATOM      9  C   UNL     1      32.885  -8.552 -23.706  0.00  0.00    +0.029 C 
ATOM     10  C   UNL     1      31.993  -5.880 -21.444  0.00  0.00    +0.017 C 
ATOM     11  C   UNL     1      32.752  -9.721 -22.950  0.00  0.00    +0.052 C 
ATOM     12  C   UNL     1      32.066  -8.450 -20.998  0.00  0.00    +0.003 C 
ATOM     13  C   UNL     1      32.349  -9.672 -21.617  0.00  0.00    +0.015 C 
BRANCH   5  14
ATOM     14  C   UNL     1      33.011  -5.672 -24.907  0.00  0.00    +0.100 C 
BRANCH  14  15
ATOM     15  C   UNL     1      34.525  -5.585 -25.122  0.00  0.00    +0.048 C 
BRANCH  15  17
ATOM     16  N   UNL     1      35.613  -3.994 -28.950  0.00  0.00    -0.242 NA
ATOM     17  C   UNL     1      34.908  -5.026 -26.470  0.00  0.00    -0.017 C 
ATOM     18  C   UNL     1      33.921  -4.571 -27.323  0.00  0.00    +0.016 C 
ATOM     19  C   UNL     1      36.241  -4.975 -26.832  0.00  0.00    +0.016 C 
ATOM     20  C   UNL     1      34.324  -4.066 -28.549  0.00  0.00    +0.099 C 
ATOM     21  C   UNL     1      36.540  -4.451 -28.079  0.00  0.00    +0.099 C 
ENDBRANCH  15  17
ENDBRANCH  14  15
ENDBRANCH   5  14
ENDBRANCH   2  11
BRANCH   3  25
ATOM     22  F   UNL     1      33.397 -14.495 -27.920  0.00  0.00    -0.204 F 
ATOM     23  C   UNL     1      34.488 -15.018 -24.489  0.00  0.00    +0.050 C 
ATOM     24  C   UNL     1      34.483 -13.706 -24.015  0.00  0.00    +0.019 C 
ATOM     25  C   UNL     1      34.111 -12.691 -24.870  0.00  0.00    +0.057 C 
ATOM     26  C   UNL     1      34.121 -15.285 -25.807  0.00  0.00    +0.044 C 
ATOM     27  C   UNL     1      33.744 -12.928 -26.179  0.00  0.00    +0.034 C 
ATOM     28  C   UNL     1      33.748 -14.240 -26.653  0.00  0.00    +0.142 C 
BRANCH  23  30
ATOM     29  O   UNL     1      35.868 -18.069 -21.945  0.00  0.00    -0.350 OA
ATOM     30  N   UNL     1      34.861 -16.066 -23.641  0.00  0.00    -0.303 N 
ATOM     31  C   UNL     1      35.439 -17.293 -24.203  0.00  0.00    +0.123 C 
ATOM     32  C   UNL     1      35.302 -15.734 -22.280  0.00  0.00    +0.123 C 
ATOM     33  C   UNL     1      35.299 -18.434 -23.202  0.00  0.00    +0.164 C 
ATOM     34  C   UNL     1      35.169 -16.958 -21.381  0.00  0.00    +0.164 C 
ENDBRANCH  23  30
ENDBRANCH   3  25
TORSDOF 6
ENDMDL
MODEL 9
REMARK VINA RESULT:     -10.2      4.139      6.673
REMARK  Name = 5326869
REMARK  6 active torsions:
REMARK  status: ('A' for Active; 'I' for Inactive)
REMARK    1  A    between atoms: N_2  and  C_11
REMARK    2  A    between atoms: C_3  and  C_25
REMARK    3  A    between atoms: N_5  and  C_14
REMARK    4  A    between atoms: C_14  and  C_15
REMARK    5  A    between atoms: C_15  and  C_17
REMARK    6  A    between atoms: C_23  and  N_30
REMARK                            x       y       z     vdW  Elec       q    Type
REMARK                         _______ _______ _______ _____ _____    ______ ____
ROOT
ATOM      1  O   UNL     1      33.261  -7.577 -20.283  0.00  0.00    -0.270 OA
ATOM      2  N   UNL     1      31.903  -8.899 -21.674  0.00  0.00    -0.280 N 
ATOM      3  C   UNL     1      32.535  -7.719 -21.261  0.00  0.00    +0.250 C 
ATOM      4  H   UNL     1      31.353  -8.832 -22.488  0.00  0.00    +0.155 HD
ENDROOT
BRANCH   2  11
ATOM      5  N   UNL     1      33.384 -13.582 -21.390  0.00  0.00    -0.286 N 
ATOM      6  C   UNL     1      32.738 -12.418 -21.036  0.00  0.00    +0.053 C 
ATOM      7  C   UNL     1      32.051 -12.674 -19.848  0.00  0.00    +0.015 C 
ATOM      8  C   UNL     1      33.129 -14.562 -20.468  0.00  0.00    +0.065 C 
ATOM      9  C   UNL     1      32.710 -11.172 -21.673  0.00  0.00    +0.029 C 
ATOM     10  C   UNL     1      32.307 -14.030 -19.501  0.00  0.00    +0.017 C 
ATOM     11  C   UNL     1      31.957 -10.158 -21.074  0.00  0.00    +0.052 C 
ATOM     12  C   UNL     1      31.299 -11.636 -19.263  0.00  0.00    +0.003 C 
ATOM     13  C   UNL     1      31.262 -10.384 -19.888  0.00  0.00    +0.015 C 
BRANCH   5  14
ATOM     14  C   UNL     1      34.215 -13.761 -22.561  0.00  0.00    +0.100 C 
BRANCH  14  15
ATOM     15  C   UNL     1      33.817 -12.861 -23.735  0.00  0.00    +0.048 C 
BRANCH  15  17
ATOM     16  N   UNL     1      33.748 -14.908 -27.500  0.00  0.00    -0.242 NA
ATOM     17  C   UNL     1      33.794 -13.582 -25.060  0.00  0.00    -0.017 C 
ATOM     18  C   UNL     1      33.815 -14.963 -25.085  0.00  0.00    +0.016 C 
ATOM     19  C   UNL     1      33.750 -12.850 -26.233  0.00  0.00    +0.016 C 
ATOM     20  C   UNL     1      33.791 -15.577 -26.327  0.00  0.00    +0.099 C 
ATOM     21  C   UNL     1      33.729 -13.558 -27.423  0.00  0.00    +0.099 C 
ENDBRANCH  15  17
ENDBRANCH  14  15
ENDBRANCH   5  14
ENDBRANCH   2  11
BRANCH   3  25
ATOM     22  F   UNL     1      30.032  -3.678 -22.148  0.00  0.00    -0.204 F 
ATOM     23  C   UNL     1      32.764  -5.189 -24.015  0.00  0.00    +0.050 C 
ATOM     24  C   UNL     1      33.021  -6.313 -23.230  0.00  0.00    +0.019 C 
ATOM     25  C   UNL     1      32.262  -6.523 -22.098  0.00  0.00    +0.057 C 
ATOM     26  C   UNL     1      31.755  -4.300 -23.650  0.00  0.00    +0.044 C 
ATOM     27  C   UNL     1      31.257  -5.658 -21.715  0.00  0.00    +0.034 C 
ATOM     28  C   UNL     1      31.001  -4.533 -22.500  0.00  0.00    +0.142 C 
BRANCH  23  30
ATOM     29  O   UNL     1      35.207  -4.328 -27.328  0.00  0.00    -0.350 OA
ATOM     30  N   UNL     1      33.520  -4.954 -25.168  0.00  0.00    -0.303 N 
ATOM     31  C   UNL     1      33.292  -3.740 -25.959  0.00  0.00    +0.123 C 
ATOM     32  C   UNL     1      34.889  -5.487 -25.221  0.00  0.00    +0.123 C 
ATOM     33  C   UNL     1      33.835  -3.934 -27.370  0.00  0.00    +0.164 C 
ATOM     34  C   UNL     1      35.347  -5.588 -26.671  0.00  0.00    +0.164 C 
ENDBRANCH  23  30
ENDBRANCH   3  25
TORSDOF 6
ENDMDL
