MODEL 1
REMARK VINA RESULT:     -11.5      0.000      0.000
REMARK  Name = 4261
REMARK  8 active torsions:
REMARK  status: ('A' for Active; 'I' for Inactive)
REMARK    1  A    between atoms: C_1  and  C_20
REMARK    2  A    between atoms: C_2  and  C_9
REMARK    3  A    between atoms: N_8  and  C_11
REMARK    4  A    between atoms: C_12  and  N_17
REMARK    5  A    between atoms: C_20  and  N_22
REMARK    6  A    between atoms: C_23  and  O_25
REMARK    7  A    between atoms: O_25  and  C_26
REMARK    8  A    between atoms: C_26  and  C_28
REMARK                            x       y       z     vdW  Elec       q    Type
REMARK                         _______ _______ _______ _____ _____    ______ ____
ROOT
ATOM      1  C   UNL     1      35.537 -20.185 -20.939  0.00  0.00    -0.002 C 
ATOM      2  C   UNL     1      34.348 -22.092 -19.301  0.00  0.00    +0.054 C 
ATOM      3  C   UNL     1      34.151 -20.287 -20.895  0.00  0.00    -0.002 C 
ATOM      4  C   UNL     1      36.334 -21.028 -20.172  0.00  0.00    -0.002 C 
ATOM      5  C   UNL     1      33.555 -21.243 -20.074  0.00  0.00    +0.004 C 
ATOM      6  C   UNL     1      35.738 -21.984 -19.350  0.00  0.00    +0.004 C 
ENDROOT
BRANCH   2   9
ATOM      7  O   UNL     1      33.772 -24.284 -18.781  0.00  0.00    -0.270 OA
ATOM      8  N   UNL     1      33.133 -22.605 -17.271  0.00  0.00    -0.279 N 
ATOM      9  C   UNL     1      33.726 -23.090 -18.446  0.00  0.00    +0.250 C 
ATOM     10  H   UNL     1      33.176 -21.630 -17.142  0.00  0.00    +0.155 HD
BRANCH   8  11
ATOM     11  C   UNL     1      32.481 -23.333 -16.248  0.00  0.00    +0.064 C 
ATOM     12  C   UNL     1      31.097 -23.386 -16.197  0.00  0.00    +0.055 C 
ATOM     13  C   UNL     1      33.261 -23.987 -15.306  0.00  0.00    +0.016 C 
ATOM     14  C   UNL     1      30.478 -24.111 -15.178  0.00  0.00    +0.015 C 
ATOM     15  C   UNL     1      32.642 -24.712 -14.288  0.00  0.00    +0.001 C 
ATOM     16  C   UNL     1      31.250 -24.773 -14.224  0.00  0.00    +0.001 C 
BRANCH  12  17
ATOM     17  N   UNL     1      30.295 -22.723 -17.153  0.00  0.00    -0.356 N 
ATOM     18  H   UNL     1      29.472 -22.265 -16.870  0.00  0.00    +0.142 HD
ATOM     19  H   UNL     1      30.560 -22.721 -18.100  0.00  0.00    +0.142 HD
ENDBRANCH  12  17
ENDBRANCH   8  11
ENDBRANCH   2   9
BRANCH   1  20
ATOM     20  C   UNL     1      36.179 -19.155 -21.821  0.00  0.00    +0.119 C 
BRANCH  20  22
ATOM     21  O   UNL     1      35.465 -17.056 -23.697  0.00  0.00    -0.226 OA
ATOM     22  N   UNL     1      35.713 -17.820 -21.522  0.00  0.00    -0.267 N 
ATOM     23  C   UNL     1      35.396 -16.887 -22.485  0.00  0.00    +0.402 C 
ATOM     24  H   UNL     1      35.615 -17.564 -20.576  0.00  0.00    +0.153 HD
BRANCH  23  25
ATOM     25  O   UNL     1      34.988 -15.728 -21.886  0.00  0.00    -0.430 OA
BRANCH  25  26
ATOM     26  C   UNL     1      34.610 -14.667 -22.771  0.00  0.00    +0.238 C 
BRANCH  26  28
ATOM     27  N   UNL     1      32.101 -11.915 -22.196  0.00  0.00    -0.243 NA
ATOM     28  C   UNL     1      33.582 -13.808 -22.094  0.00  0.00    +0.040 C 
ATOM     29  C   UNL     1      33.173 -14.086 -20.801  0.00  0.00    +0.002 C 
ATOM     30  C   UNL     1      33.029 -12.728 -22.748  0.00  0.00    +0.098 C 
ATOM     31  C   UNL     1      32.221 -13.273 -20.200  0.00  0.00    +0.020 C 
ATOM     32  C   UNL     1      31.719 -12.209 -20.933  0.00  0.00    +0.099 C 
ENDBRANCH  26  28
ENDBRANCH  25  26
ENDBRANCH  23  25
ENDBRANCH  20  22
ENDBRANCH   1  20
TORSDOF 8
ENDMDL
MODEL 2
REMARK VINA RESULT:     -11.0      3.177     11.778
REMARK  Name = 4261
REMARK  8 active torsions:
REMARK  status: ('A' for Active; 'I' for Inactive)
REMARK    1  A    between atoms: C_1  and  C_20
REMARK    2  A    between atoms: C_2  and  C_9
REMARK    3  A    between atoms: N_8  and  C_11
REMARK    4  A    between atoms: C_12  and  N_17
REMARK    5  A    between atoms: C_20  and  N_22
REMARK    6  A    between atoms: C_23  and  O_25
REMARK    7  A    between atoms: O_25  and  C_26
REMARK    8  A    between atoms: C_26  and  C_28
REMARK                            x       y       z     vdW  Elec       q    Type
REMARK                         _______ _______ _______ _____ _____    ______ ____
ROOT
ATOM      1  C   UNL     1      34.396 -14.301 -23.293  0.00  0.00    -0.002 C 
ATOM      2  C   UNL     1      32.894 -12.040 -22.692  0.00  0.00    +0.054 C 
ATOM      3  C   UNL     1      33.638 -14.269 -22.128  0.00  0.00    -0.002 C 
ATOM      4  C   UNL     1      34.411 -13.215 -24.160  0.00  0.00    -0.002 C 
ATOM      5  C   UNL     1      32.884 -13.135 -21.827  0.00  0.00    +0.004 C 
ATOM      6  C   UNL     1      33.658 -12.081 -23.859  0.00  0.00    +0.004 C 
ENDROOT
BRANCH   2   9
ATOM      7  O   UNL     1      31.003 -10.995 -21.833  0.00  0.00    -0.270 OA
ATOM      8  N   UNL     1      32.700  -9.627 -22.703  0.00  0.00    -0.279 N 
ATOM      9  C   UNL     1      32.110 -10.857 -22.377  0.00  0.00    +0.250 C 
ATOM     10  H   UNL     1      33.585  -9.677 -23.132  0.00  0.00    +0.155 HD
BRANCH   8  11
ATOM     11  C   UNL     1      32.191  -8.323 -22.494  0.00  0.00    +0.064 C 
ATOM     12  C   UNL     1      32.466  -7.643 -21.319  0.00  0.00    +0.055 C 
ATOM     13  C   UNL     1      31.416  -7.751 -23.492  0.00  0.00    +0.016 C 
ATOM     14  C   UNL     1      31.953  -6.358 -21.136  0.00  0.00    +0.015 C 
ATOM     15  C   UNL     1      30.903  -6.468 -23.309  0.00  0.00    +0.001 C 
ATOM     16  C   UNL     1      31.171  -5.771 -22.131  0.00  0.00    +0.001 C 
BRANCH  12  17
ATOM     17  N   UNL     1      33.256  -8.218 -20.298  0.00  0.00    -0.356 N 
ATOM     18  H   UNL     1      33.927  -7.671 -19.830  0.00  0.00    +0.142 HD
ATOM     19  H   UNL     1      33.135  -9.163 -20.056  0.00  0.00    +0.142 HD
ENDBRANCH  12  17
ENDBRANCH   8  11
ENDBRANCH   2   9
BRANCH   1  20
ATOM     20  C   UNL     1      35.206 -15.522 -23.619  0.00  0.00    +0.119 C 
BRANCH  20  22
ATOM     21  O   UNL     1      36.043 -18.304 -23.629  0.00  0.00    -0.226 OA
ATOM     22  N   UNL     1      35.301 -16.423 -22.492  0.00  0.00    -0.267 N 
ATOM     23  C   UNL     1      35.712 -17.735 -22.595  0.00  0.00    +0.402 C 
ATOM     24  H   UNL     1      35.060 -16.080 -21.602  0.00  0.00    +0.153 HD
BRANCH  23  25
ATOM     25  O   UNL     1      35.695 -18.320 -21.360  0.00  0.00    -0.430 OA
BRANCH  25  26
ATOM     26  C   UNL     1      36.395 -19.565 -21.249  0.00  0.00    +0.238 C 
BRANCH  26  28
ATOM     27  N   UNL     1      35.323 -22.513 -19.161  0.00  0.00    -0.243 NA
ATOM     28  C   UNL     1      35.513 -20.563 -20.557  0.00  0.00    +0.040 C 
ATOM     29  C   UNL     1      34.136 -20.475 -20.661  0.00  0.00    +0.002 C 
ATOM     30  C   UNL     1      36.059 -21.582 -19.808  0.00  0.00    +0.098 C 
ATOM     31  C   UNL     1      33.344 -21.414 -20.010  0.00  0.00    +0.020 C 
ATOM     32  C   UNL     1      33.980 -22.404 -19.279  0.00  0.00    +0.099 C 
ENDBRANCH  26  28
ENDBRANCH  25  26
ENDBRANCH  23  25
ENDBRANCH  20  22
ENDBRANCH   1  20
TORSDOF 8
ENDMDL
MODEL 3
REMARK VINA RESULT:     -11.0      2.094      2.795
REMARK  Name = 4261
REMARK  8 active torsions:
REMARK  status: ('A' for Active; 'I' for Inactive)
REMARK    1  A    between atoms: C_1  and  C_20
REMARK    2  A    between atoms: C_2  and  C_9
REMARK    3  A    between atoms: N_8  and  C_11
REMARK    4  A    between atoms: C_12  and  N_17
REMARK    5  A    between atoms: C_20  and  N_22
REMARK    6  A    between atoms: C_23  and  O_25
REMARK    7  A    between atoms: O_25  and  C_26
REMARK    8  A    between atoms: C_26  and  C_28
REMARK                            x       y       z     vdW  Elec       q    Type
REMARK                         _______ _______ _______ _____ _____    ______ ____
ROOT
ATOM      1  C   UNL     1      35.534 -20.269 -20.912  0.00  0.00    -0.002 C 
ATOM      2  C   UNL     1      34.156 -22.053 -19.284  0.00  0.00    +0.054 C 
ATOM      3  C   UNL     1      34.143 -20.261 -20.905  0.00  0.00    -0.002 C 
ATOM      4  C   UNL     1      36.242 -21.160 -20.114  0.00  0.00    -0.002 C 
ATOM      5  C   UNL     1      33.453 -21.155 -20.088  0.00  0.00    +0.004 C 
ATOM      6  C   UNL     1      35.552 -22.054 -19.297  0.00  0.00    +0.004 C 
ENDROOT
BRANCH   2   9
ATOM      7  O   UNL     1      33.677 -24.200 -18.531  0.00  0.00    -0.270 OA
ATOM      8  N   UNL     1      32.523 -22.416 -17.534  0.00  0.00    -0.279 N 
ATOM      9  C   UNL     1      33.436 -22.986 -18.434  0.00  0.00    +0.250 C 
ATOM     10  H   UNL     1      32.441 -21.436 -17.574  0.00  0.00    +0.155 HD
BRANCH   8  11
ATOM     11  C   UNL     1      31.707 -23.065 -16.577  0.00  0.00    +0.064 C 
ATOM     12  C   UNL     1      32.226 -23.428 -15.345  0.00  0.00    +0.055 C 
ATOM     13  C   UNL     1      30.385 -23.323 -16.907  0.00  0.00    +0.016 C 
ATOM     14  C   UNL     1      31.401 -24.067 -14.418  0.00  0.00    +0.015 C 
ATOM     15  C   UNL     1      29.562 -23.961 -15.980  0.00  0.00    +0.001 C 
ATOM     16  C   UNL     1      30.070 -24.334 -14.735  0.00  0.00    +0.001 C 
BRANCH  12  17
ATOM     17  N   UNL     1      33.571 -23.167 -15.001  0.00  0.00    -0.356 N 
ATOM     18  H   UNL     1      33.798 -22.879 -14.088  0.00  0.00    +0.142 HD
ATOM     19  H   UNL     1      34.281 -23.274 -15.675  0.00  0.00    +0.142 HD
ENDBRANCH  12  17
ENDBRANCH   8  11
ENDBRANCH   2   9
BRANCH   1  20
ATOM     20  C   UNL     1      36.277 -19.305 -21.790  0.00  0.00    +0.119 C 
BRANCH  20  22
ATOM     21  O   UNL     1      35.453 -20.063 -24.470  0.00  0.00    -0.226 OA
ATOM     22  N   UNL     1      35.390 -18.590 -22.680  0.00  0.00    -0.267 N 
ATOM     23  C   UNL     1      35.055 -19.030 -23.942  0.00  0.00    +0.402 C 
ATOM     24  H   UNL     1      35.004 -17.740 -22.366  0.00  0.00    +0.153 HD
BRANCH  23  25
ATOM     25  O   UNL     1      34.203 -18.138 -24.530  0.00  0.00    -0.430 OA
BRANCH  25  26
ATOM     26  C   UNL     1      34.766 -17.326 -25.567  0.00  0.00    +0.238 C 
BRANCH  26  28
ATOM     27  N   UNL     1      34.698 -14.008 -23.782  0.00  0.00    -0.243 NA
ATOM     28  C   UNL     1      34.474 -15.884 -25.272  0.00  0.00    +0.040 C 
ATOM     29  C   UNL     1      33.745 -15.117 -26.164  0.00  0.00    +0.002 C 
ATOM     30  C   UNL     1      34.926 -15.300 -24.109  0.00  0.00    +0.098 C 
ATOM     31  C   UNL     1      33.490 -13.784 -25.864  0.00  0.00    +0.020 C 
ATOM     32  C   UNL     1      33.984 -13.281 -24.671  0.00  0.00    +0.099 C 
ENDBRANCH  26  28
ENDBRANCH  25  26
ENDBRANCH  23  25
ENDBRANCH  20  22
ENDBRANCH   1  20
TORSDOF 8
ENDMDL
MODEL 4
REMARK VINA RESULT:     -10.6      1.939      2.776
REMARK  Name = 4261
REMARK  8 active torsions:
REMARK  status: ('A' for Active; 'I' for Inactive)
REMARK    1  A    between atoms: C_1  and  C_20
REMARK    2  A    between atoms: C_2  and  C_9
REMARK    3  A    between atoms: N_8  and  C_11
REMARK    4  A    between atoms: C_12  and  N_17
REMARK    5  A    between atoms: C_20  and  N_22
REMARK    6  A    between atoms: C_23  and  O_25
REMARK    7  A    between atoms: O_25  and  C_26
REMARK    8  A    between atoms: C_26  and  C_28
REMARK                            x       y       z     vdW  Elec       q    Type
REMARK                         _______ _______ _______ _____ _____    ______ ____
ROOT
ATOM      1  C   UNL     1      35.536 -19.189 -21.717  0.00  0.00    -0.002 C 
ATOM      2  C   UNL     1      35.267 -21.276 -19.900  0.00  0.00    +0.054 C 
ATOM      3  C   UNL     1      34.274 -19.702 -21.441  0.00  0.00    -0.002 C 
ATOM      4  C   UNL     1      36.665 -19.708 -21.093  0.00  0.00    -0.002 C 
ATOM      5  C   UNL     1      34.139 -20.749 -20.530  0.00  0.00    +0.004 C 
ATOM      6  C   UNL     1      36.530 -20.755 -20.181  0.00  0.00    +0.004 C 
ENDROOT
BRANCH   2   9
ATOM      7  O   UNL     1      34.582 -23.422 -19.320  0.00  0.00    -0.270 OA
ATOM      8  N   UNL     1      35.652 -22.139 -17.671  0.00  0.00    -0.279 N 
ATOM      9  C   UNL     1      35.125 -22.368 -18.951  0.00  0.00    +0.250 C 
ATOM     10  H   UNL     1      36.053 -21.252 -17.527  0.00  0.00    +0.155 HD
BRANCH   8  11
ATOM     11  C   UNL     1      35.682 -23.017 -16.561  0.00  0.00    +0.064 C 
ATOM     12  C   UNL     1      36.892 -23.401 -16.004  0.00  0.00    +0.055 C 
ATOM     13  C   UNL     1      34.477 -23.476 -16.052  0.00  0.00    +0.016 C 
ATOM     14  C   UNL     1      36.896 -24.267 -14.910  0.00  0.00    +0.015 C 
ATOM     15  C   UNL     1      34.482 -24.341 -14.958  0.00  0.00    +0.001 C 
ATOM     16  C   UNL     1      35.692 -24.737 -14.388  0.00  0.00    +0.001 C 
BRANCH  12  17
ATOM     17  N   UNL     1      38.124 -22.936 -16.517  0.00  0.00    -0.356 N 
ATOM     18  H   UNL     1      38.615 -23.475 -17.178  0.00  0.00    +0.142 HD
ATOM     19  H   UNL     1      38.490 -22.076 -16.213  0.00  0.00    +0.142 HD
ENDBRANCH  12  17
ENDBRANCH   8  11
ENDBRANCH   2   9
BRANCH   1  20
ATOM     20  C   UNL     1      35.682 -18.061 -22.696  0.00  0.00    +0.119 C 
BRANCH  20  22
ATOM     21  O   UNL     1      34.923 -15.583 -24.008  0.00  0.00    -0.226 OA
ATOM     22  N   UNL     1      35.426 -16.777 -22.084  0.00  0.00    -0.267 N 
ATOM     23  C   UNL     1      35.069 -15.650 -22.792  0.00  0.00    +0.402 C 
ATOM     24  H   UNL     1      35.512 -16.704 -21.106  0.00  0.00    +0.153 HD
BRANCH  23  25
ATOM     25  O   UNL     1      34.898 -14.601 -21.932  0.00  0.00    -0.430 OA
BRANCH  25  26
ATOM     26  C   UNL     1      33.879 -14.767 -20.939  0.00  0.00    +0.238 C 
BRANCH  26  28
ATOM     27  N   UNL     1      31.825 -11.905 -22.275  0.00  0.00    -0.243 NA
ATOM     28  C   UNL     1      32.962 -13.579 -20.975  0.00  0.00    +0.040 C 
ATOM     29  C   UNL     1      32.423 -13.071 -19.807  0.00  0.00    +0.002 C 
ATOM     30  C   UNL     1      32.643 -12.976 -22.172  0.00  0.00    +0.098 C 
ATOM     31  C   UNL     1      31.578 -11.970 -19.871  0.00  0.00    +0.020 C 
ATOM     32  C   UNL     1      31.312 -11.428 -21.118  0.00  0.00    +0.099 C 
ENDBRANCH  26  28
ENDBRANCH  25  26
ENDBRANCH  23  25
ENDBRANCH  20  22
ENDBRANCH   1  20
TORSDOF 8
ENDMDL
MODEL 5
REMARK VINA RESULT:     -10.5      2.535     10.537
REMARK  Name = 4261
REMARK  8 active torsions:
REMARK  status: ('A' for Active; 'I' for Inactive)
REMARK    1  A    between atoms: C_1  and  C_20
REMARK    2  A    between atoms: C_2  and  C_9
REMARK    3  A    between atoms: N_8  and  C_11
REMARK    4  A    between atoms: C_12  and  N_17
REMARK    5  A    between atoms: C_20  and  N_22
REMARK    6  A    between atoms: C_23  and  O_25
REMARK    7  A    between atoms: O_25  and  C_26
REMARK    8  A    between atoms: C_26  and  C_28
REMARK                            x       y       z     vdW  Elec       q    Type
REMARK                         _______ _______ _______ _____ _____    ______ ____
ROOT
ATOM      1  C   UNL     1      35.420 -17.537 -23.982  0.00  0.00    -0.002 C 
ATOM      2  C   UNL     1      34.431 -14.965 -24.354  0.00  0.00    +0.054 C 
ATOM      3  C   UNL     1      35.493 -16.615 -22.944  0.00  0.00    -0.002 C 
ATOM      4  C   UNL     1      34.857 -17.186 -25.204  0.00  0.00    -0.002 C 
ATOM      5  C   UNL     1      34.997 -15.326 -23.131  0.00  0.00    +0.004 C 
ATOM      6  C   UNL     1      34.361 -15.896 -25.391  0.00  0.00    +0.004 C 
ENDROOT
BRANCH   2   9
ATOM      7  O   UNL     1      33.637 -13.241 -25.697  0.00  0.00    -0.270 OA
ATOM      8  N   UNL     1      33.751 -12.854 -23.385  0.00  0.00    -0.279 N 
ATOM      9  C   UNL     1      33.916 -13.620 -24.548  0.00  0.00    +0.250 C 
ATOM     10  H   UNL     1      34.016 -13.291 -22.544  0.00  0.00    +0.155 HD
BRANCH   8  11
ATOM     11  C   UNL     1      33.251 -11.535 -23.262  0.00  0.00    +0.064 C 
ATOM     12  C   UNL     1      32.152 -11.274 -22.460  0.00  0.00    +0.055 C 
ATOM     13  C   UNL     1      33.889 -10.522 -23.961  0.00  0.00    +0.016 C 
ATOM     14  C   UNL     1      31.678  -9.965 -22.355  0.00  0.00    +0.015 C 
ATOM     15  C   UNL     1      33.416  -9.215 -23.856  0.00  0.00    +0.001 C 
ATOM     16  C   UNL     1      32.310  -8.936 -23.053  0.00  0.00    +0.001 C 
BRANCH  12  17
ATOM     17  N   UNL     1      31.497 -12.300 -21.743  0.00  0.00    -0.356 N 
ATOM     18  H   UNL     1      31.034 -12.092 -20.900  0.00  0.00    +0.142 HD
ATOM     19  H   UNL     1      31.505 -13.222 -22.087  0.00  0.00    +0.142 HD
ENDBRANCH  12  17
ENDBRANCH   8  11
ENDBRANCH   2   9
BRANCH   1  20
ATOM     20  C   UNL     1      35.952 -18.926 -23.781  0.00  0.00    +0.119 C 
BRANCH  20  22
ATOM     21  O   UNL     1      37.731 -19.080 -21.491  0.00  0.00    -0.226 OA
ATOM     22  N   UNL     1      35.654 -19.433 -22.461  0.00  0.00    -0.267 N 
ATOM     23  C   UNL     1      36.569 -19.466 -21.431  0.00  0.00    +0.402 C 
ATOM     24  H   UNL     1      34.747 -19.774 -22.289  0.00  0.00    +0.153 HD
BRANCH  23  25
ATOM     25  O   UNL     1      35.986 -19.999 -20.315  0.00  0.00    -0.430 OA
BRANCH  25  26
ATOM     26  C   UNL     1      36.274 -21.379 -20.058  0.00  0.00    +0.238 C 
BRANCH  26  28
ATOM     27  N   UNL     1      32.831 -22.473 -18.988  0.00  0.00    -0.243 NA
ATOM     28  C   UNL     1      35.170 -21.963 -19.226  0.00  0.00    +0.040 C 
ATOM     29  C   UNL     1      35.438 -22.507 -17.983  0.00  0.00    +0.002 C 
ATOM     30  C   UNL     1      33.871 -21.965 -19.686  0.00  0.00    +0.098 C 
ATOM     31  C   UNL     1      34.396 -23.040 -17.234  0.00  0.00    +0.020 C 
ATOM     32  C   UNL     1      33.121 -23.000 -17.776  0.00  0.00    +0.099 C 
ENDBRANCH  26  28
ENDBRANCH  25  26
ENDBRANCH  23  25
ENDBRANCH  20  22
ENDBRANCH   1  20
TORSDOF 8
ENDMDL
MODEL 6
REMARK VINA RESULT:     -10.4      3.179      9.814
REMARK  Name = 4261
REMARK  8 active torsions:
REMARK  status: ('A' for Active; 'I' for Inactive)
REMARK    1  A    between atoms: C_1  and  C_20
REMARK    2  A    between atoms: C_2  and  C_9
REMARK    3  A    between atoms: N_8  and  C_11
REMARK    4  A    between atoms: C_12  and  N_17
REMARK    5  A    between atoms: C_20  and  N_22
REMARK    6  A    between atoms: C_23  and  O_25
REMARK    7  A    between atoms: O_25  and  C_26
REMARK    8  A    between atoms: C_26  and  C_28
REMARK                            x       y       z     vdW  Elec       q    Type
REMARK                         _______ _______ _______ _____ _____    ______ ____
ROOT
ATOM      1  C   UNL     1      35.137 -22.859 -17.557  0.00  0.00    -0.002 C 
ATOM      2  C   UNL     1      34.456 -21.331 -19.778  0.00  0.00    +0.054 C 
ATOM      3  C   UNL     1      36.122 -22.138 -18.225  0.00  0.00    -0.002 C 
ATOM      4  C   UNL     1      33.816 -22.823 -17.989  0.00  0.00    -0.002 C 
ATOM      5  C   UNL     1      35.780 -21.372 -19.338  0.00  0.00    +0.004 C 
ATOM      6  C   UNL     1      33.474 -22.057 -19.103  0.00  0.00    +0.004 C 
ENDROOT
BRANCH   2   9
ATOM      7  O   UNL     1      32.915 -20.498 -21.308  0.00  0.00    -0.270 OA
ATOM      8  N   UNL     1      35.153 -19.833 -21.547  0.00  0.00    -0.279 N 
ATOM      9  C   UNL     1      34.100 -20.533 -20.940  0.00  0.00    +0.250 C 
ATOM     10  H   UNL     1      36.041 -19.960 -21.141  0.00  0.00    +0.155 HD
BRANCH   8  11
ATOM     11  C   UNL     1      35.106 -18.966 -22.666  0.00  0.00    +0.064 C 
ATOM     12  C   UNL     1      35.307 -17.605 -22.507  0.00  0.00    +0.055 C 
ATOM     13  C   UNL     1      34.856 -19.516 -23.914  0.00  0.00    +0.016 C 
ATOM     14  C   UNL     1      35.255 -16.771 -23.624  0.00  0.00    +0.015 C 
ATOM     15  C   UNL     1      34.805 -18.683 -25.031  0.00  0.00    +0.001 C 
ATOM     16  C   UNL     1      35.004 -17.310 -24.886  0.00  0.00    +0.001 C 
BRANCH  12  17
ATOM     17  N   UNL     1      35.563 -17.037 -21.238  0.00  0.00    -0.356 N 
ATOM     18  H   UNL     1      35.076 -16.231 -20.954  0.00  0.00    +0.142 HD
ATOM     19  H   UNL     1      36.229 -17.447 -20.641  0.00  0.00    +0.142 HD
ENDBRANCH  12  17
ENDBRANCH   8  11
ENDBRANCH   2   9
BRANCH   1  20
ATOM     20  C   UNL     1      35.505 -23.683 -16.358  0.00  0.00    +0.119 C 
BRANCH  20  22
ATOM     21  O   UNL     1      35.423 -24.576 -13.595  0.00  0.00    -0.226 OA
ATOM     22  N   UNL     1      34.344 -24.052 -15.580  0.00  0.00    -0.267 N 
ATOM     23  C   UNL     1      34.404 -24.467 -14.267  0.00  0.00    +0.402 C 
ATOM     24  H   UNL     1      33.461 -24.005 -16.013  0.00  0.00    +0.153 HD
BRANCH  23  25
ATOM     25  O   UNL     1      33.144 -24.743 -13.814  0.00  0.00    -0.430 OA
BRANCH  25  26
ATOM     26  C   UNL     1      32.251 -23.626 -13.731  0.00  0.00    +0.238 C 
BRANCH  26  28
ATOM     27  N   UNL     1      29.268 -25.261 -15.352  0.00  0.00    -0.243 NA
ATOM     28  C   UNL     1      31.093 -23.855 -14.658  0.00  0.00    +0.040 C 
ATOM     29  C   UNL     1      30.780 -22.928 -15.636  0.00  0.00    +0.002 C 
ATOM     30  C   UNL     1      30.323 -24.993 -14.550  0.00  0.00    +0.098 C 
ATOM     31  C   UNL     1      29.703 -23.168 -16.480  0.00  0.00    +0.020 C 
ATOM     32  C   UNL     1      28.984 -24.338 -16.299  0.00  0.00    +0.099 C 
ENDBRANCH  26  28
ENDBRANCH  25  26
ENDBRANCH  23  25
ENDBRANCH  20  22
ENDBRANCH   1  20
TORSDOF 8
ENDMDL
MODEL 7
REMARK VINA RESULT:     -10.4      3.976      6.355
REMARK  Name = 4261
REMARK  8 active torsions:
REMARK  status: ('A' for Active; 'I' for Inactive)
REMARK    1  A    between atoms: C_1  and  C_20
REMARK    2  A    between atoms: C_2  and  C_9
REMARK    3  A    between atoms: N_8  and  C_11
REMARK    4  A    between atoms: C_12  and  N_17
REMARK    5  A    between atoms: C_20  and  N_22
REMARK    6  A    between atoms: C_23  and  O_25
REMARK    7  A    between atoms: O_25  and  C_26
REMARK    8  A    between atoms: C_26  and  C_28
REMARK                            x       y       z     vdW  Elec       q    Type
REMARK                         _______ _______ _______ _____ _____    ______ ____
ROOT
ATOM      1  C   UNL     1      34.319 -14.702 -24.932  0.00  0.00    -0.002 C 
ATOM      2  C   UNL     1      35.105 -17.105 -23.774  0.00  0.00    +0.054 C 
ATOM      3  C   UNL     1      34.722 -14.726 -23.602  0.00  0.00    -0.002 C 
ATOM      4  C   UNL     1      34.305 -15.869 -25.689  0.00  0.00    -0.002 C 
ATOM      5  C   UNL     1      35.116 -15.930 -23.021  0.00  0.00    +0.004 C 
ATOM      6  C   UNL     1      34.699 -17.073 -25.109  0.00  0.00    +0.004 C 
ENDROOT
BRANCH   2   9
ATOM      7  O   UNL     1      36.311 -19.094 -23.777  0.00  0.00    -0.270 OA
ATOM      8  N   UNL     1      34.979 -18.633 -21.901  0.00  0.00    -0.279 N 
ATOM      9  C   UNL     1      35.515 -18.361 -23.168  0.00  0.00    +0.250 C 
ATOM     10  H   UNL     1      34.359 -17.956 -21.545  0.00  0.00    +0.155 HD
BRANCH   8  11
ATOM     11  C   UNL     1      35.213 -19.752 -21.067  0.00  0.00    +0.064 C 
ATOM     12  C   UNL     1      36.481 -20.000 -20.567  0.00  0.00    +0.055 C 
ATOM     13  C   UNL     1      34.146 -20.585 -20.768  0.00  0.00    +0.016 C 
ATOM     14  C   UNL     1      36.687 -21.110 -19.747  0.00  0.00    +0.015 C 
ATOM     15  C   UNL     1      34.352 -21.694 -19.948  0.00  0.00    +0.001 C 
ATOM     16  C   UNL     1      35.623 -21.957 -19.438  0.00  0.00    +0.001 C 
BRANCH  12  17
ATOM     17  N   UNL     1      37.574 -19.156 -20.866  0.00  0.00    -0.356 N 
ATOM     18  H   UNL     1      37.538 -18.202 -20.625  0.00  0.00    +0.142 HD
ATOM     19  H   UNL     1      38.369 -19.521 -21.315  0.00  0.00    +0.142 HD
ENDBRANCH  12  17
ENDBRANCH   8  11
ENDBRANCH   2   9
BRANCH   1  20
ATOM     20  C   UNL     1      33.895 -13.406 -25.558  0.00  0.00    +0.119 C 
BRANCH  20  22
ATOM     21  O   UNL     1      35.207 -10.814 -25.529  0.00  0.00    -0.226 OA
ATOM     22  N   UNL     1      33.756 -12.353 -24.577  0.00  0.00    -0.267 N 
ATOM     23  C   UNL     1      34.424 -11.149 -24.648  0.00  0.00    +0.402 C 
ATOM     24  H   UNL     1      33.150 -12.505 -23.816  0.00  0.00    +0.153 HD
BRANCH  23  25
ATOM     25  O   UNL     1      34.082 -10.370 -23.578  0.00  0.00    -0.430 OA
BRANCH  25  26
ATOM     26  C   UNL     1      32.712  -9.953 -23.521  0.00  0.00    +0.238 C 
BRANCH  26  28
ATOM     27  N   UNL     1      32.084  -9.218 -19.879  0.00  0.00    -0.243 NA
ATOM     28  C   UNL     1      32.214 -10.101 -22.113  0.00  0.00    +0.040 C 
ATOM     29  C   UNL     1      31.459 -11.201 -21.746  0.00  0.00    +0.002 C 
ATOM     30  C   UNL     1      32.501  -9.145 -21.163  0.00  0.00    +0.098 C 
ATOM     31  C   UNL     1      31.011 -11.312 -20.435  0.00  0.00    +0.020 C 
ATOM     32  C   UNL     1      31.347 -10.303 -19.547  0.00  0.00    +0.099 C 
ENDBRANCH  26  28
ENDBRANCH  25  26
ENDBRANCH  23  25
ENDBRANCH  20  22
ENDBRANCH   1  20
TORSDOF 8
ENDMDL
MODEL 8
REMARK VINA RESULT:     -10.3      3.220     11.526
REMARK  Name = 4261
REMARK  8 active torsions:
REMARK  status: ('A' for Active; 'I' for Inactive)
REMARK    1  A    between atoms: C_1  and  C_20
REMARK    2  A    between atoms: C_2  and  C_9
REMARK    3  A    between atoms: N_8  and  C_11
REMARK    4  A    between atoms: C_12  and  N_17
REMARK    5  A    between atoms: C_20  and  N_22
REMARK    6  A    between atoms: C_23  and  O_25
REMARK    7  A    between atoms: O_25  and  C_26
REMARK    8  A    between atoms: C_26  and  C_28
REMARK                            x       y       z     vdW  Elec       q    Type
REMARK                         _______ _______ _______ _____ _____    ______ ____
ROOT
ATOM      1  C   UNL     1      34.634 -15.410 -24.517  0.00  0.00    -0.002 C 
ATOM      2  C   UNL     1      33.654 -13.006 -23.519  0.00  0.00    +0.054 C 
ATOM      3  C   UNL     1      34.769 -15.121 -23.163  0.00  0.00    -0.002 C 
ATOM      4  C   UNL     1      34.014 -14.509 -25.376  0.00  0.00    -0.002 C 
ATOM      5  C   UNL     1      34.277 -13.915 -22.663  0.00  0.00    +0.004 C 
ATOM      6  C   UNL     1      33.523 -13.304 -24.876  0.00  0.00    +0.004 C 
ENDROOT
BRANCH   2   9
ATOM      7  O   UNL     1      32.542 -11.746 -21.912  0.00  0.00    -0.270 OA
ATOM      8  N   UNL     1      33.404 -10.612 -23.778  0.00  0.00    -0.279 N 
ATOM      9  C   UNL     1      33.144 -11.749 -22.998  0.00  0.00    +0.250 C 
ATOM     10  H   UNL     1      33.893 -10.773 -24.617  0.00  0.00    +0.155 HD
BRANCH   8  11
ATOM     11  C   UNL     1      33.055  -9.266 -23.516  0.00  0.00    +0.064 C 
ATOM     12  C   UNL     1      33.993  -8.257 -23.667  0.00  0.00    +0.055 C 
ATOM     13  C   UNL     1      31.760  -8.989 -23.108  0.00  0.00    +0.016 C 
ATOM     14  C   UNL     1      33.626  -6.937 -23.402  0.00  0.00    +0.015 C 
ATOM     15  C   UNL     1      31.393  -7.669 -22.844  0.00  0.00    +0.001 C 
ATOM     16  C   UNL     1      32.327  -6.643 -22.990  0.00  0.00    +0.001 C 
BRANCH  12  17
ATOM     17  N   UNL     1      35.316  -8.531 -24.083  0.00  0.00    -0.356 N 
ATOM     18  H   UNL     1      36.072  -8.313 -23.492  0.00  0.00    +0.142 HD
ATOM     19  H   UNL     1      35.479  -8.940 -24.963  0.00  0.00    +0.142 HD
ENDBRANCH  12  17
ENDBRANCH   8  11
ENDBRANCH   2   9
BRANCH   1  20
ATOM     20  C   UNL     1      35.161 -16.708 -25.055  0.00  0.00    +0.119 C 
BRANCH  20  22
ATOM     21  O   UNL     1      34.484 -19.516 -24.754  0.00  0.00    -0.226 OA
ATOM     22  N   UNL     1      35.563 -17.608 -23.998  0.00  0.00    -0.267 N 
ATOM     23  C   UNL     1      35.190 -18.933 -23.939  0.00  0.00    +0.402 C 
ATOM     24  H   UNL     1      36.136 -17.253 -23.280  0.00  0.00    +0.153 HD
BRANCH  23  25
ATOM     25  O   UNL     1      35.728 -19.514 -22.825  0.00  0.00    -0.430 OA
BRANCH  25  26
ATOM     26  C   UNL     1      35.173 -19.095 -21.572  0.00  0.00    +0.238 C 
BRANCH  26  28
ATOM     27  N   UNL     1      32.963 -21.676 -19.943  0.00  0.00    -0.243 NA
ATOM     28  C   UNL     1      34.749 -20.307 -20.795  0.00  0.00    +0.040 C 
ATOM     29  C   UNL     1      35.692 -21.147 -20.231  0.00  0.00    +0.002 C 
ATOM     30  C   UNL     1      33.413 -20.602 -20.630  0.00  0.00    +0.098 C 
ATOM     31  C   UNL     1      35.269 -22.261 -19.517  0.00  0.00    +0.020 C 
ATOM     32  C   UNL     1      33.906 -22.480 -19.402  0.00  0.00    +0.099 C 
ENDBRANCH  26  28
ENDBRANCH  25  26
ENDBRANCH  23  25
ENDBRANCH  20  22
ENDBRANCH   1  20
TORSDOF 8
ENDMDL
MODEL 9
REMARK VINA RESULT:     -10.2      3.697      6.293
REMARK  Name = 4261
REMARK  8 active torsions:
REMARK  status: ('A' for Active; 'I' for Inactive)
REMARK    1  A    between atoms: C_1  and  C_20
REMARK    2  A    between atoms: C_2  and  C_9
REMARK    3  A    between atoms: N_8  and  C_11
REMARK    4  A    between atoms: C_12  and  N_17
REMARK    5  A    between atoms: C_20  and  N_22
REMARK    6  A    between atoms: C_23  and  O_25
REMARK    7  A    between atoms: O_25  and  C_26
REMARK    8  A    between atoms: C_26  and  C_28
REMARK                            x       y       z     vdW  Elec       q    Type
REMARK                         _______ _______ _______ _____ _____    ______ ____
ROOT
ATOM      1  C   UNL     1      34.437 -15.193 -24.861  0.00  0.00    -0.002 C 
ATOM      2  C   UNL     1      35.356 -17.383 -23.415  0.00  0.00    +0.054 C 
ATOM      3  C   UNL     1      34.806 -15.033 -23.530  0.00  0.00    -0.002 C 
ATOM      4  C   UNL     1      34.523 -16.437 -25.476  0.00  0.00    -0.002 C 
ATOM      5  C   UNL     1      35.267 -16.131 -22.806  0.00  0.00    +0.004 C 
ATOM      6  C   UNL     1      34.984 -17.535 -24.751  0.00  0.00    +0.004 C 
ENDROOT
BRANCH   2   9
ATOM      7  O   UNL     1      36.987 -18.945 -22.861  0.00  0.00    -0.270 OA
ATOM      8  N   UNL     1      34.938 -19.061 -21.722  0.00  0.00    -0.279 N 
ATOM      9  C   UNL     1      35.836 -18.527 -22.659  0.00  0.00    +0.250 C 
ATOM     10  H   UNL     1      34.058 -18.623 -21.675  0.00  0.00    +0.155 HD
BRANCH   8  11
ATOM     11  C   UNL     1      35.133 -20.147 -20.835  0.00  0.00    +0.064 C 
ATOM     12  C   UNL     1      34.056 -20.915 -20.420  0.00  0.00    +0.055 C 
ATOM     13  C   UNL     1      36.420 -20.418 -20.399  0.00  0.00    +0.016 C 
ATOM     14  C   UNL     1      34.273 -21.980 -19.545  0.00  0.00    +0.015 C 
ATOM     15  C   UNL     1      36.637 -21.483 -19.524  0.00  0.00    +0.001 C 
ATOM     16  C   UNL     1      35.563 -22.263 -19.097  0.00  0.00    +0.001 C 
BRANCH  12  17
ATOM     17  N   UNL     1      32.741 -20.646 -20.861  0.00  0.00    -0.356 N 
ATOM     18  H   UNL     1      31.984 -20.745 -20.239  0.00  0.00    +0.142 HD
ATOM     19  H   UNL     1      32.582 -20.360 -21.789  0.00  0.00    +0.142 HD
ENDBRANCH  12  17
ENDBRANCH   8  11
ENDBRANCH   2   9
BRANCH   1  20
ATOM     20  C   UNL     1      33.942 -14.010 -25.642  0.00  0.00    +0.119 C 
BRANCH  20  22
ATOM     21  O   UNL     1      35.067 -11.361 -26.028  0.00  0.00    -0.226 OA
ATOM     22  N   UNL     1      33.769 -12.844 -24.806  0.00  0.00    -0.267 N 
ATOM     23  C   UNL     1      34.346 -11.621 -25.071  0.00  0.00    +0.402 C 
ATOM     24  H   UNL     1      33.207 -12.929 -24.002  0.00  0.00    +0.153 HD
BRANCH  23  25
ATOM     25  O   UNL     1      33.995 -10.726 -24.099  0.00  0.00    -0.430 OA
BRANCH  25  26
ATOM     26  C   UNL     1      34.715  -9.488 -24.100  0.00  0.00    +0.238 C 
BRANCH  26  28
ATOM     27  N   UNL     1      31.909  -7.841 -22.199  0.00  0.00    -0.243 NA
ATOM     28  C   UNL     1      33.853  -8.420 -23.494  0.00  0.00    +0.040 C 
ATOM     29  C   UNL     1      34.173  -7.083 -23.654  0.00  0.00    +0.002 C 
ATOM     30  C   UNL     1      32.729  -8.752 -22.770  0.00  0.00    +0.098 C 
ATOM     31  C   UNL     1      33.355  -6.116 -23.082  0.00  0.00    +0.020 C 
ATOM     32  C   UNL     1      32.245  -6.542 -22.370  0.00  0.00    +0.099 C 
ENDBRANCH  26  28
ENDBRANCH  25  26
ENDBRANCH  23  25
ENDBRANCH  20  22
ENDBRANCH   1  20
TORSDOF 8
ENDMDL
