MODEL 1
REMARK VINA RESULT:     -11.4      0.000      0.000
REMARK  Name = 24941254
REMARK  6 active torsions:
REMARK  status: ('A' for Active; 'I' for Inactive)
REMARK    1  A    between atoms: C_1  and  S_21
REMARK    2  A    between atoms: C_4  and  C_9
REMARK    3  A    between atoms: N_8  and  C_11
REMARK    4  A    between atoms: C_12  and  C_18
REMARK    5  A    between atoms: C_18  and  O_19
REMARK    6  A    between atoms: S_21  and  N_24
REMARK                            x       y       z     vdW  Elec       q    Type
REMARK                         _______ _______ _______ _____ _____    ______ ____
ROOT
ATOM      1  C   UNL     1      35.090 -19.868 -21.164  0.00  0.00    +0.122 C 
ATOM      2  C   UNL     1      35.301 -20.889 -20.238  0.00  0.00    +0.024 C 
ATOM      3  C   UNL     1      33.803 -19.616 -21.641  0.00  0.00    +0.020 C 
ATOM      4  C   UNL     1      34.227 -21.658 -19.790  0.00  0.00    +0.055 C 
ATOM      5  C   UNL     1      32.729 -20.385 -21.193  0.00  0.00    +0.002 C 
ATOM      6  C   UNL     1      32.942 -21.406 -20.267  0.00  0.00    +0.005 C 
ENDROOT
BRANCH   4   9
ATOM      7  O   UNL     1      34.168 -23.891 -19.138  0.00  0.00    -0.270 OA
ATOM      8  N   UNL     1      34.997 -22.330 -17.595  0.00  0.00    -0.280 N 
ATOM      9  C   UNL     1      34.448 -22.723 -18.824  0.00  0.00    +0.250 C 
ATOM     10  H   UNL     1      35.166 -21.366 -17.490  0.00  0.00    +0.155 HD
BRANCH   8  11
ATOM     11  C   UNL     1      35.341 -23.139 -16.484  0.00  0.00    +0.057 C 
ATOM     12  C   UNL     1      36.653 -23.192 -16.013  0.00  0.00    +0.089 C 
ATOM     13  C   UNL     1      34.345 -23.889 -15.859  0.00  0.00    +0.015 C 
ATOM     14  C   UNL     1      36.968 -23.995 -14.916  0.00  0.00    +0.008 C 
ATOM     15  C   UNL     1      34.661 -24.694 -14.764  0.00  0.00    +0.001 C 
ATOM     16  C   UNL     1      35.972 -24.746 -14.293  0.00  0.00    +0.000 C 
BRANCH  12  18
ATOM     17  O   UNL     1      37.576 -21.323 -17.187  0.00  0.00    -0.245 OA
ATOM     18  C   UNL     1      37.718 -22.420 -16.642  0.00  0.00    +0.339 C 
BRANCH  18  19
ATOM     19  O   UNL     1      38.923 -23.046 -16.567  0.00  0.00    -0.477 OA
ATOM     20  H   UNL     1      38.966 -23.982 -16.574  0.00  0.00    +0.295 HD
ENDBRANCH  18  19
ENDBRANCH  12  18
ENDBRANCH   8  11
ENDBRANCH   4   9
BRANCH   1  21
ATOM     21  S   UNL     1      36.448 -18.895 -21.734  0.00  0.00    +0.064 S 
ATOM     22  O   UNL     1      37.234 -18.514 -20.579  0.00  0.00    -0.153 OA
ATOM     23  O   UNL     1      37.055 -19.589 -22.851  0.00  0.00    -0.153 OA
BRANCH  21  24
ATOM     24  N   UNL     1      35.610 -17.523 -22.320  0.00  0.00    -0.151 NA
ATOM     25  C   UNL     1      36.150 -16.916 -23.566  0.00  0.00    +0.101 C 
ATOM     26  C   UNL     1      35.277 -16.489 -21.293  0.00  0.00    +0.122 C 
ATOM     27  C   UNL     1      35.061 -16.058 -24.204  0.00  0.00    +0.045 C 
ATOM     28  C   UNL     1      34.550 -15.287 -21.848  0.00  0.00    -0.008 C 
ATOM     29  C   UNL     1      34.476 -15.064 -23.234  0.00  0.00    -0.023 C 
ATOM     30  C   UNL     1      33.977 -14.360 -20.968  0.00  0.00    -0.003 C 
ATOM     31  C   UNL     1      33.799 -13.935 -23.717  0.00  0.00    -0.004 C 
ATOM     32  C   UNL     1      33.316 -13.233 -21.458  0.00  0.00    -0.000 C 
ATOM     33  C   UNL     1      33.226 -13.023 -22.832  0.00  0.00    -0.000 C 
ENDBRANCH  21  24
ENDBRANCH   1  21
TORSDOF 6
ENDMDL
MODEL 2
REMARK VINA RESULT:     -11.4      1.307      2.242
REMARK  Name = 24941254
REMARK  6 active torsions:
REMARK  status: ('A' for Active; 'I' for Inactive)
REMARK    1  A    between atoms: C_1  and  S_21
REMARK    2  A    between atoms: C_4  and  C_9
REMARK    3  A    between atoms: N_8  and  C_11
REMARK    4  A    between atoms: C_12  and  C_18
REMARK    5  A    between atoms: C_18  and  O_19
REMARK    6  A    between atoms: S_21  and  N_24
REMARK                            x       y       z     vdW  Elec       q    Type
REMARK                         _______ _______ _______ _____ _____    ______ ____
ROOT
ATOM      1  C   UNL     1      35.477 -19.799 -21.563  0.00  0.00    +0.122 C 
ATOM      2  C   UNL     1      36.049 -20.517 -20.513  0.00  0.00    +0.024 C 
ATOM      3  C   UNL     1      34.096 -19.835 -21.760  0.00  0.00    +0.020 C 
ATOM      4  C   UNL     1      35.242 -21.271 -19.662  0.00  0.00    +0.055 C 
ATOM      5  C   UNL     1      33.289 -20.589 -20.909  0.00  0.00    +0.002 C 
ATOM      6  C   UNL     1      33.863 -21.307 -19.859  0.00  0.00    +0.005 C 
ENDROOT
BRANCH   4   9
ATOM      7  O   UNL     1      37.067 -22.199 -18.558  0.00  0.00    -0.270 OA
ATOM      8  N   UNL     1      34.954 -22.464 -17.574  0.00  0.00    -0.280 N 
ATOM      9  C   UNL     1      35.839 -22.019 -18.566  0.00  0.00    +0.250 C 
ATOM     10  H   UNL     1      34.005 -22.244 -17.718  0.00  0.00    +0.155 HD
BRANCH   8  11
ATOM     11  C   UNL     1      35.245 -23.185 -16.391  0.00  0.00    +0.057 C 
ATOM     12  C   UNL     1      34.230 -23.565 -15.513  0.00  0.00    +0.089 C 
ATOM     13  C   UNL     1      36.571 -23.514 -16.109  0.00  0.00    +0.015 C 
ATOM     14  C   UNL     1      34.542 -24.276 -14.353  0.00  0.00    +0.008 C 
ATOM     15  C   UNL     1      36.882 -24.223 -14.949  0.00  0.00    +0.001 C 
ATOM     16  C   UNL     1      35.868 -24.604 -14.071  0.00  0.00    +0.000 C 
BRANCH  12  18
ATOM     17  O   UNL     1      32.217 -23.528 -16.803  0.00  0.00    -0.245 OA
ATOM     18  C   UNL     1      32.834 -23.237 -15.777  0.00  0.00    +0.339 C 
BRANCH  18  19
ATOM     19  O   UNL     1      32.260 -22.558 -14.748  0.00  0.00    -0.477 OA
ATOM     20  H   UNL     1      31.755 -21.788 -14.920  0.00  0.00    +0.295 HD
ENDBRANCH  18  19
ENDBRANCH  12  18
ENDBRANCH   8  11
ENDBRANCH   4   9
BRANCH   1  21
ATOM     21  S   UNL     1      36.498 -18.847 -22.644  0.00  0.00    +0.064 S 
ATOM     22  O   UNL     1      37.713 -18.519 -21.929  0.00  0.00    -0.153 OA
ATOM     23  O   UNL     1      36.546 -19.524 -23.923  0.00  0.00    -0.153 OA
BRANCH  21  24
ATOM     24  N   UNL     1      35.540 -17.437 -22.797  0.00  0.00    -0.151 NA
ATOM     25  C   UNL     1      35.883 -16.539 -23.932  0.00  0.00    +0.101 C 
ATOM     26  C   UNL     1      35.312 -16.675 -21.531  0.00  0.00    +0.122 C 
ATOM     27  C   UNL     1      34.688 -15.635 -24.220  0.00  0.00    +0.045 C 
ATOM     28  C   UNL     1      34.475 -15.431 -21.706  0.00  0.00    -0.008 C 
ATOM     29  C   UNL     1      34.205 -14.916 -22.986  0.00  0.00    -0.023 C 
ATOM     30  C   UNL     1      33.995 -14.758 -20.576  0.00  0.00    -0.003 C 
ATOM     31  C   UNL     1      33.429 -13.756 -23.115  0.00  0.00    -0.004 C 
ATOM     32  C   UNL     1      33.234 -13.597 -20.714  0.00  0.00    -0.000 C 
ATOM     33  C   UNL     1      32.950 -13.098 -21.983  0.00  0.00    -0.000 C 
ENDBRANCH  21  24
ENDBRANCH   1  21
TORSDOF 6
ENDMDL
MODEL 3
REMARK VINA RESULT:     -11.2      6.023      9.918
REMARK  Name = 24941254
REMARK  6 active torsions:
REMARK  status: ('A' for Active; 'I' for Inactive)
REMARK    1  A    between atoms: C_1  and  S_21
REMARK    2  A    between atoms: C_4  and  C_9
REMARK    3  A    between atoms: N_8  and  C_11
REMARK    4  A    between atoms: C_12  and  C_18
REMARK    5  A    between atoms: C_18  and  O_19
REMARK    6  A    between atoms: S_21  and  N_24
REMARK                            x       y       z     vdW  Elec       q    Type
REMARK                         _______ _______ _______ _____ _____    ______ ____
ROOT
ATOM      1  C   UNL     1      33.005 -10.879 -23.085  0.00  0.00    +0.122 C 
ATOM      2  C   UNL     1      33.192 -12.155 -22.554  0.00  0.00    +0.024 C 
ATOM      3  C   UNL     1      33.553 -10.555 -24.327  0.00  0.00    +0.020 C 
ATOM      4  C   UNL     1      33.924 -13.106 -23.264  0.00  0.00    +0.055 C 
ATOM      5  C   UNL     1      34.285 -11.506 -25.037  0.00  0.00    +0.002 C 
ATOM      6  C   UNL     1      34.471 -12.782 -24.505  0.00  0.00    +0.005 C 
ENDROOT
BRANCH   4   9
ATOM      7  O   UNL     1      33.633 -14.705 -21.600  0.00  0.00    -0.270 OA
ATOM      8  N   UNL     1      34.836 -15.336 -23.513  0.00  0.00    -0.280 N 
ATOM      9  C   UNL     1      34.118 -14.437 -22.710  0.00  0.00    +0.250 C 
ATOM     10  H   UNL     1      35.159 -14.978 -24.371  0.00  0.00    +0.155 HD
BRANCH   8  11
ATOM     11  C   UNL     1      35.154 -16.690 -23.252  0.00  0.00    +0.057 C 
ATOM     12  C   UNL     1      34.972 -17.672 -24.226  0.00  0.00    +0.089 C 
ATOM     13  C   UNL     1      35.658 -17.037 -21.998  0.00  0.00    +0.015 C 
ATOM     14  C   UNL     1      35.294 -19.001 -23.945  0.00  0.00    +0.008 C 
ATOM     15  C   UNL     1      35.978 -18.366 -21.717  0.00  0.00    +0.001 C 
ATOM     16  C   UNL     1      35.796 -19.347 -22.691  0.00  0.00    +0.000 C 
BRANCH  12  18
ATOM     17  O   UNL     1      33.449 -17.850 -26.062  0.00  0.00    -0.245 OA
ATOM     18  C   UNL     1      34.448 -17.345 -25.546  0.00  0.00    +0.339 C 
BRANCH  18  19
ATOM     19  O   UNL     1      35.193 -16.397 -26.176  0.00  0.00    -0.477 OA
ATOM     20  H   UNL     1      35.844 -16.651 -26.800  0.00  0.00    +0.295 HD
ENDBRANCH  18  19
ENDBRANCH  12  18
ENDBRANCH   8  11
ENDBRANCH   4   9
BRANCH   1  21
ATOM     21  S   UNL     1      32.080  -9.674 -22.187  0.00  0.00    +0.064 S 
ATOM     22  O   UNL     1      30.674  -9.960 -22.381  0.00  0.00    -0.153 OA
ATOM     23  O   UNL     1      32.644  -9.581 -20.856  0.00  0.00    -0.153 OA
BRANCH  21  24
ATOM     24  N   UNL     1      32.492  -8.263 -23.065  0.00  0.00    -0.151 NA
ATOM     25  C   UNL     1      33.919  -7.849 -22.997  0.00  0.00    +0.101 C 
ATOM     26  C   UNL     1      31.565  -7.104 -22.889  0.00  0.00    +0.122 C 
ATOM     27  C   UNL     1      34.216  -6.920 -24.170  0.00  0.00    +0.045 C 
ATOM     28  C   UNL     1      31.967  -5.874 -23.667  0.00  0.00    -0.008 C 
ATOM     29  C   UNL     1      33.242  -5.772 -24.250  0.00  0.00    -0.023 C 
ATOM     30  C   UNL     1      31.070  -4.803 -23.776  0.00  0.00    -0.003 C 
ATOM     31  C   UNL     1      33.586  -4.614 -24.961  0.00  0.00    -0.004 C 
ATOM     32  C   UNL     1      31.427  -3.650 -24.475  0.00  0.00    -0.000 C 
ATOM     33  C   UNL     1      32.683  -3.558 -25.069  0.00  0.00    -0.000 C 
ENDBRANCH  21  24
ENDBRANCH   1  21
TORSDOF 6
ENDMDL
MODEL 4
REMARK VINA RESULT:     -10.9      7.184     11.188
REMARK  Name = 24941254
REMARK  6 active torsions:
REMARK  status: ('A' for Active; 'I' for Inactive)
REMARK    1  A    between atoms: C_1  and  S_21
REMARK    2  A    between atoms: C_4  and  C_9
REMARK    3  A    between atoms: N_8  and  C_11
REMARK    4  A    between atoms: C_12  and  C_18
REMARK    5  A    between atoms: C_18  and  O_19
REMARK    6  A    between atoms: S_21  and  N_24
REMARK                            x       y       z     vdW  Elec       q    Type
REMARK                         _______ _______ _______ _____ _____    ______ ____
ROOT
ATOM      1  C   UNL     1      32.197  -8.985 -20.998  0.00  0.00    +0.122 C 
ATOM      2  C   UNL     1      32.772  -9.712 -22.041  0.00  0.00    +0.024 C 
ATOM      3  C   UNL     1      31.427  -9.638 -20.036  0.00  0.00    +0.020 C 
ATOM      4  C   UNL     1      32.576 -11.090 -22.121  0.00  0.00    +0.055 C 
ATOM      5  C   UNL     1      31.231 -11.017 -20.116  0.00  0.00    +0.002 C 
ATOM      6  C   UNL     1      31.807 -11.743 -21.159  0.00  0.00    +0.005 C 
ENDROOT
BRANCH   4   9
ATOM      7  O   UNL     1      33.657 -11.238 -24.176  0.00  0.00    -0.270 OA
ATOM      8  N   UNL     1      33.182 -13.242 -23.053  0.00  0.00    -0.280 N 
ATOM      9  C   UNL     1      33.176 -11.848 -23.208  0.00  0.00    +0.250 C 
ATOM     10  H   UNL     1      32.762 -13.582 -22.230  0.00  0.00    +0.155 HD
BRANCH   8  11
ATOM     11  C   UNL     1      33.713 -14.224 -23.923  0.00  0.00    +0.057 C 
ATOM     12  C   UNL     1      34.561 -15.224 -23.446  0.00  0.00    +0.089 C 
ATOM     13  C   UNL     1      33.377 -14.181 -25.276  0.00  0.00    +0.015 C 
ATOM     14  C   UNL     1      35.071 -16.182 -24.324  0.00  0.00    +0.008 C 
ATOM     15  C   UNL     1      33.889 -15.138 -26.153  0.00  0.00    +0.001 C 
ATOM     16  C   UNL     1      34.736 -16.137 -25.677  0.00  0.00    +0.000 C 
BRANCH  12  18
ATOM     17  O   UNL     1      34.917 -14.353 -21.248  0.00  0.00    -0.245 OA
ATOM     18  C   UNL     1      34.931 -15.299 -22.039  0.00  0.00    +0.339 C 
BRANCH  18  19
ATOM     19  O   UNL     1      35.307 -16.553 -21.669  0.00  0.00    -0.477 OA
ATOM     20  H   UNL     1      34.813 -17.294 -21.959  0.00  0.00    +0.295 HD
ENDBRANCH  18  19
ENDBRANCH  12  18
ENDBRANCH   8  11
ENDBRANCH   4   9
BRANCH   1  21
ATOM     21  S   UNL     1      32.442  -7.240 -20.897  0.00  0.00    +0.064 S 
ATOM     22  O   UNL     1      31.139  -6.613 -20.836  0.00  0.00    -0.153 OA
ATOM     23  O   UNL     1      33.437  -6.989 -19.875  0.00  0.00    -0.153 OA
BRANCH  21  24
ATOM     24  N   UNL     1      33.136  -6.944 -22.433  0.00  0.00    -0.151 NA
ATOM     25  C   UNL     1      34.592  -7.224 -22.552  0.00  0.00    +0.101 C 
ATOM     26  C   UNL     1      32.764  -5.642 -23.066  0.00  0.00    +0.122 C 
ATOM     27  C   UNL     1      34.941  -7.385 -24.029  0.00  0.00    +0.045 C 
ATOM     28  C   UNL     1      33.405  -5.410 -24.413  0.00  0.00    -0.008 C 
ATOM     29  C   UNL     1      34.465  -6.219 -24.858  0.00  0.00    -0.023 C 
ATOM     30  C   UNL     1      32.964  -4.347 -25.213  0.00  0.00    -0.003 C 
ATOM     31  C   UNL     1      35.042  -5.973 -26.111  0.00  0.00    -0.004 C 
ATOM     32  C   UNL     1      33.554  -4.103 -26.453  0.00  0.00    -0.000 C 
ATOM     33  C   UNL     1      34.591  -4.918 -26.902  0.00  0.00    -0.000 C 
ENDBRANCH  21  24
ENDBRANCH   1  21
TORSDOF 6
ENDMDL
MODEL 5
REMARK VINA RESULT:     -10.9      2.704      9.797
REMARK  Name = 24941254
REMARK  6 active torsions:
REMARK  status: ('A' for Active; 'I' for Inactive)
REMARK    1  A    between atoms: C_1  and  S_21
REMARK    2  A    between atoms: C_4  and  C_9
REMARK    3  A    between atoms: N_8  and  C_11
REMARK    4  A    between atoms: C_12  and  C_18
REMARK    5  A    between atoms: C_18  and  O_19
REMARK    6  A    between atoms: S_21  and  N_24
REMARK                            x       y       z     vdW  Elec       q    Type
REMARK                         _______ _______ _______ _____ _____    ______ ____
ROOT
ATOM      1  C   UNL     1      35.027 -22.515 -18.082  0.00  0.00    +0.122 C 
ATOM      2  C   UNL     1      34.433 -21.890 -19.178  0.00  0.00    +0.024 C 
ATOM      3  C   UNL     1      36.378 -22.302 -17.806  0.00  0.00    +0.020 C 
ATOM      4  C   UNL     1      35.189 -21.053 -19.998  0.00  0.00    +0.055 C 
ATOM      5  C   UNL     1      37.134 -21.465 -18.626  0.00  0.00    +0.002 C 
ATOM      6  C   UNL     1      36.539 -20.840 -19.723  0.00  0.00    +0.005 C 
ENDROOT
BRANCH   4   9
ATOM      7  O   UNL     1      33.336 -20.455 -21.271  0.00  0.00    -0.270 OA
ATOM      8  N   UNL     1      35.441 -19.727 -22.009  0.00  0.00    -0.280 N 
ATOM      9  C   UNL     1      34.569 -20.401 -21.141  0.00  0.00    +0.250 C 
ATOM     10  H   UNL     1      36.396 -19.772 -21.775  0.00  0.00    +0.155 HD
BRANCH   8  11
ATOM     11  C   UNL     1      35.127 -18.989 -23.176  0.00  0.00    +0.057 C 
ATOM     12  C   UNL     1      35.134 -17.594 -23.167  0.00  0.00    +0.089 C 
ATOM     13  C   UNL     1      34.808 -19.677 -24.346  0.00  0.00    +0.015 C 
ATOM     14  C   UNL     1      34.822 -16.888 -24.330  0.00  0.00    +0.008 C 
ATOM     15  C   UNL     1      34.495 -18.971 -25.508  0.00  0.00    +0.001 C 
ATOM     16  C   UNL     1      34.502 -17.577 -25.499  0.00  0.00    +0.000 C 
BRANCH  12  18
ATOM     17  O   UNL     1      36.018 -17.307 -20.964  0.00  0.00    -0.245 OA
ATOM     18  C   UNL     1      35.464 -16.843 -21.962  0.00  0.00    +0.339 C 
BRANCH  18  19
ATOM     19  O   UNL     1      35.089 -15.538 -22.048  0.00  0.00    -0.477 OA
ATOM     20  H   UNL     1      34.466 -15.189 -21.441  0.00  0.00    +0.295 HD
ENDBRANCH  18  19
ENDBRANCH  12  18
ENDBRANCH   8  11
ENDBRANCH   4   9
BRANCH   1  21
ATOM     21  S   UNL     1      34.071 -23.577 -17.045  0.00  0.00    +0.064 S 
ATOM     22  O   UNL     1      33.152 -22.750 -16.292  0.00  0.00    -0.153 OA
ATOM     23  O   UNL     1      33.591 -24.677 -17.855  0.00  0.00    -0.153 OA
BRANCH  21  24
ATOM     24  N   UNL     1      35.296 -24.152 -15.995  0.00  0.00    -0.151 NA
ATOM     25  C   UNL     1      35.300 -25.619 -15.746  0.00  0.00    +0.101 C 
ATOM     26  C   UNL     1      35.480 -23.371 -14.735  0.00  0.00    +0.122 C 
ATOM     27  C   UNL     1      36.677 -26.023 -15.226  0.00  0.00    +0.045 C 
ATOM     28  C   UNL     1      36.558 -23.915 -13.828  0.00  0.00    -0.008 C 
ATOM     29  C   UNL     1      37.105 -25.193 -14.042  0.00  0.00    -0.023 C 
ATOM     30  C   UNL     1      36.990 -23.153 -12.735  0.00  0.00    -0.003 C 
ATOM     31  C   UNL     1      38.100 -25.671 -13.179  0.00  0.00    -0.004 C 
ATOM     32  C   UNL     1      37.972 -23.644 -11.874  0.00  0.00    -0.000 C 
ATOM     33  C   UNL     1      38.528 -24.901 -12.098  0.00  0.00    -0.000 C 
ENDBRANCH  21  24
ENDBRANCH   1  21
TORSDOF 6
ENDMDL
MODEL 6
REMARK VINA RESULT:     -10.8      3.801      9.151
REMARK  Name = 24941254
REMARK  6 active torsions:
REMARK  status: ('A' for Active; 'I' for Inactive)
REMARK    1  A    between atoms: C_1  and  S_21
REMARK    2  A    between atoms: C_4  and  C_9
REMARK    3  A    between atoms: N_8  and  C_11
REMARK    4  A    between atoms: C_12  and  C_18
REMARK    5  A    between atoms: C_18  and  O_19
REMARK    6  A    between atoms: S_21  and  N_24
REMARK                            x       y       z     vdW  Elec       q    Type
REMARK                         _______ _______ _______ _____ _____    ______ ____
ROOT
ATOM      1  C   UNL     1      36.940 -23.948 -14.681  0.00  0.00    +0.122 C 
ATOM      2  C   UNL     1      36.637 -22.944 -15.601  0.00  0.00    +0.024 C 
ATOM      3  C   UNL     1      38.181 -24.583 -14.727  0.00  0.00    +0.020 C 
ATOM      4  C   UNL     1      37.574 -22.576 -16.566  0.00  0.00    +0.055 C 
ATOM      5  C   UNL     1      39.119 -24.214 -15.691  0.00  0.00    +0.002 C 
ATOM      6  C   UNL     1      38.815 -23.210 -16.611  0.00  0.00    +0.005 C 
ENDROOT
BRANCH   4   9
ATOM      7  O   UNL     1      37.718 -20.389 -17.347  0.00  0.00    -0.270 OA
ATOM      8  N   UNL     1      36.459 -21.914 -18.611  0.00  0.00    -0.280 N 
ATOM      9  C   UNL     1      37.258 -21.529 -17.525  0.00  0.00    +0.250 C 
ATOM     10  H   UNL     1      36.169 -22.854 -18.616  0.00  0.00    +0.155 HD
BRANCH   8  11
ATOM     11  C   UNL     1      36.016 -21.128 -19.702  0.00  0.00    +0.057 C 
ATOM     12  C   UNL     1      34.697 -21.201 -20.152  0.00  0.00    +0.089 C 
ATOM     13  C   UNL     1      36.920 -20.270 -20.329  0.00  0.00    +0.015 C 
ATOM     14  C   UNL     1      34.284 -20.416 -21.229  0.00  0.00    +0.008 C 
ATOM     15  C   UNL     1      36.506 -19.487 -21.407  0.00  0.00    +0.001 C 
ATOM     16  C   UNL     1      35.189 -19.560 -21.856  0.00  0.00    +0.000 C 
BRANCH  12  18
ATOM     17  O   UNL     1      32.658 -21.728 -19.018  0.00  0.00    -0.245 OA
ATOM     18  C   UNL     1      33.726 -22.085 -19.519  0.00  0.00    +0.339 C 
BRANCH  18  19
ATOM     19  O   UNL     1      34.125 -23.386 -19.535  0.00  0.00    -0.477 OA
ATOM     20  H   UNL     1      34.861 -23.656 -19.022  0.00  0.00    +0.295 HD
ENDBRANCH  18  19
ENDBRANCH  12  18
ENDBRANCH   8  11
ENDBRANCH   4   9
BRANCH   1  21
ATOM     21  S   UNL     1      35.753 -24.417 -13.461  0.00  0.00    +0.064 S 
ATOM     22  O   UNL     1      35.975 -25.812 -13.142  0.00  0.00    -0.153 OA
ATOM     23  O   UNL     1      35.757 -23.406 -12.425  0.00  0.00    -0.153 OA
BRANCH  21  24
ATOM     24  N   UNL     1      34.312 -24.273 -14.373  0.00  0.00    -0.151 NA
ATOM     25  C   UNL     1      34.040 -22.929 -14.950  0.00  0.00    +0.101 C 
ATOM     26  C   UNL     1      33.093 -24.867 -13.745  0.00  0.00    +0.122 C 
ATOM     27  C   UNL     1      33.038 -23.079 -16.091  0.00  0.00    +0.045 C 
ATOM     28  C   UNL     1      31.839 -24.709 -14.571  0.00  0.00    -0.008 C 
ATOM     29  C   UNL     1      31.802 -23.832 -15.669  0.00  0.00    -0.023 C 
ATOM     30  C   UNL     1      30.683 -25.417 -14.214  0.00  0.00    -0.003 C 
ATOM     31  C   UNL     1      30.620 -23.704 -16.411  0.00  0.00    -0.004 C 
ATOM     32  C   UNL     1      29.509 -25.273 -14.952  0.00  0.00    -0.000 C 
ATOM     33  C   UNL     1      29.479 -24.418 -16.051  0.00  0.00    -0.000 C 
ENDBRANCH  21  24
ENDBRANCH   1  21
TORSDOF 6
ENDMDL
MODEL 7
REMARK VINA RESULT:     -10.8      2.343      9.229
REMARK  Name = 24941254
REMARK  6 active torsions:
REMARK  status: ('A' for Active; 'I' for Inactive)
REMARK    1  A    between atoms: C_1  and  S_21
REMARK    2  A    between atoms: C_4  and  C_9
REMARK    3  A    between atoms: N_8  and  C_11
REMARK    4  A    between atoms: C_12  and  C_18
REMARK    5  A    between atoms: C_18  and  O_19
REMARK    6  A    between atoms: S_21  and  N_24
REMARK                            x       y       z     vdW  Elec       q    Type
REMARK                         _______ _______ _______ _____ _____    ______ ____
ROOT
ATOM      1  C   UNL     1      35.326 -21.685 -19.667  0.00  0.00    +0.122 C 
ATOM      2  C   UNL     1      35.436 -20.739 -20.686  0.00  0.00    +0.024 C 
ATOM      3  C   UNL     1      36.297 -21.748 -18.667  0.00  0.00    +0.020 C 
ATOM      4  C   UNL     1      36.516 -19.857 -20.706  0.00  0.00    +0.055 C 
ATOM      5  C   UNL     1      37.377 -20.866 -18.687  0.00  0.00    +0.002 C 
ATOM      6  C   UNL     1      37.486 -19.920 -19.706  0.00  0.00    +0.005 C 
ENDROOT
BRANCH   4   9
ATOM      7  O   UNL     1      37.749 -18.630 -22.251  0.00  0.00    -0.270 OA
ATOM      8  N   UNL     1      35.430 -18.276 -22.184  0.00  0.00    -0.280 N 
ATOM      9  C   UNL     1      36.631 -18.870 -21.768  0.00  0.00    +0.250 C 
ATOM     10  H   UNL     1      34.621 -18.568 -21.706  0.00  0.00    +0.155 HD
BRANCH   8  11
ATOM     11  C   UNL     1      35.230 -17.313 -23.202  0.00  0.00    +0.057 C 
ATOM     12  C   UNL     1      35.000 -15.973 -22.889  0.00  0.00    +0.089 C 
ATOM     13  C   UNL     1      35.263 -17.721 -24.535  0.00  0.00    +0.015 C 
ATOM     14  C   UNL     1      34.805 -15.042 -23.910  0.00  0.00    +0.008 C 
ATOM     15  C   UNL     1      35.067 -16.790 -25.556  0.00  0.00    +0.001 C 
ATOM     16  C   UNL     1      34.838 -15.451 -25.243  0.00  0.00    +0.000 C 
BRANCH  12  18
ATOM     17  O   UNL     1      34.975 -16.240 -20.512  0.00  0.00    -0.245 OA
ATOM     18  C   UNL     1      34.959 -15.512 -21.507  0.00  0.00    +0.339 C 
BRANCH  18  19
ATOM     19  O   UNL     1      34.899 -14.156 -21.416  0.00  0.00    -0.477 OA
ATOM     20  H   UNL     1      35.399 -13.708 -20.763  0.00  0.00    +0.295 HD
ENDBRANCH  18  19
ENDBRANCH  12  18
ENDBRANCH   8  11
ENDBRANCH   4   9
BRANCH   1  21
ATOM     21  S   UNL     1      33.960 -22.803 -19.643  0.00  0.00    +0.064 S 
ATOM     22  O   UNL     1      32.821 -22.124 -20.223  0.00  0.00    -0.153 OA
ATOM     23  O   UNL     1      34.416 -24.074 -20.168  0.00  0.00    -0.153 OA
BRANCH  21  24
ATOM     24  N   UNL     1      33.724 -22.952 -17.954  0.00  0.00    -0.151 NA
ATOM     25  C   UNL     1      34.628 -23.903 -17.253  0.00  0.00    +0.101 C 
ATOM     26  C   UNL     1      32.304 -23.106 -17.515  0.00  0.00    +0.122 C 
ATOM     27  C   UNL     1      34.633 -23.569 -15.765  0.00  0.00    +0.045 C 
ATOM     28  C   UNL     1      32.135 -23.248 -16.021  0.00  0.00    -0.008 C 
ATOM     29  C   UNL     1      33.241 -23.502 -15.191  0.00  0.00    -0.023 C 
ATOM     30  C   UNL     1      30.854 -23.166 -15.461  0.00  0.00    -0.003 C 
ATOM     31  C   UNL     1      33.049 -23.634 -13.809  0.00  0.00    -0.004 C 
ATOM     32  C   UNL     1      30.673 -23.311 -14.085  0.00  0.00    -0.000 C 
ATOM     33  C   UNL     1      31.771 -23.543 -13.260  0.00  0.00    -0.000 C 
ENDBRANCH  21  24
ENDBRANCH   1  21
TORSDOF 6
ENDMDL
MODEL 8
REMARK VINA RESULT:     -10.7      3.365      8.956
REMARK  Name = 24941254
REMARK  6 active torsions:
REMARK  status: ('A' for Active; 'I' for Inactive)
REMARK    1  A    between atoms: C_1  and  S_21
REMARK    2  A    between atoms: C_4  and  C_9
REMARK    3  A    between atoms: N_8  and  C_11
REMARK    4  A    between atoms: C_12  and  C_18
REMARK    5  A    between atoms: C_18  and  O_19
REMARK    6  A    between atoms: S_21  and  N_24
REMARK                            x       y       z     vdW  Elec       q    Type
REMARK                         _______ _______ _______ _____ _____    ______ ____
ROOT
ATOM      1  C   UNL     1      36.200 -23.202 -16.071  0.00  0.00    +0.122 C 
ATOM      2  C   UNL     1      35.714 -22.975 -17.358  0.00  0.00    +0.024 C 
ATOM      3  C   UNL     1      37.302 -22.484 -15.606  0.00  0.00    +0.020 C 
ATOM      4  C   UNL     1      36.330 -22.031 -18.180  0.00  0.00    +0.055 C 
ATOM      5  C   UNL     1      37.919 -21.541 -16.428  0.00  0.00    +0.002 C 
ATOM      6  C   UNL     1      37.432 -21.315 -17.716  0.00  0.00    +0.005 C 
ENDROOT
BRANCH   4   9
ATOM      7  O   UNL     1      35.306 -22.734 -20.148  0.00  0.00    -0.270 OA
ATOM      8  N   UNL     1      35.942 -20.481 -19.999  0.00  0.00    -0.280 N 
ATOM      9  C   UNL     1      35.822 -21.794 -19.523  0.00  0.00    +0.250 C 
ATOM     10  H   UNL     1      36.375 -19.842 -19.388  0.00  0.00    +0.155 HD
BRANCH   8  11
ATOM     11  C   UNL     1      35.519 -19.952 -21.243  0.00  0.00    +0.057 C 
ATOM     12  C   UNL     1      36.348 -19.112 -21.986  0.00  0.00    +0.089 C 
ATOM     13  C   UNL     1      34.252 -20.283 -21.723  0.00  0.00    +0.015 C 
ATOM     14  C   UNL     1      35.910 -18.603 -23.209  0.00  0.00    +0.008 C 
ATOM     15  C   UNL     1      33.813 -19.773 -22.945  0.00  0.00    +0.001 C 
ATOM     16  C   UNL     1      34.642 -18.934 -23.687  0.00  0.00    +0.000 C 
BRANCH  12  18
ATOM     17  O   UNL     1      38.020 -18.676 -20.331  0.00  0.00    -0.245 OA
ATOM     18  C   UNL     1      37.678 -18.746 -21.514  0.00  0.00    +0.339 C 
BRANCH  18  19
ATOM     19  O   UNL     1      38.534 -18.480 -22.537  0.00  0.00    -0.477 OA
ATOM     20  H   UNL     1      38.353 -17.776 -23.128  0.00  0.00    +0.295 HD
ENDBRANCH  18  19
ENDBRANCH  12  18
ENDBRANCH   8  11
ENDBRANCH   4   9
BRANCH   1  21
ATOM     21  S   UNL     1      35.422 -24.397 -15.030  0.00  0.00    +0.064 S 
ATOM     22  O   UNL     1      35.869 -25.708 -15.450  0.00  0.00    -0.153 OA
ATOM     23  O   UNL     1      35.579 -23.961 -13.658  0.00  0.00    -0.153 OA
BRANCH  21  24
ATOM     24  N   UNL     1      33.789 -24.185 -15.498  0.00  0.00    -0.151 NA
ATOM     25  C   UNL     1      33.368 -22.784 -15.770  0.00  0.00    +0.101 C 
ATOM     26  C   UNL     1      32.784 -24.918 -14.670  0.00  0.00    +0.122 C 
ATOM     27  C   UNL     1      32.099 -22.810 -16.617  0.00  0.00    +0.045 C 
ATOM     28  C   UNL     1      31.354 -24.697 -15.103  0.00  0.00    -0.008 C 
ATOM     29  C   UNL     1      31.023 -23.671 -16.005  0.00  0.00    -0.023 C 
ATOM     30  C   UNL     1      30.339 -25.500 -14.567  0.00  0.00    -0.003 C 
ATOM     31  C   UNL     1      29.686 -23.488 -16.382  0.00  0.00    -0.004 C 
ATOM     32  C   UNL     1      29.009 -25.301 -14.940  0.00  0.00    -0.000 C 
ATOM     33  C   UNL     1      28.684 -24.297 -15.848  0.00  0.00    -0.000 C 
ENDBRANCH  21  24
ENDBRANCH   1  21
TORSDOF 6
ENDMDL
MODEL 9
REMARK VINA RESULT:     -10.7      1.478      2.622
REMARK  Name = 24941254
REMARK  6 active torsions:
REMARK  status: ('A' for Active; 'I' for Inactive)
REMARK    1  A    between atoms: C_1  and  S_21
REMARK    2  A    between atoms: C_4  and  C_9
REMARK    3  A    between atoms: N_8  and  C_11
REMARK    4  A    between atoms: C_12  and  C_18
REMARK    5  A    between atoms: C_18  and  O_19
REMARK    6  A    between atoms: S_21  and  N_24
REMARK                            x       y       z     vdW  Elec       q    Type
REMARK                         _______ _______ _______ _____ _____    ______ ____
ROOT
ATOM      1  C   UNL     1      35.424 -19.845 -21.058  0.00  0.00    +0.122 C 
ATOM      2  C   UNL     1      35.533 -20.890 -20.141  0.00  0.00    +0.024 C 
ATOM      3  C   UNL     1      34.177 -19.507 -21.585  0.00  0.00    +0.020 C 
ATOM      4  C   UNL     1      34.396 -21.597 -19.751  0.00  0.00    +0.055 C 
ATOM      5  C   UNL     1      33.040 -20.215 -21.195  0.00  0.00    +0.002 C 
ATOM      6  C   UNL     1      33.150 -21.260 -20.277  0.00  0.00    +0.005 C 
ENDROOT
BRANCH   4   9
ATOM      7  O   UNL     1      34.205 -23.836 -19.149  0.00  0.00    -0.270 OA
ATOM      8  N   UNL     1      34.991 -22.338 -17.523  0.00  0.00    -0.280 N 
ATOM      9  C   UNL     1      34.510 -22.687 -18.793  0.00  0.00    +0.250 C 
ATOM     10  H   UNL     1      35.191 -21.384 -17.389  0.00  0.00    +0.155 HD
BRANCH   8  11
ATOM     11  C   UNL     1      35.228 -23.179 -16.409  0.00  0.00    +0.057 C 
ATOM     12  C   UNL     1      34.181 -23.599 -15.589  0.00  0.00    +0.089 C 
ATOM     13  C   UNL     1      36.534 -23.587 -16.136  0.00  0.00    +0.015 C 
ATOM     14  C   UNL     1      34.440 -24.428 -14.497  0.00  0.00    +0.008 C 
ATOM     15  C   UNL     1      36.793 -24.414 -15.043  0.00  0.00    +0.001 C 
ATOM     16  C   UNL     1      35.745 -24.835 -14.224  0.00  0.00    +0.000 C 
BRANCH  12  18
ATOM     17  O   UNL     1      32.148 -22.421 -15.143  0.00  0.00    -0.245 OA
ATOM     18  C   UNL     1      32.805 -23.192 -15.846  0.00  0.00    +0.339 C 
BRANCH  18  19
ATOM     19  O   UNL     1      32.298 -23.763 -16.972  0.00  0.00    -0.477 OA
ATOM     20  H   UNL     1      31.844 -23.237 -17.600  0.00  0.00    +0.295 HD
ENDBRANCH  18  19
ENDBRANCH  12  18
ENDBRANCH   8  11
ENDBRANCH   4   9
BRANCH   1  21
ATOM     21  S   UNL     1      36.863 -18.950 -21.554  0.00  0.00    +0.064 S 
ATOM     22  O   UNL     1      37.588 -18.580 -20.357  0.00  0.00    -0.153 OA
ATOM     23  O   UNL     1      37.507 -19.696 -22.615  0.00  0.00    -0.153 OA
BRANCH  21  24
ATOM     24  N   UNL     1      36.132 -17.553 -22.221  0.00  0.00    -0.151 NA
ATOM     25  C   UNL     1      35.188 -16.826 -21.329  0.00  0.00    +0.101 C 
ATOM     26  C   UNL     1      35.585 -17.712 -23.602  0.00  0.00    +0.122 C 
ATOM     27  C   UNL     1      35.015 -15.404 -21.855  0.00  0.00    +0.045 C 
ATOM     28  C   UNL     1      34.936 -16.464 -24.152  0.00  0.00    -0.008 C 
ATOM     29  C   UNL     1      34.634 -15.377 -23.313  0.00  0.00    -0.023 C 
ATOM     30  C   UNL     1      34.594 -16.406 -25.509  0.00  0.00    -0.003 C 
ATOM     31  C   UNL     1      34.026 -14.236 -23.854  0.00  0.00    -0.004 C 
ATOM     32  C   UNL     1      33.978 -15.270 -26.035  0.00  0.00    -0.000 C 
ATOM     33  C   UNL     1      33.696 -14.185 -25.208  0.00  0.00    -0.000 C 
ENDBRANCH  21  24
ENDBRANCH   1  21
TORSDOF 6
ENDMDL
