MODEL 1
REMARK VINA RESULT:     -11.3      0.000      0.000
REMARK  Name = 9820008
REMARK  6 active torsions:
REMARK  status: ('A' for Active; 'I' for Inactive)
REMARK    1  A    between atoms: C_2  and  N_17
REMARK    2  A    between atoms: C_3  and  C_8
REMARK    3  A    between atoms: C_11  and  O_14
REMARK    4  A    between atoms: C_18  and  C_23
REMARK    5  A    between atoms: C_24  and  C_26
REMARK    6  A    between atoms: C_26  and  O_27
REMARK                            x       y       z     vdW  Elec       q    Type
REMARK                         _______ _______ _______ _____ _____    ______ ____
ROOT
ATOM      1  F   UNL     1      35.469 -23.099 -17.499  0.00  0.00    -0.203 F 
ATOM      2  C   UNL     1      33.404 -22.390 -18.435  0.00  0.00    +0.078 C 
ATOM      3  C   UNL     1      34.789 -20.853 -20.276  0.00  0.00    +0.002 C 
ATOM      4  C   UNL     1      34.789 -22.379 -18.403  0.00  0.00    +0.153 C 
ATOM      5  C   UNL     1      32.697 -21.650 -19.368  0.00  0.00    +0.017 C 
ATOM      6  C   UNL     1      35.486 -21.605 -19.330  0.00  0.00    +0.031 C 
ATOM      7  C   UNL     1      33.394 -20.876 -20.295  0.00  0.00    +0.001 C 
ENDROOT
BRANCH   3   8
ATOM      8  C   UNL     1      35.512 -20.050 -21.239  0.00  0.00    +0.003 C 
ATOM      9  C   UNL     1      34.893 -19.661 -22.427  0.00  0.00    +0.037 C 
ATOM     10  C   UNL     1      36.827 -19.666 -20.979  0.00  0.00    +0.000 C 
ATOM     11  C   UNL     1      35.589 -18.888 -23.355  0.00  0.00    +0.139 C 
ATOM     12  C   UNL     1      37.523 -18.892 -21.907  0.00  0.00    +0.003 C 
ATOM     13  C   UNL     1      36.905 -18.503 -23.095  0.00  0.00    +0.037 C 
BRANCH  11  14
ATOM     14  O   UNL     1      34.987 -18.508 -24.514  0.00  0.00    -0.471 OA
ATOM     15  C   UNL     1      34.970 -17.113 -24.811  0.00  0.00    +0.252 C 
ENDBRANCH  11  14
ENDBRANCH   3   8
BRANCH   2  17
ATOM     16  O   UNL     1      30.615 -22.079 -17.336  0.00  0.00    -0.270 OA
ATOM     17  N   UNL     1      32.694 -23.174 -17.495  0.00  0.00    -0.279 N 
ATOM     18  C   UNL     1      31.399 -22.980 -17.021  0.00  0.00    +0.245 C 
ATOM     19  H   UNL     1      33.175 -23.952 -17.131  0.00  0.00    +0.155 HD
BRANCH  18  23
ATOM     20  C   UNL     1      31.105 -25.312 -14.103  0.00  0.00    +0.010 C 
ATOM     21  C   UNL     1      31.997 -24.631 -15.142  0.00  0.00    +0.031 C 
ATOM     22  C   UNL     1      29.744 -25.505 -14.775  0.00  0.00    +0.033 C 
ATOM     23  C   UNL     1      30.999 -23.993 -16.054  0.00  0.00    +0.034 C 
ATOM     24  C   UNL     1      29.767 -24.472 -15.853  0.00  0.00    +0.054 C 
BRANCH  24  26
ATOM     25  O   UNL     1      28.107 -24.653 -17.545  0.00  0.00    -0.245 OA
ATOM     26  C   UNL     1      28.551 -24.087 -16.556  0.00  0.00    +0.334 C 
BRANCH  26  27
ATOM     27  O   UNL     1      27.991 -23.014 -15.953  0.00  0.00    -0.477 OA
ATOM     28  H   UNL     1      27.909 -22.990 -15.020  0.00  0.00    +0.295 HD
ENDBRANCH  26  27
ENDBRANCH  24  26
ENDBRANCH  18  23
ENDBRANCH   2  17
TORSDOF 6
ENDMDL
MODEL 2
REMARK VINA RESULT:     -11.2      3.323      4.639
REMARK  Name = 9820008
REMARK  6 active torsions:
REMARK  status: ('A' for Active; 'I' for Inactive)
REMARK    1  A    between atoms: C_2  and  N_17
REMARK    2  A    between atoms: C_3  and  C_8
REMARK    3  A    between atoms: C_11  and  O_14
REMARK    4  A    between atoms: C_18  and  C_23
REMARK    5  A    between atoms: C_24  and  C_26
REMARK    6  A    between atoms: C_26  and  O_27
REMARK                            x       y       z     vdW  Elec       q    Type
REMARK                         _______ _______ _______ _____ _____    ______ ____
ROOT
ATOM      1  F   UNL     1      33.660 -21.832 -19.454  0.00  0.00    -0.203 F 
ATOM      2  C   UNL     1      35.974 -21.301 -19.526  0.00  0.00    +0.078 C 
ATOM      3  C   UNL     1      35.508 -19.650 -21.699  0.00  0.00    +0.002 C 
ATOM      4  C   UNL     1      34.684 -21.173 -20.015  0.00  0.00    +0.153 C 
ATOM      5  C   UNL     1      37.035 -20.622 -20.100  0.00  0.00    +0.017 C 
ATOM      6  C   UNL     1      34.449 -20.341 -21.109  0.00  0.00    +0.031 C 
ATOM      7  C   UNL     1      36.801 -19.791 -21.195  0.00  0.00    +0.001 C 
ENDROOT
BRANCH   3   8
ATOM      8  C   UNL     1      35.265 -18.787 -22.835  0.00  0.00    +0.003 C 
ATOM      9  C   UNL     1      35.592 -17.433 -22.764  0.00  0.00    +0.037 C 
ATOM     10  C   UNL     1      34.703 -19.308 -24.000  0.00  0.00    +0.000 C 
ATOM     11  C   UNL     1      35.357 -16.600 -23.858  0.00  0.00    +0.139 C 
ATOM     12  C   UNL     1      34.469 -18.476 -25.095  0.00  0.00    +0.003 C 
ATOM     13  C   UNL     1      34.795 -17.122 -25.023  0.00  0.00    +0.037 C 
BRANCH  11  14
ATOM     14  O   UNL     1      35.675 -15.279 -23.790  0.00  0.00    -0.471 OA
ATOM     15  C   UNL     1      34.593 -14.351 -23.753  0.00  0.00    +0.252 C 
ENDBRANCH  11  14
ENDBRANCH   3   8
BRANCH   2  17
ATOM     16  O   UNL     1      37.653 -20.863 -17.061  0.00  0.00    -0.270 OA
ATOM     17  N   UNL     1      36.215 -22.146 -18.416  0.00  0.00    -0.279 N 
ATOM     18  C   UNL     1      37.006 -21.888 -17.299  0.00  0.00    +0.245 C 
ATOM     19  H   UNL     1      35.768 -23.023 -18.436  0.00  0.00    +0.155 HD
BRANCH  18  23
ATOM     20  C   UNL     1      37.812 -24.377 -14.617  0.00  0.00    +0.010 C 
ATOM     21  C   UNL     1      38.297 -23.517 -15.784  0.00  0.00    +0.031 C 
ATOM     22  C   UNL     1      36.362 -24.745 -14.935  0.00  0.00    +0.033 C 
ATOM     23  C   UNL     1      37.017 -22.997 -16.354  0.00  0.00    +0.034 C 
ATOM     24  C   UNL     1      35.959 -23.670 -15.890  0.00  0.00    +0.054 C 
BRANCH  24  26
ATOM     25  O   UNL     1      34.015 -23.834 -17.247  0.00  0.00    -0.245 OA
ATOM     26  C   UNL     1      34.560 -23.443 -16.225  0.00  0.00    +0.334 C 
BRANCH  26  27
ATOM     27  O   UNL     1      33.958 -22.738 -15.240  0.00  0.00    -0.477 OA
ATOM     28  H   UNL     1      34.344 -22.701 -14.387  0.00  0.00    +0.295 HD
ENDBRANCH  26  27
ENDBRANCH  24  26
ENDBRANCH  18  23
ENDBRANCH   2  17
TORSDOF 6
ENDMDL
MODEL 3
REMARK VINA RESULT:     -11.0      1.333      2.069
REMARK  Name = 9820008
REMARK  6 active torsions:
REMARK  status: ('A' for Active; 'I' for Inactive)
REMARK    1  A    between atoms: C_2  and  N_17
REMARK    2  A    between atoms: C_3  and  C_8
REMARK    3  A    between atoms: C_11  and  O_14
REMARK    4  A    between atoms: C_18  and  C_23
REMARK    5  A    between atoms: C_24  and  C_26
REMARK    6  A    between atoms: C_26  and  O_27
REMARK                            x       y       z     vdW  Elec       q    Type
REMARK                         _______ _______ _______ _____ _____    ______ ____
ROOT
ATOM      1  F   UNL     1      35.501 -23.119 -17.507  0.00  0.00    -0.203 F 
ATOM      2  C   UNL     1      33.419 -22.398 -18.393  0.00  0.00    +0.078 C 
ATOM      3  C   UNL     1      34.768 -20.875 -20.272  0.00  0.00    +0.002 C 
ATOM      4  C   UNL     1      34.804 -22.397 -18.396  0.00  0.00    +0.153 C 
ATOM      5  C   UNL     1      32.694 -21.655 -19.310  0.00  0.00    +0.017 C 
ATOM      6  C   UNL     1      35.484 -21.630 -19.342  0.00  0.00    +0.031 C 
ATOM      7  C   UNL     1      33.373 -20.888 -20.256  0.00  0.00    +0.001 C 
ENDROOT
BRANCH   3   8
ATOM      8  C   UNL     1      35.473 -20.080 -21.254  0.00  0.00    +0.003 C 
ATOM      9  C   UNL     1      34.837 -19.714 -22.441  0.00  0.00    +0.037 C 
ATOM     10  C   UNL     1      36.787 -19.680 -21.015  0.00  0.00    +0.000 C 
ATOM     11  C   UNL     1      35.516 -18.948 -23.388  0.00  0.00    +0.139 C 
ATOM     12  C   UNL     1      37.466 -18.913 -21.962  0.00  0.00    +0.003 C 
ATOM     13  C   UNL     1      36.831 -18.548 -23.149  0.00  0.00    +0.037 C 
BRANCH  11  14
ATOM     14  O   UNL     1      34.897 -18.591 -24.547  0.00  0.00    -0.471 OA
ATOM     15  C   UNL     1      34.926 -17.210 -24.900  0.00  0.00    +0.252 C 
ENDBRANCH  11  14
ENDBRANCH   3   8
BRANCH   2  17
ATOM     16  O   UNL     1      30.632 -22.109 -17.282  0.00  0.00    -0.270 OA
ATOM     17  N   UNL     1      32.727 -23.174 -17.433  0.00  0.00    -0.279 N 
ATOM     18  C   UNL     1      31.432 -22.991 -16.956  0.00  0.00    +0.245 C 
ATOM     19  H   UNL     1      33.222 -23.938 -17.058  0.00  0.00    +0.155 HD
BRANCH  18  23
ATOM     20  C   UNL     1      30.068 -25.956 -15.115  0.00  0.00    +0.010 C 
ATOM     21  C   UNL     1      29.857 -24.865 -16.166  0.00  0.00    +0.031 C 
ATOM     22  C   UNL     1      30.996 -25.354 -14.059  0.00  0.00    +0.033 C 
ATOM     23  C   UNL     1      31.054 -23.992 -15.967  0.00  0.00    +0.034 C 
ATOM     24  C   UNL     1      31.676 -24.260 -14.814  0.00  0.00    +0.054 C 
BRANCH  24  26
ATOM     25  O   UNL     1      33.935 -23.523 -14.885  0.00  0.00    -0.245 OA
ATOM     26  C   UNL     1      32.869 -23.609 -14.291  0.00  0.00    +0.334 C 
BRANCH  26  27
ATOM     27  O   UNL     1      32.622 -23.117 -13.056  0.00  0.00    -0.477 OA
ATOM     28  H   UNL     1      32.068 -22.369 -12.951  0.00  0.00    +0.295 HD
ENDBRANCH  26  27
ENDBRANCH  24  26
ENDBRANCH  18  23
ENDBRANCH   2  17
TORSDOF 6
ENDMDL
MODEL 4
REMARK VINA RESULT:     -10.8      8.250     13.163
REMARK  Name = 9820008
REMARK  6 active torsions:
REMARK  status: ('A' for Active; 'I' for Inactive)
REMARK    1  A    between atoms: C_2  and  N_17
REMARK    2  A    between atoms: C_3  and  C_8
REMARK    3  A    between atoms: C_11  and  O_14
REMARK    4  A    between atoms: C_18  and  C_23
REMARK    5  A    between atoms: C_24  and  C_26
REMARK    6  A    between atoms: C_26  and  O_27
REMARK                            x       y       z     vdW  Elec       q    Type
REMARK                         _______ _______ _______ _____ _____    ______ ____
ROOT
ATOM      1  F   UNL     1      32.067 -11.853 -21.314  0.00  0.00    -0.203 F 
ATOM      2  C   UNL     1      33.163 -11.120 -23.290  0.00  0.00    +0.078 C 
ATOM      3  C   UNL     1      34.013 -13.713 -23.758  0.00  0.00    +0.002 C 
ATOM      4  C   UNL     1      32.812 -12.119 -22.398  0.00  0.00    +0.153 C 
ATOM      5  C   UNL     1      33.930 -11.389 -24.411  0.00  0.00    +0.017 C 
ATOM      6  C   UNL     1      33.239 -13.425 -22.633  0.00  0.00    +0.031 C 
ATOM      7  C   UNL     1      34.359 -12.695 -24.647  0.00  0.00    +0.001 C 
ENDROOT
BRANCH   3   8
ATOM      8  C   UNL     1      34.457 -15.068 -24.004  0.00  0.00    +0.003 C 
ATOM      9  C   UNL     1      35.077 -15.794 -22.987  0.00  0.00    +0.037 C 
ATOM     10  C   UNL     1      34.265 -15.649 -25.257  0.00  0.00    +0.000 C 
ATOM     11  C   UNL     1      35.506 -17.100 -23.223  0.00  0.00    +0.139 C 
ATOM     12  C   UNL     1      34.693 -16.955 -25.494  0.00  0.00    +0.003 C 
ATOM     13  C   UNL     1      35.314 -17.680 -24.477  0.00  0.00    +0.037 C 
BRANCH  11  14
ATOM     14  O   UNL     1      36.112 -17.809 -22.232  0.00  0.00    -0.471 OA
ATOM     15  C   UNL     1      35.534 -19.065 -21.885  0.00  0.00    +0.252 C 
ENDBRANCH  11  14
ENDBRANCH   3   8
BRANCH   2  17
ATOM     16  O   UNL     1      34.604  -8.497 -23.656  0.00  0.00    -0.270 OA
ATOM     17  N   UNL     1      32.732  -9.793 -23.052  0.00  0.00    -0.279 N 
ATOM     18  C   UNL     1      33.446  -8.612 -23.241  0.00  0.00    +0.245 C 
ATOM     19  H   UNL     1      31.814  -9.692 -22.712  0.00  0.00    +0.155 HD
BRANCH  18  23
ATOM     20  C   UNL     1      31.126  -5.672 -23.158  0.00  0.00    +0.010 C 
ATOM     21  C   UNL     1      32.136  -6.512 -23.939  0.00  0.00    +0.031 C 
ATOM     22  C   UNL     1      31.551  -5.755 -21.690  0.00  0.00    +0.033 C 
ATOM     23  C   UNL     1      32.674  -7.429 -22.888  0.00  0.00    +0.034 C 
ATOM     24  C   UNL     1      32.353  -7.014 -21.658  0.00  0.00    +0.054 C 
BRANCH  24  26
ATOM     25  O   UNL     1      32.145  -8.633 -19.931  0.00  0.00    -0.245 OA
ATOM     26  C   UNL     1      32.706  -7.653 -20.398  0.00  0.00    +0.334 C 
BRANCH  26  27
ATOM     27  O   UNL     1      33.744  -7.001 -19.826  0.00  0.00    -0.477 OA
ATOM     28  H   UNL     1      34.437  -6.664 -20.358  0.00  0.00    +0.295 HD
ENDBRANCH  26  27
ENDBRANCH  24  26
ENDBRANCH  18  23
ENDBRANCH   2  17
TORSDOF 6
ENDMDL
MODEL 5
REMARK VINA RESULT:     -10.6      4.449      5.289
REMARK  Name = 9820008
REMARK  6 active torsions:
REMARK  status: ('A' for Active; 'I' for Inactive)
REMARK    1  A    between atoms: C_2  and  N_17
REMARK    2  A    between atoms: C_3  and  C_8
REMARK    3  A    between atoms: C_11  and  O_14
REMARK    4  A    between atoms: C_18  and  C_23
REMARK    5  A    between atoms: C_24  and  C_26
REMARK    6  A    between atoms: C_26  and  O_27
REMARK                            x       y       z     vdW  Elec       q    Type
REMARK                         _______ _______ _______ _____ _____    ______ ____
ROOT
ATOM      1  F   UNL     1      34.465 -23.352 -17.726  0.00  0.00    -0.203 F 
ATOM      2  C   UNL     1      36.496 -22.280 -17.121  0.00  0.00    +0.078 C 
ATOM      3  C   UNL     1      36.428 -20.856 -19.495  0.00  0.00    +0.002 C 
ATOM      4  C   UNL     1      35.446 -22.482 -18.003  0.00  0.00    +0.153 C 
ATOM      5  C   UNL     1      37.511 -21.381 -17.401  0.00  0.00    +0.017 C 
ATOM      6  C   UNL     1      35.412 -21.765 -19.198  0.00  0.00    +0.031 C 
ATOM      7  C   UNL     1      37.478 -20.664 -18.597  0.00  0.00    +0.001 C 
ENDROOT
BRANCH   3   8
ATOM      8  C   UNL     1      36.392 -20.111 -20.735  0.00  0.00    +0.003 C 
ATOM      9  C   UNL     1      35.277 -20.197 -21.569  0.00  0.00    +0.037 C 
ATOM     10  C   UNL     1      37.473 -19.308 -21.098  0.00  0.00    +0.000 C 
ATOM     11  C   UNL     1      35.243 -19.480 -22.765  0.00  0.00    +0.139 C 
ATOM     12  C   UNL     1      37.439 -18.590 -22.293  0.00  0.00    +0.003 C 
ATOM     13  C   UNL     1      36.325 -18.677 -23.127  0.00  0.00    +0.037 C 
BRANCH  11  14
ATOM     14  O   UNL     1      34.156 -19.563 -23.579  0.00  0.00    -0.471 OA
ATOM     15  C   UNL     1      34.269 -18.981 -24.876  0.00  0.00    +0.252 C 
ENDBRANCH  11  14
ENDBRANCH   3   8
BRANCH   2  17
ATOM     16  O   UNL     1      38.794 -23.648 -15.730  0.00  0.00    -0.270 OA
ATOM     17  N   UNL     1      36.534 -23.007 -15.908  0.00  0.00    -0.279 N 
ATOM     18  C   UNL     1      37.632 -23.621 -15.311  0.00  0.00    +0.245 C 
ATOM     19  H   UNL     1      35.679 -23.089 -15.426  0.00  0.00    +0.155 HD
BRANCH  18  23
ATOM     20  C   UNL     1      36.334 -24.548 -11.920  0.00  0.00    +0.010 C 
ATOM     21  C   UNL     1      36.968 -23.495 -12.830  0.00  0.00    +0.031 C 
ATOM     22  C   UNL     1      36.842 -25.901 -12.423  0.00  0.00    +0.033 C 
ATOM     23  C   UNL     1      37.291 -24.282 -14.058  0.00  0.00    +0.034 C 
ATOM     24  C   UNL     1      37.222 -25.598 -13.835  0.00  0.00    +0.054 C 
BRANCH  24  26
ATOM     25  O   UNL     1      38.563 -27.182 -14.993  0.00  0.00    -0.245 OA
ATOM     26  C   UNL     1      37.474 -26.664 -14.795  0.00  0.00    +0.334 C 
BRANCH  26  27
ATOM     27  O   UNL     1      36.326 -26.993 -15.429  0.00  0.00    -0.477 OA
ATOM     28  H   UNL     1      35.542 -27.134 -14.937  0.00  0.00    +0.295 HD
ENDBRANCH  26  27
ENDBRANCH  24  26
ENDBRANCH  18  23
ENDBRANCH   2  17
TORSDOF 6
ENDMDL
MODEL 6
REMARK VINA RESULT:     -10.4      2.543      3.613
REMARK  Name = 9820008
REMARK  6 active torsions:
REMARK  status: ('A' for Active; 'I' for Inactive)
REMARK    1  A    between atoms: C_2  and  N_17
REMARK    2  A    between atoms: C_3  and  C_8
REMARK    3  A    between atoms: C_11  and  O_14
REMARK    4  A    between atoms: C_18  and  C_23
REMARK    5  A    between atoms: C_24  and  C_26
REMARK    6  A    between atoms: C_26  and  O_27
REMARK                            x       y       z     vdW  Elec       q    Type
REMARK                         _______ _______ _______ _____ _____    ______ ____
ROOT
ATOM      1  F   UNL     1      37.454 -21.737 -19.347  0.00  0.00    -0.203 F 
ATOM      2  C   UNL     1      35.081 -21.709 -19.257  0.00  0.00    +0.078 C 
ATOM      3  C   UNL     1      35.037 -20.015 -21.447  0.00  0.00    +0.002 C 
ATOM      4  C   UNL     1      36.278 -21.314 -19.831  0.00  0.00    +0.153 C 
ATOM      5  C   UNL     1      33.863 -21.276 -19.754  0.00  0.00    +0.017 C 
ATOM      6  C   UNL     1      36.256 -20.461 -20.934  0.00  0.00    +0.031 C 
ATOM      7  C   UNL     1      33.841 -20.423 -20.856  0.00  0.00    +0.001 C 
ENDROOT
BRANCH   3   8
ATOM      8  C   UNL     1      35.013 -19.131 -22.592  0.00  0.00    +0.003 C 
ATOM      9  C   UNL     1      35.401 -17.798 -22.451  0.00  0.00    +0.037 C 
ATOM     10  C   UNL     1      34.602 -19.610 -23.835  0.00  0.00    +0.000 C 
ATOM     11  C   UNL     1      35.377 -16.945 -23.554  0.00  0.00    +0.139 C 
ATOM     12  C   UNL     1      34.580 -18.758 -24.939  0.00  0.00    +0.003 C 
ATOM     13  C   UNL     1      34.966 -17.425 -24.798  0.00  0.00    +0.037 C 
BRANCH  11  14
ATOM     14  O   UNL     1      35.754 -15.645 -23.419  0.00  0.00    -0.471 OA
ATOM     15  C   UNL     1      34.731 -14.699 -23.118  0.00  0.00    +0.252 C 
ENDBRANCH  11  14
ENDBRANCH   3   8
BRANCH   2  17
ATOM     16  O   UNL     1      36.563 -21.490 -16.640  0.00  0.00    -0.270 OA
ATOM     17  N   UNL     1      35.101 -22.573 -18.136  0.00  0.00    -0.279 N 
ATOM     18  C   UNL     1      35.809 -22.419 -16.947  0.00  0.00    +0.245 C 
ATOM     19  H   UNL     1      34.544 -23.382 -18.205  0.00  0.00    +0.155 HD
BRANCH  18  23
ATOM     20  C   UNL     1      36.083 -25.095 -14.338  0.00  0.00    +0.010 C 
ATOM     21  C   UNL     1      36.711 -24.363 -15.524  0.00  0.00    +0.031 C 
ATOM     22  C   UNL     1      34.571 -25.066 -14.576  0.00  0.00    +0.033 C 
ATOM     23  C   UNL     1      35.582 -23.515 -16.015  0.00  0.00    +0.034 C 
ATOM     24  C   UNL     1      34.412 -23.901 -15.495  0.00  0.00    +0.054 C 
BRANCH  24  26
ATOM     25  O   UNL     1      32.496 -23.387 -16.805  0.00  0.00    -0.245 OA
ATOM     26  C   UNL     1      33.104 -23.311 -15.747  0.00  0.00    +0.334 C 
BRANCH  26  27
ATOM     27  O   UNL     1      32.668 -22.669 -14.640  0.00  0.00    -0.477 OA
ATOM     28  H   UNL     1      31.876 -22.942 -14.221  0.00  0.00    +0.295 HD
ENDBRANCH  26  27
ENDBRANCH  24  26
ENDBRANCH  18  23
ENDBRANCH   2  17
TORSDOF 6
ENDMDL
MODEL 7
REMARK VINA RESULT:     -10.4      4.481      9.205
REMARK  Name = 9820008
REMARK  6 active torsions:
REMARK  status: ('A' for Active; 'I' for Inactive)
REMARK    1  A    between atoms: C_2  and  N_17
REMARK    2  A    between atoms: C_3  and  C_8
REMARK    3  A    between atoms: C_11  and  O_14
REMARK    4  A    between atoms: C_18  and  C_23
REMARK    5  A    between atoms: C_24  and  C_26
REMARK    6  A    between atoms: C_26  and  O_27
REMARK                            x       y       z     vdW  Elec       q    Type
REMARK                         _______ _______ _______ _____ _____    ______ ____
ROOT
ATOM      1  F   UNL     1      32.975 -21.627 -20.391  0.00  0.00    -0.203 F 
ATOM      2  C   UNL     1      35.254 -20.960 -20.381  0.00  0.00    +0.078 C 
ATOM      3  C   UNL     1      35.619 -22.312 -17.992  0.00  0.00    +0.002 C 
ATOM      4  C   UNL     1      34.182 -21.625 -19.809  0.00  0.00    +0.153 C 
ATOM      5  C   UNL     1      36.504 -20.957 -19.785  0.00  0.00    +0.017 C 
ATOM      6  C   UNL     1      34.366 -22.306 -18.606  0.00  0.00    +0.031 C 
ATOM      7  C   UNL     1      36.688 -21.637 -18.582  0.00  0.00    +0.001 C 
ENDROOT
BRANCH   3   8
ATOM      8  C   UNL     1      35.810 -23.019 -16.744  0.00  0.00    +0.003 C 
ATOM      9  C   UNL     1      37.083 -23.105 -16.180  0.00  0.00    +0.037 C 
ATOM     10  C   UNL     1      34.723 -23.615 -16.106  0.00  0.00    +0.000 C 
ATOM     11  C   UNL     1      37.268 -23.787 -14.977  0.00  0.00    +0.139 C 
ATOM     12  C   UNL     1      34.907 -24.295 -14.903  0.00  0.00    +0.003 C 
ATOM     13  C   UNL     1      36.180 -24.382 -14.339  0.00  0.00    +0.037 C 
BRANCH  11  14
ATOM     14  O   UNL     1      38.509 -23.872 -14.426  0.00  0.00    -0.471 OA
ATOM     15  C   UNL     1      38.871 -25.115 -13.828  0.00  0.00    +0.252 C 
ENDBRANCH  11  14
ENDBRANCH   3   8
BRANCH   2  17
ATOM     16  O   UNL     1      37.007 -18.935 -21.766  0.00  0.00    -0.270 OA
ATOM     17  N   UNL     1      35.070 -20.267 -21.601  0.00  0.00    -0.279 N 
ATOM     18  C   UNL     1      35.920 -19.336 -22.195  0.00  0.00    +0.245 C 
ATOM     19  H   UNL     1      34.240 -20.468 -22.091  0.00  0.00    +0.155 HD
BRANCH  18  23
ATOM     20  C   UNL     1      34.222 -18.850 -25.500  0.00  0.00    +0.010 C 
ATOM     21  C   UNL     1      35.039 -19.753 -24.575  0.00  0.00    +0.031 C 
ATOM     22  C   UNL     1      34.640 -17.416 -25.168  0.00  0.00    +0.033 C 
ATOM     23  C   UNL     1      35.399 -18.829 -23.457  0.00  0.00    +0.034 C 
ATOM     24  C   UNL     1      35.181 -17.551 -23.783  0.00  0.00    +0.054 C 
BRANCH  24  26
ATOM     25  O   UNL     1      35.219 -16.333 -21.741  0.00  0.00    -0.245 OA
ATOM     26  C   UNL     1      35.417 -16.381 -22.947  0.00  0.00    +0.334 C 
BRANCH  26  27
ATOM     27  O   UNL     1      35.885 -15.362 -23.702  0.00  0.00    -0.477 OA
ATOM     28  H   UNL     1      36.569 -14.812 -23.375  0.00  0.00    +0.295 HD
ENDBRANCH  26  27
ENDBRANCH  24  26
ENDBRANCH  18  23
ENDBRANCH   2  17
TORSDOF 6
ENDMDL
MODEL 8
REMARK VINA RESULT:     -10.2      3.905      5.013
REMARK  Name = 9820008
REMARK  6 active torsions:
REMARK  status: ('A' for Active; 'I' for Inactive)
REMARK    1  A    between atoms: C_2  and  N_17
REMARK    2  A    between atoms: C_3  and  C_8
REMARK    3  A    between atoms: C_11  and  O_14
REMARK    4  A    between atoms: C_18  and  C_23
REMARK    5  A    between atoms: C_24  and  C_26
REMARK    6  A    between atoms: C_26  and  O_27
REMARK                            x       y       z     vdW  Elec       q    Type
REMARK                         _______ _______ _______ _____ _____    ______ ____
ROOT
ATOM      1  F   UNL     1      32.925 -21.800 -18.965  0.00  0.00    -0.203 F 
ATOM      2  C   UNL     1      35.299 -21.754 -18.992  0.00  0.00    +0.078 C 
ATOM      3  C   UNL     1      35.222 -20.112 -21.220  0.00  0.00    +0.002 C 
ATOM      4  C   UNL     1      34.073 -21.381 -19.517  0.00  0.00    +0.153 C 
ATOM      5  C   UNL     1      36.487 -21.323 -19.557  0.00  0.00    +0.017 C 
ATOM      6  C   UNL     1      34.034 -20.554 -20.639  0.00  0.00    +0.031 C 
ATOM      7  C   UNL     1      36.450 -20.496 -20.680  0.00  0.00    +0.001 C 
ENDROOT
BRANCH   3   8
ATOM      8  C   UNL     1      35.183 -19.253 -22.385  0.00  0.00    +0.003 C 
ATOM      9  C   UNL     1      35.472 -17.894 -22.259  0.00  0.00    +0.037 C 
ATOM     10  C   UNL     1      34.856 -19.784 -23.632  0.00  0.00    +0.000 C 
ATOM     11  C   UNL     1      35.433 -17.066 -23.380  0.00  0.00    +0.139 C 
ATOM     12  C   UNL     1      34.818 -18.956 -24.754  0.00  0.00    +0.003 C 
ATOM     13  C   UNL     1      35.106 -17.598 -24.628  0.00  0.00    +0.037 C 
BRANCH  11  14
ATOM     14  O   UNL     1      35.715 -15.740 -23.259  0.00  0.00    -0.471 OA
ATOM     15  C   UNL     1      34.820 -14.826 -23.889  0.00  0.00    +0.252 C 
ENDBRANCH  11  14
ENDBRANCH   3   8
BRANCH   2  17
ATOM     16  O   UNL     1      37.025 -21.624 -16.524  0.00  0.00    -0.270 OA
ATOM     17  N   UNL     1      35.341 -22.594 -17.855  0.00  0.00    -0.279 N 
ATOM     18  C   UNL     1      36.166 -22.485 -16.737  0.00  0.00    +0.245 C 
ATOM     19  H   UNL     1      34.709 -23.349 -17.852  0.00  0.00    +0.155 HD
BRANCH  18  23
ATOM     20  C   UNL     1      34.708 -25.139 -14.530  0.00  0.00    +0.010 C 
ATOM     21  C   UNL     1      34.565 -23.764 -15.183  0.00  0.00    +0.031 C 
ATOM     22  C   UNL     1      36.205 -25.334 -14.279  0.00  0.00    +0.033 C 
ATOM     23  C   UNL     1      35.925 -23.537 -15.759  0.00  0.00    +0.034 C 
ATOM     24  C   UNL     1      36.822 -24.396 -15.264  0.00  0.00    +0.054 C 
BRANCH  24  26
ATOM     25  O   UNL     1      38.976 -23.504 -15.724  0.00  0.00    -0.245 OA
ATOM     26  C   UNL     1      38.239 -24.470 -15.593  0.00  0.00    +0.334 C 
BRANCH  26  27
ATOM     27  O   UNL     1      38.613 -25.762 -15.730  0.00  0.00    -0.477 OA
ATOM     28  H   UNL     1      39.424 -25.974 -16.149  0.00  0.00    +0.295 HD
ENDBRANCH  26  27
ENDBRANCH  24  26
ENDBRANCH  18  23
ENDBRANCH   2  17
TORSDOF 6
ENDMDL
MODEL 9
REMARK VINA RESULT:     -10.2      4.366      7.387
REMARK  Name = 9820008
REMARK  6 active torsions:
REMARK  status: ('A' for Active; 'I' for Inactive)
REMARK    1  A    between atoms: C_2  and  N_17
REMARK    2  A    between atoms: C_3  and  C_8
REMARK    3  A    between atoms: C_11  and  O_14
REMARK    4  A    between atoms: C_18  and  C_23
REMARK    5  A    between atoms: C_24  and  C_26
REMARK    6  A    between atoms: C_26  and  O_27
REMARK                            x       y       z     vdW  Elec       q    Type
REMARK                         _______ _______ _______ _____ _____    ______ ____
ROOT
ATOM      1  F   UNL     1      34.877 -15.841 -20.180  0.00  0.00    -0.203 F 
ATOM      2  C   UNL     1      35.274 -17.168 -22.109  0.00  0.00    +0.078 C 
ATOM      3  C   UNL     1      34.704 -14.979 -23.707  0.00  0.00    +0.002 C 
ATOM      4  C   UNL     1      34.934 -15.965 -21.514  0.00  0.00    +0.153 C 
ATOM      5  C   UNL     1      35.336 -17.300 -23.486  0.00  0.00    +0.017 C 
ATOM      6  C   UNL     1      34.647 -14.862 -22.318  0.00  0.00    +0.031 C 
ATOM      7  C   UNL     1      35.048 -16.198 -24.292  0.00  0.00    +0.001 C 
ENDROOT
BRANCH   3   8
ATOM      8  C   UNL     1      34.407 -13.836 -24.543  0.00  0.00    +0.003 C 
ATOM      9  C   UNL     1      34.490 -12.547 -24.016  0.00  0.00    +0.037 C 
ATOM     10  C   UNL     1      34.035 -14.022 -25.874  0.00  0.00    +0.000 C 
ATOM     11  C   UNL     1      34.203 -11.445 -24.821  0.00  0.00    +0.139 C 
ATOM     12  C   UNL     1      33.749 -12.920 -26.679  0.00  0.00    +0.003 C 
ATOM     13  C   UNL     1      33.832 -11.632 -26.153  0.00  0.00    +0.037 C 
BRANCH  11  14
ATOM     14  O   UNL     1      34.284 -10.187 -24.308  0.00  0.00    -0.471 OA
ATOM     15  C   UNL     1      33.178  -9.728 -23.533  0.00  0.00    +0.252 C 
ENDBRANCH  11  14
ENDBRANCH   3   8
BRANCH   2  17
ATOM     16  O   UNL     1      34.781 -20.105 -22.574  0.00  0.00    -0.270 OA
ATOM     17  N   UNL     1      35.564 -18.289 -21.295  0.00  0.00    -0.279 N 
ATOM     18  C   UNL     1      35.311 -19.632 -21.564  0.00  0.00    +0.245 C 
ATOM     19  H   UNL     1      35.999 -18.095 -20.434  0.00  0.00    +0.155 HD
BRANCH  18  23
ATOM     20  C   UNL     1      37.116 -21.303 -18.737  0.00  0.00    +0.010 C 
ATOM     21  C   UNL     1      37.188 -20.579 -20.082  0.00  0.00    +0.031 C 
ATOM     22  C   UNL     1      35.794 -22.073 -18.741  0.00  0.00    +0.033 C 
ATOM     23  C   UNL     1      35.751 -20.509 -20.488  0.00  0.00    +0.034 C 
ATOM     24  C   UNL     1      34.990 -21.327 -19.754  0.00  0.00    +0.054 C 
BRANCH  24  26
ATOM     25  O   UNL     1      32.728 -20.622 -19.953  0.00  0.00    -0.245 OA
ATOM     26  C   UNL     1      33.551 -21.523 -19.869  0.00  0.00    +0.334 C 
BRANCH  26  27
ATOM     27  O   UNL     1      33.264 -22.844 -19.868  0.00  0.00    -0.477 OA
ATOM     28  H   UNL     1      33.906 -23.463 -19.581  0.00  0.00    +0.295 HD
ENDBRANCH  26  27
ENDBRANCH  24  26
ENDBRANCH  18  23
ENDBRANCH   2  17
TORSDOF 6
ENDMDL
