MODEL 1
REMARK VINA RESULT:     -11.3      0.000      0.000
REMARK  Name = 25065981
REMARK  7 active torsions:
REMARK  status: ('A' for Active; 'I' for Inactive)
REMARK    1  A    between atoms: C_1  and  C_3
REMARK    2  A    between atoms: C_1  and  C_16
REMARK    3  A    between atoms: C_11  and  O_13
REMARK    4  A    between atoms: C_16  and  O_17
REMARK    5  A    between atoms: O_17  and  C_18
REMARK    6  A    between atoms: C_21  and  C_25
REMARK    7  A    between atoms: C_25  and  N_26
REMARK                            x       y       z     vdW  Elec       q    Type
REMARK                         _______ _______ _______ _____ _____    ______ ____
ROOT
ATOM      1  C   UNL     1      35.837 -17.622 -23.138  0.00  0.00    +0.122 C 
ATOM      2  C   UNL     1      34.959 -17.947 -24.363  0.00  0.00    +0.016 C 
ENDROOT
BRANCH   1   3
ATOM      3  C   UNL     1      35.861 -18.713 -22.122  0.00  0.00    -0.012 C 
ATOM      4  C   UNL     1      34.676 -20.364 -20.784  0.00  0.00    -0.000 C 
ATOM      5  C   UNL     1      34.672 -19.336 -21.740  0.00  0.00    -0.004 C 
ATOM      6  C   UNL     1      35.904 -20.768 -20.207  0.00  0.00    +0.003 C 
ATOM      7  C   UNL     1      37.068 -19.110 -21.554  0.00  0.00    -0.004 C 
ATOM      8  C   UNL     1      37.091 -20.130 -20.604  0.00  0.00    -0.000 C 
ATOM      9  C   UNL     1      33.490 -21.002 -20.389  0.00  0.00    +0.003 C 
ATOM     10  C   UNL     1      35.909 -21.796 -19.251  0.00  0.00    +0.037 C 
ATOM     11  C   UNL     1      34.720 -22.419 -18.870  0.00  0.00    +0.139 C 
ATOM     12  C   UNL     1      33.513 -22.022 -19.438  0.00  0.00    +0.037 C 
BRANCH  11  13
ATOM     13  O   UNL     1      34.741 -23.415 -17.942  0.00  0.00    -0.471 OA
ATOM     14  C   UNL     1      33.592 -23.549 -17.108  0.00  0.00    +0.252 C 
ENDBRANCH  11  13
ENDBRANCH   1   3
BRANCH   1  16
ATOM     15  O   UNL     1      35.263 -16.057 -21.351  0.00  0.00    -0.249 OA
ATOM     16  C   UNL     1      35.409 -16.272 -22.548  0.00  0.00    +0.325 C 
BRANCH  16  17
ATOM     17  O   UNL     1      35.243 -15.343 -23.574  0.00  0.00    -0.424 OA
BRANCH  17  18
ATOM     18  C   UNL     1      34.397 -14.288 -23.225  0.00  0.00    +0.148 C 
ATOM     19  C   UNL     1      33.534 -14.416 -22.136  0.00  0.00    +0.038 C 
ATOM     20  C   UNL     1      34.414 -13.107 -23.966  0.00  0.00    +0.038 C 
ATOM     21  C   UNL     1      32.704 -12.182 -22.531  0.00  0.00    +0.020 C 
ATOM     22  C   UNL     1      32.688 -13.363 -21.789  0.00  0.00    +0.005 C 
ATOM     23  C   UNL     1      33.567 -12.053 -23.619  0.00  0.00    +0.005 C 
BRANCH  21  25
ATOM     24  S   UNL     1      32.100  -9.454 -22.529  0.00  0.00    -0.035 S 
ATOM     25  C   UNL     1      31.822 -11.085 -22.169  0.00  0.00    +0.078 C 
BRANCH  25  26
ATOM     26  N   UNL     1      30.665 -11.429 -21.482  0.00  0.00    -0.352 N 
ATOM     27  H   UNL     1      30.043 -12.089 -21.865  0.00  0.00    +0.143 HD
ATOM     28  H   UNL     1      30.466 -11.013 -20.612  0.00  0.00    +0.143 HD
ENDBRANCH  25  26
ENDBRANCH  21  25
ENDBRANCH  17  18
ENDBRANCH  16  17
ENDBRANCH   1  16
TORSDOF 7
ENDMDL
MODEL 2
REMARK VINA RESULT:     -11.0      2.258      3.337
REMARK  Name = 25065981
REMARK  7 active torsions:
REMARK  status: ('A' for Active; 'I' for Inactive)
REMARK    1  A    between atoms: C_1  and  C_3
REMARK    2  A    between atoms: C_1  and  C_16
REMARK    3  A    between atoms: C_11  and  O_13
REMARK    4  A    between atoms: C_16  and  O_17
REMARK    5  A    between atoms: O_17  and  C_18
REMARK    6  A    between atoms: C_21  and  C_25
REMARK    7  A    between atoms: C_25  and  N_26
REMARK                            x       y       z     vdW  Elec       q    Type
REMARK                         _______ _______ _______ _____ _____    ______ ____
ROOT
ATOM      1  C   UNL     1      35.716 -20.120 -21.748  0.00  0.00    +0.122 C 
ATOM      2  C   UNL     1      34.311 -19.774 -22.281  0.00  0.00    +0.016 C 
ENDROOT
BRANCH   1   3
ATOM      3  C   UNL     1      35.692 -20.863 -20.456  0.00  0.00    -0.012 C 
ATOM      4  C   UNL     1      34.466 -22.157 -18.799  0.00  0.00    -0.000 C 
ATOM      5  C   UNL     1      34.507 -21.453 -20.014  0.00  0.00    -0.004 C 
ATOM      6  C   UNL     1      35.644 -22.265 -18.022  0.00  0.00    +0.003 C 
ATOM      7  C   UNL     1      36.850 -20.970 -19.692  0.00  0.00    -0.004 C 
ATOM      8  C   UNL     1      36.828 -21.666 -18.483  0.00  0.00    -0.000 C 
ATOM      9  C   UNL     1      33.283 -22.756 -18.339  0.00  0.00    +0.003 C 
ATOM     10  C   UNL     1      35.604 -22.969 -16.808  0.00  0.00    +0.037 C 
ATOM     11  C   UNL     1      34.419 -23.559 -16.366  0.00  0.00    +0.139 C 
ATOM     12  C   UNL     1      33.261 -23.452 -17.130  0.00  0.00    +0.037 C 
BRANCH  11  13
ATOM     13  O   UNL     1      34.396 -24.238 -15.187  0.00  0.00    -0.471 OA
ATOM     14  C   UNL     1      33.125 -24.425 -14.569  0.00  0.00    +0.252 C 
ENDBRANCH  11  13
ENDBRANCH   1   3
BRANCH   1  16
ATOM     15  O   UNL     1      37.691 -18.734 -22.144  0.00  0.00    -0.249 OA
ATOM     16  C   UNL     1      36.563 -18.842 -21.679  0.00  0.00    +0.325 C 
BRANCH  16  17
ATOM     17  O   UNL     1      35.842 -17.835 -21.037  0.00  0.00    -0.424 OA
BRANCH  17  18
ATOM     18  C   UNL     1      35.453 -16.807 -21.898  0.00  0.00    +0.148 C 
ATOM     19  C   UNL     1      35.627 -16.947 -23.276  0.00  0.00    +0.038 C 
ATOM     20  C   UNL     1      34.891 -15.640 -21.382  0.00  0.00    +0.038 C 
ATOM     21  C   UNL     1      34.678 -14.751 -23.618  0.00  0.00    +0.020 C 
ATOM     22  C   UNL     1      35.240 -15.920 -24.135  0.00  0.00    +0.005 C 
ATOM     23  C   UNL     1      34.504 -14.612 -22.242  0.00  0.00    +0.005 C 
BRANCH  21  25
ATOM     24  S   UNL     1      33.530 -13.902 -26.019  0.00  0.00    -0.035 S 
ATOM     25  C   UNL     1      34.275 -13.681 -24.515  0.00  0.00    +0.078 C 
BRANCH  25  26
ATOM     26  N   UNL     1      34.526 -12.386 -24.078  0.00  0.00    -0.352 N 
ATOM     27  H   UNL     1      34.947 -11.735 -24.684  0.00  0.00    +0.143 HD
ATOM     28  H   UNL     1      34.283 -12.120 -23.162  0.00  0.00    +0.143 HD
ENDBRANCH  25  26
ENDBRANCH  21  25
ENDBRANCH  17  18
ENDBRANCH  16  17
ENDBRANCH   1  16
TORSDOF 7
ENDMDL
MODEL 3
REMARK VINA RESULT:     -11.0      1.185      1.545
REMARK  Name = 25065981
REMARK  7 active torsions:
REMARK  status: ('A' for Active; 'I' for Inactive)
REMARK    1  A    between atoms: C_1  and  C_3
REMARK    2  A    between atoms: C_1  and  C_16
REMARK    3  A    between atoms: C_11  and  O_13
REMARK    4  A    between atoms: C_16  and  O_17
REMARK    5  A    between atoms: O_17  and  C_18
REMARK    6  A    between atoms: C_21  and  C_25
REMARK    7  A    between atoms: C_25  and  N_26
REMARK                            x       y       z     vdW  Elec       q    Type
REMARK                         _______ _______ _______ _____ _____    ______ ____
ROOT
ATOM      1  C   UNL     1      35.520 -17.234 -23.932  0.00  0.00    +0.122 C 
ATOM      2  C   UNL     1      34.611 -17.681 -25.094  0.00  0.00    +0.016 C 
ENDROOT
BRANCH   1   3
ATOM      3  C   UNL     1      35.672 -18.267 -22.869  0.00  0.00    -0.012 C 
ATOM      4  C   UNL     1      34.675 -19.918 -21.385  0.00  0.00    -0.000 C 
ATOM      5  C   UNL     1      34.549 -18.941 -22.387  0.00  0.00    -0.004 C 
ATOM      6  C   UNL     1      35.957 -20.215 -20.865  0.00  0.00    +0.003 C 
ATOM      7  C   UNL     1      36.933 -18.560 -22.357  0.00  0.00    -0.004 C 
ATOM      8  C   UNL     1      37.076 -19.527 -21.363  0.00  0.00    -0.000 C 
ATOM      9  C   UNL     1      33.556 -20.606 -20.888  0.00  0.00    +0.003 C 
ATOM     10  C   UNL     1      36.083 -21.191 -19.863  0.00  0.00    +0.037 C 
ATOM     11  C   UNL     1      34.961 -21.865 -19.382  0.00  0.00    +0.139 C 
ATOM     12  C   UNL     1      33.700 -21.573 -19.893  0.00  0.00    +0.037 C 
BRANCH  11  13
ATOM     13  O   UNL     1      35.099 -22.810 -18.411  0.00  0.00    -0.471 OA
ATOM     14  C   UNL     1      33.929 -23.162 -17.676  0.00  0.00    +0.252 C 
ENDBRANCH  11  13
ENDBRANCH   1   3
BRANCH   1  16
ATOM     15  O   UNL     1      35.263 -15.471 -22.258  0.00  0.00    -0.249 OA
ATOM     16  C   UNL     1      35.022 -15.889 -23.384  0.00  0.00    +0.325 C 
BRANCH  16  17
ATOM     17  O   UNL     1      34.289 -15.225 -24.366  0.00  0.00    -0.424 OA
BRANCH  17  18
ATOM     18  C   UNL     1      33.892 -13.943 -23.979  0.00  0.00    +0.148 C 
ATOM     19  C   UNL     1      34.342 -12.829 -24.689  0.00  0.00    +0.038 C 
ATOM     20  C   UNL     1      33.046 -13.777 -22.883  0.00  0.00    +0.038 C 
ATOM     21  C   UNL     1      33.101 -11.382 -23.203  0.00  0.00    +0.020 C 
ATOM     22  C   UNL     1      33.947 -11.549 -24.301  0.00  0.00    +0.005 C 
ATOM     23  C   UNL     1      32.651 -12.496 -22.495  0.00  0.00    +0.005 C 
BRANCH  21  25
ATOM     24  S   UNL     1      31.890  -9.673 -21.356  0.00  0.00    -0.035 S 
ATOM     25  C   UNL     1      32.690 -10.048 -22.800  0.00  0.00    +0.078 C 
BRANCH  25  26
ATOM     26  N   UNL     1      32.995  -9.018 -23.681  0.00  0.00    -0.352 N 
ATOM     27  H   UNL     1      32.374  -8.262 -23.788  0.00  0.00    +0.143 HD
ATOM     28  H   UNL     1      33.832  -9.045 -24.199  0.00  0.00    +0.143 HD
ENDBRANCH  25  26
ENDBRANCH  21  25
ENDBRANCH  17  18
ENDBRANCH  16  17
ENDBRANCH   1  16
TORSDOF 7
ENDMDL
MODEL 4
REMARK VINA RESULT:     -11.0      4.821      9.336
REMARK  Name = 25065981
REMARK  7 active torsions:
REMARK  status: ('A' for Active; 'I' for Inactive)
REMARK    1  A    between atoms: C_1  and  C_3
REMARK    2  A    between atoms: C_1  and  C_16
REMARK    3  A    between atoms: C_11  and  O_13
REMARK    4  A    between atoms: C_16  and  O_17
REMARK    5  A    between atoms: O_17  and  C_18
REMARK    6  A    between atoms: C_21  and  C_25
REMARK    7  A    between atoms: C_25  and  N_26
REMARK                            x       y       z     vdW  Elec       q    Type
REMARK                         _______ _______ _______ _____ _____    ______ ____
ROOT
ATOM      1  C   UNL     1      36.358 -19.533 -21.895  0.00  0.00    +0.122 C 
ATOM      2  C   UNL     1      37.335 -18.733 -21.010  0.00  0.00    +0.016 C 
ENDROOT
BRANCH   1   3
ATOM      3  C   UNL     1      35.704 -18.706 -22.950  0.00  0.00    -0.012 C 
ATOM      4  C   UNL     1      35.033 -16.525 -23.794  0.00  0.00    -0.000 C 
ATOM      5  C   UNL     1      35.645 -17.319 -22.810  0.00  0.00    -0.004 C 
ATOM      6  C   UNL     1      34.473 -17.147 -24.935  0.00  0.00    +0.003 C 
ATOM      7  C   UNL     1      35.154 -19.317 -24.072  0.00  0.00    -0.004 C 
ATOM      8  C   UNL     1      34.542 -18.545 -25.059  0.00  0.00    -0.000 C 
ATOM      9  C   UNL     1      34.964 -15.128 -23.670  0.00  0.00    +0.003 C 
ATOM     10  C   UNL     1      33.860 -16.354 -25.919  0.00  0.00    +0.037 C 
ATOM     11  C   UNL     1      33.801 -14.967 -25.780  0.00  0.00    +0.139 C 
ATOM     12  C   UNL     1      34.352 -14.356 -24.657  0.00  0.00    +0.037 C 
BRANCH  11  13
ATOM     13  O   UNL     1      33.204 -14.212 -26.742  0.00  0.00    -0.471 OA
ATOM     14  C   UNL     1      33.829 -12.974 -27.077  0.00  0.00    +0.252 C 
ENDBRANCH  11  13
ENDBRANCH   1   3
BRANCH   1  16
ATOM     15  O   UNL     1      34.312 -19.765 -20.578  0.00  0.00    -0.249 OA
ATOM     16  C   UNL     1      35.346 -20.265 -21.004  0.00  0.00    +0.325 C 
BRANCH  16  17
ATOM     17  O   UNL     1      35.773 -21.575 -20.787  0.00  0.00    -0.424 OA
BRANCH  17  18
ATOM     18  C   UNL     1      35.753 -21.940 -19.440  0.00  0.00    +0.148 C 
ATOM     19  C   UNL     1      34.620 -22.550 -18.899  0.00  0.00    +0.038 C 
ATOM     20  C   UNL     1      36.864 -21.694 -18.634  0.00  0.00    +0.038 C 
ATOM     21  C   UNL     1      35.712 -22.667 -16.746  0.00  0.00    +0.020 C 
ATOM     22  C   UNL     1      34.600 -22.913 -17.553  0.00  0.00    +0.005 C 
ATOM     23  C   UNL     1      36.843 -22.058 -17.287  0.00  0.00    +0.005 C 
BRANCH  21  25
ATOM     24  S   UNL     1      37.047 -23.486 -14.434  0.00  0.00    -0.035 S 
ATOM     25  C   UNL     1      35.689 -23.046 -15.343  0.00  0.00    +0.078 C 
BRANCH  25  26
ATOM     26  N   UNL     1      34.447 -23.030 -14.723  0.00  0.00    -0.352 N 
ATOM     27  H   UNL     1      34.387 -22.968 -13.742  0.00  0.00    +0.143 HD
ATOM     28  H   UNL     1      33.625 -23.082 -15.263  0.00  0.00    +0.143 HD
ENDBRANCH  25  26
ENDBRANCH  21  25
ENDBRANCH  17  18
ENDBRANCH  16  17
ENDBRANCH   1  16
TORSDOF 7
ENDMDL
MODEL 5
REMARK VINA RESULT:     -11.0      5.450      8.457
REMARK  Name = 25065981
REMARK  7 active torsions:
REMARK  status: ('A' for Active; 'I' for Inactive)
REMARK    1  A    between atoms: C_1  and  C_3
REMARK    2  A    between atoms: C_1  and  C_16
REMARK    3  A    between atoms: C_11  and  O_13
REMARK    4  A    between atoms: C_16  and  O_17
REMARK    5  A    between atoms: O_17  and  C_18
REMARK    6  A    between atoms: C_21  and  C_25
REMARK    7  A    between atoms: C_25  and  N_26
REMARK                            x       y       z     vdW  Elec       q    Type
REMARK                         _______ _______ _______ _____ _____    ______ ____
ROOT
ATOM      1  C   UNL     1      32.888 -23.703 -16.292  0.00  0.00    +0.122 C 
ATOM      2  C   UNL     1      31.994 -23.007 -15.246  0.00  0.00    +0.016 C 
ENDROOT
BRANCH   1   3
ATOM      3  C   UNL     1      34.321 -23.782 -15.888  0.00  0.00    -0.012 C 
ATOM      4  C   UNL     1      36.269 -25.118 -15.308  0.00  0.00    -0.000 C 
ATOM      5  C   UNL     1      34.921 -25.026 -15.689  0.00  0.00    -0.004 C 
ATOM      6  C   UNL     1      37.020 -23.932 -15.125  0.00  0.00    +0.003 C 
ATOM      7  C   UNL     1      35.058 -22.616 -15.708  0.00  0.00    -0.004 C 
ATOM      8  C   UNL     1      36.399 -22.688 -15.330  0.00  0.00    -0.000 C 
ATOM      9  C   UNL     1      36.890 -26.361 -15.104  0.00  0.00    +0.003 C 
ATOM     10  C   UNL     1      38.368 -24.024 -14.743  0.00  0.00    +0.037 C 
ATOM     11  C   UNL     1      38.968 -25.267 -14.545  0.00  0.00    +0.139 C 
ATOM     12  C   UNL     1      38.230 -26.434 -14.725  0.00  0.00    +0.037 C 
BRANCH  11  13
ATOM     13  O   UNL     1      40.277 -25.340 -14.176  0.00  0.00    -0.471 OA
ATOM     14  C   UNL     1      40.993 -26.516 -14.550  0.00  0.00    +0.252 C 
ENDBRANCH  11  13
ENDBRANCH   1   3
BRANCH   1  16
ATOM     15  O   UNL     1      31.833 -22.192 -17.899  0.00  0.00    -0.249 OA
ATOM     16  C   UNL     1      32.695 -23.028 -17.657  0.00  0.00    +0.325 C 
BRANCH  16  17
ATOM     17  O   UNL     1      33.659 -23.493 -18.551  0.00  0.00    -0.424 OA
BRANCH  17  18
ATOM     18  C   UNL     1      34.292 -22.467 -19.256  0.00  0.00    +0.148 C 
ATOM     19  C   UNL     1      33.544 -21.618 -20.073  0.00  0.00    +0.038 C 
ATOM     20  C   UNL     1      35.671 -22.293 -19.145  0.00  0.00    +0.038 C 
ATOM     21  C   UNL     1      35.556 -20.420 -20.668  0.00  0.00    +0.020 C 
ATOM     22  C   UNL     1      34.176 -20.595 -20.778  0.00  0.00    +0.005 C 
ATOM     23  C   UNL     1      36.303 -21.269 -19.852  0.00  0.00    +0.005 C 
BRANCH  21  25
ATOM     24  S   UNL     1      35.648 -18.676 -22.848  0.00  0.00    -0.035 S 
ATOM     25  C   UNL     1      36.215 -19.353 -21.404  0.00  0.00    +0.078 C 
BRANCH  25  26
ATOM     26  N   UNL     1      37.393 -18.865 -20.855  0.00  0.00    -0.352 N 
ATOM     27  H   UNL     1      38.241 -19.345 -21.002  0.00  0.00    +0.143 HD
ATOM     28  H   UNL     1      37.383 -18.040 -20.318  0.00  0.00    +0.143 HD
ENDBRANCH  25  26
ENDBRANCH  21  25
ENDBRANCH  17  18
ENDBRANCH  16  17
ENDBRANCH   1  16
TORSDOF 7
ENDMDL
MODEL 6
REMARK VINA RESULT:     -11.0      1.148      2.183
REMARK  Name = 25065981
REMARK  7 active torsions:
REMARK  status: ('A' for Active; 'I' for Inactive)
REMARK    1  A    between atoms: C_1  and  C_3
REMARK    2  A    between atoms: C_1  and  C_16
REMARK    3  A    between atoms: C_11  and  O_13
REMARK    4  A    between atoms: C_16  and  O_17
REMARK    5  A    between atoms: O_17  and  C_18
REMARK    6  A    between atoms: C_21  and  C_25
REMARK    7  A    between atoms: C_25  and  N_26
REMARK                            x       y       z     vdW  Elec       q    Type
REMARK                         _______ _______ _______ _____ _____    ______ ____
ROOT
ATOM      1  C   UNL     1      35.619 -19.035 -22.601  0.00  0.00    +0.122 C 
ATOM      2  C   UNL     1      34.917 -19.152 -23.969  0.00  0.00    +0.016 C 
ENDROOT
BRANCH   1   3
ATOM      3  C   UNL     1      35.024 -19.915 -21.555  0.00  0.00    -0.012 C 
ATOM      4  C   UNL     1      35.304 -21.359 -19.617  0.00  0.00    -0.000 C 
ATOM      5  C   UNL     1      35.848 -20.527 -20.609  0.00  0.00    -0.004 C 
ATOM      6  C   UNL     1      33.906 -21.573 -19.583  0.00  0.00    +0.003 C 
ATOM      7  C   UNL     1      33.649 -20.126 -21.522  0.00  0.00    -0.004 C 
ATOM      8  C   UNL     1      33.092 -20.949 -20.543  0.00  0.00    -0.000 C 
ATOM      9  C   UNL     1      36.117 -21.983 -18.657  0.00  0.00    +0.003 C 
ATOM     10  C   UNL     1      33.361 -22.405 -18.591  0.00  0.00    +0.037 C 
ATOM     11  C   UNL     1      34.184 -23.017 -17.645  0.00  0.00    +0.139 C 
ATOM     12  C   UNL     1      35.559 -22.806 -17.678  0.00  0.00    +0.037 C 
BRANCH  11  13
ATOM     13  O   UNL     1      33.642 -23.820 -16.689  0.00  0.00    -0.471 OA
ATOM     14  C   UNL     1      32.378 -23.432 -16.155  0.00  0.00    +0.252 C 
ENDBRANCH  11  13
ENDBRANCH   1   3
BRANCH   1  16
ATOM     15  O   UNL     1      35.699 -17.177 -21.015  0.00  0.00    -0.249 OA
ATOM     16  C   UNL     1      35.668 -17.561 -22.177  0.00  0.00    +0.325 C 
BRANCH  16  17
ATOM     17  O   UNL     1      35.697 -16.748 -23.310  0.00  0.00    -0.424 OA
BRANCH  17  18
ATOM     18  C   UNL     1      34.936 -15.585 -23.168  0.00  0.00    +0.148 C 
ATOM     19  C   UNL     1      34.358 -14.989 -24.289  0.00  0.00    +0.038 C 
ATOM     20  C   UNL     1      34.757 -15.019 -21.906  0.00  0.00    +0.038 C 
ATOM     21  C   UNL     1      33.421 -13.260 -22.885  0.00  0.00    +0.020 C 
ATOM     22  C   UNL     1      33.601 -13.826 -24.148  0.00  0.00    +0.005 C 
ATOM     23  C   UNL     1      33.999 -13.856 -21.765  0.00  0.00    +0.005 C 
BRANCH  21  25
ATOM     24  S   UNL     1      33.044 -10.536 -23.379  0.00  0.00    -0.035 S 
ATOM     25  C   UNL     1      32.632 -12.048 -22.739  0.00  0.00    +0.078 C 
BRANCH  25  26
ATOM     26  N   UNL     1      31.449 -12.168 -22.020  0.00  0.00    -0.352 N 
ATOM     27  H   UNL     1      31.258 -11.548 -21.279  0.00  0.00    +0.143 HD
ATOM     28  H   UNL     1      30.802 -12.874 -22.250  0.00  0.00    +0.143 HD
ENDBRANCH  25  26
ENDBRANCH  21  25
ENDBRANCH  17  18
ENDBRANCH  16  17
ENDBRANCH   1  16
TORSDOF 7
ENDMDL
MODEL 7
REMARK VINA RESULT:     -10.9      2.258      3.669
REMARK  Name = 25065981
REMARK  7 active torsions:
REMARK  status: ('A' for Active; 'I' for Inactive)
REMARK    1  A    between atoms: C_1  and  C_3
REMARK    2  A    between atoms: C_1  and  C_16
REMARK    3  A    between atoms: C_11  and  O_13
REMARK    4  A    between atoms: C_16  and  O_17
REMARK    5  A    between atoms: O_17  and  C_18
REMARK    6  A    between atoms: C_21  and  C_25
REMARK    7  A    between atoms: C_25  and  N_26
REMARK                            x       y       z     vdW  Elec       q    Type
REMARK                         _______ _______ _______ _____ _____    ______ ____
ROOT
ATOM      1  C   UNL     1      35.604 -20.071 -21.836  0.00  0.00    +0.122 C 
ATOM      2  C   UNL     1      34.289 -19.607 -22.494  0.00  0.00    +0.016 C 
ENDROOT
BRANCH   1   3
ATOM      3  C   UNL     1      35.395 -20.841 -20.576  0.00  0.00    -0.012 C 
ATOM      4  C   UNL     1      36.285 -21.775 -18.513  0.00  0.00    -0.000 C 
ATOM      5  C   UNL     1      36.464 -21.052 -19.704  0.00  0.00    -0.004 C 
ATOM      6  C   UNL     1      35.005 -22.292 -18.204  0.00  0.00    +0.003 C 
ATOM      7  C   UNL     1      34.136 -21.350 -20.272  0.00  0.00    -0.004 C 
ATOM      8  C   UNL     1      33.940 -22.070 -19.093  0.00  0.00    -0.000 C 
ATOM      9  C   UNL     1      37.348 -21.997 -17.624  0.00  0.00    +0.003 C 
ATOM     10  C   UNL     1      34.825 -23.016 -17.013  0.00  0.00    +0.037 C 
ATOM     11  C   UNL     1      35.893 -23.226 -16.141  0.00  0.00    +0.139 C 
ATOM     12  C   UNL     1      37.152 -22.718 -16.446  0.00  0.00    +0.037 C 
BRANCH  11  13
ATOM     13  O   UNL     1      35.703 -23.929 -14.991  0.00  0.00    -0.471 OA
ATOM     14  C   UNL     1      35.887 -25.342 -15.054  0.00  0.00    +0.252 C 
ENDBRANCH  11  13
ENDBRANCH   1   3
BRANCH   1  16
ATOM     15  O   UNL     1      37.691 -18.814 -22.034  0.00  0.00    -0.249 OA
ATOM     16  C   UNL     1      36.531 -18.863 -21.644  0.00  0.00    +0.325 C 
BRANCH  16  17
ATOM     17  O   UNL     1      35.842 -17.842 -20.991  0.00  0.00    -0.424 OA
BRANCH  17  18
ATOM     18  C   UNL     1      35.453 -16.810 -21.848  0.00  0.00    +0.148 C 
ATOM     19  C   UNL     1      35.659 -16.929 -23.223  0.00  0.00    +0.038 C 
ATOM     20  C   UNL     1      34.859 -15.659 -21.329  0.00  0.00    +0.038 C 
ATOM     21  C   UNL     1      34.678 -14.746 -23.559  0.00  0.00    +0.020 C 
ATOM     22  C   UNL     1      35.272 -15.898 -24.078  0.00  0.00    +0.005 C 
ATOM     23  C   UNL     1      34.472 -14.628 -22.185  0.00  0.00    +0.005 C 
BRANCH  21  25
ATOM     24  S   UNL     1      33.524 -13.886 -25.952  0.00  0.00    -0.035 S 
ATOM     25  C   UNL     1      34.275 -13.672 -24.451  0.00  0.00    +0.078 C 
BRANCH  25  26
ATOM     26  N   UNL     1      34.531 -12.380 -24.010  0.00  0.00    -0.352 N 
ATOM     27  H   UNL     1      35.308 -12.201 -23.432  0.00  0.00    +0.143 HD
ATOM     28  H   UNL     1      33.935 -11.642 -24.275  0.00  0.00    +0.143 HD
ENDBRANCH  25  26
ENDBRANCH  21  25
ENDBRANCH  17  18
ENDBRANCH  16  17
ENDBRANCH   1  16
TORSDOF 7
ENDMDL
MODEL 8
REMARK VINA RESULT:     -10.5      3.975      7.135
REMARK  Name = 25065981
REMARK  7 active torsions:
REMARK  status: ('A' for Active; 'I' for Inactive)
REMARK    1  A    between atoms: C_1  and  C_3
REMARK    2  A    between atoms: C_1  and  C_16
REMARK    3  A    between atoms: C_11  and  O_13
REMARK    4  A    between atoms: C_16  and  O_17
REMARK    5  A    between atoms: O_17  and  C_18
REMARK    6  A    between atoms: C_21  and  C_25
REMARK    7  A    between atoms: C_25  and  N_26
REMARK                            x       y       z     vdW  Elec       q    Type
REMARK                         _______ _______ _______ _____ _____    ______ ____
ROOT
ATOM      1  C   UNL     1      31.476 -11.314 -21.772  0.00  0.00    +0.122 C 
ATOM      2  C   UNL     1      30.442 -11.296 -20.629  0.00  0.00    +0.016 C 
ENDROOT
BRANCH   1   3
ATOM      3  C   UNL     1      32.359 -12.515 -21.751  0.00  0.00    -0.012 C 
ATOM      4  C   UNL     1      33.792 -14.090 -22.929  0.00  0.00    -0.000 C 
ATOM      5  C   UNL     1      32.958 -12.960 -22.931  0.00  0.00    -0.004 C 
ATOM      6  C   UNL     1      34.022 -14.778 -21.714  0.00  0.00    +0.003 C 
ATOM      7  C   UNL     1      32.586 -13.192 -20.557  0.00  0.00    -0.004 C 
ATOM      8  C   UNL     1      33.411 -14.316 -20.536  0.00  0.00    -0.000 C 
ATOM      9  C   UNL     1      34.402 -14.552 -24.106  0.00  0.00    +0.003 C 
ATOM     10  C   UNL     1      34.856 -15.909 -21.712  0.00  0.00    +0.037 C 
ATOM     11  C   UNL     1      35.455 -16.353 -22.890  0.00  0.00    +0.139 C 
ATOM     12  C   UNL     1      35.228 -15.676 -24.085  0.00  0.00    +0.037 C 
BRANCH  11  13
ATOM     13  O   UNL     1      36.261 -17.450 -22.872  0.00  0.00    -0.471 OA
ATOM     14  C   UNL     1      35.982 -18.446 -21.891  0.00  0.00    +0.252 C 
ENDBRANCH  11  13
ENDBRANCH   1   3
BRANCH   1  16
ATOM     15  O   UNL     1      32.501  -9.339 -20.760  0.00  0.00    -0.249 OA
ATOM     16  C   UNL     1      32.267  -9.998 -21.765  0.00  0.00    +0.325 C 
BRANCH  16  17
ATOM     17  O   UNL     1      32.689  -9.697 -23.059  0.00  0.00    -0.424 OA
BRANCH  17  18
ATOM     18  C   UNL     1      32.610  -8.336 -23.358  0.00  0.00    +0.148 C 
ATOM     19  C   UNL     1      31.369  -7.745 -23.599  0.00  0.00    +0.038 C 
ATOM     20  C   UNL     1      33.772  -7.567 -23.417  0.00  0.00    +0.038 C 
ATOM     21  C   UNL     1      32.454  -5.616 -23.958  0.00  0.00    +0.020 C 
ATOM     22  C   UNL     1      31.291  -6.385 -23.899  0.00  0.00    +0.005 C 
ATOM     23  C   UNL     1      33.694  -6.206 -23.717  0.00  0.00    +0.005 C 
BRANCH  21  25
ATOM     24  S   UNL     1      32.808  -3.504 -25.752  0.00  0.00    -0.035 S 
ATOM     25  C   UNL     1      32.371  -4.198 -24.271  0.00  0.00    +0.078 C 
BRANCH  25  26
ATOM     26  N   UNL     1      31.888  -3.374 -23.264  0.00  0.00    -0.352 N 
ATOM     27  H   UNL     1      32.131  -2.420 -23.249  0.00  0.00    +0.143 HD
ATOM     28  H   UNL     1      31.302  -3.743 -22.563  0.00  0.00    +0.143 HD
ENDBRANCH  25  26
ENDBRANCH  21  25
ENDBRANCH  17  18
ENDBRANCH  16  17
ENDBRANCH   1  16
TORSDOF 7
ENDMDL
MODEL 9
REMARK VINA RESULT:     -10.3      4.668      9.251
REMARK  Name = 25065981
REMARK  7 active torsions:
REMARK  status: ('A' for Active; 'I' for Inactive)
REMARK    1  A    between atoms: C_1  and  C_3
REMARK    2  A    between atoms: C_1  and  C_16
REMARK    3  A    between atoms: C_11  and  O_13
REMARK    4  A    between atoms: C_16  and  O_17
REMARK    5  A    between atoms: O_17  and  C_18
REMARK    6  A    between atoms: C_21  and  C_25
REMARK    7  A    between atoms: C_25  and  N_26
REMARK                            x       y       z     vdW  Elec       q    Type
REMARK                         _______ _______ _______ _____ _____    ______ ____
ROOT
ATOM      1  C   UNL     1      36.379 -19.235 -21.805  0.00  0.00    +0.122 C 
ATOM      2  C   UNL     1      37.530 -18.998 -20.808  0.00  0.00    +0.016 C 
ENDROOT
BRANCH   1   3
ATOM      3  C   UNL     1      35.809 -17.975 -22.361  0.00  0.00    -0.012 C 
ATOM      4  C   UNL     1      34.968 -16.708 -24.260  0.00  0.00    -0.000 C 
ATOM      5  C   UNL     1      35.505 -17.888 -23.720  0.00  0.00    -0.004 C 
ATOM      6  C   UNL     1      34.735 -15.601 -23.410  0.00  0.00    +0.003 C 
ATOM      7  C   UNL     1      35.581 -16.886 -21.525  0.00  0.00    -0.004 C 
ATOM      8  C   UNL     1      35.047 -15.706 -22.044  0.00  0.00    -0.000 C 
ATOM      9  C   UNL     1      34.656 -16.602 -25.625  0.00  0.00    +0.003 C 
ATOM     10  C   UNL     1      34.198 -14.420 -23.950  0.00  0.00    +0.037 C 
ATOM     11  C   UNL     1      33.894 -14.334 -25.308  0.00  0.00    +0.139 C 
ATOM     12  C   UNL     1      34.122 -15.422 -26.144  0.00  0.00    +0.037 C 
BRANCH  11  13
ATOM     13  O   UNL     1      33.373 -13.183 -25.816  0.00  0.00    -0.471 OA
ATOM     14  C   UNL     1      34.117 -11.985 -25.608  0.00  0.00    +0.252 C 
ENDBRANCH  11  13
ENDBRANCH   1   3
BRANCH   1  16
ATOM     15  O   UNL     1      34.151 -19.795 -20.969  0.00  0.00    -0.249 OA
ATOM     16  C   UNL     1      35.315 -20.128 -21.153  0.00  0.00    +0.325 C 
BRANCH  16  17
ATOM     17  O   UNL     1      35.873 -21.366 -20.835  0.00  0.00    -0.424 OA
BRANCH  17  18
ATOM     18  C   UNL     1      35.349 -21.918 -19.663  0.00  0.00    +0.148 C 
ATOM     19  C   UNL     1      36.122 -21.952 -18.502  0.00  0.00    +0.038 C 
ATOM     20  C   UNL     1      34.055 -22.436 -19.655  0.00  0.00    +0.038 C 
ATOM     21  C   UNL     1      34.304 -23.023 -17.325  0.00  0.00    +0.020 C 
ATOM     22  C   UNL     1      35.599 -22.504 -17.333  0.00  0.00    +0.005 C 
ATOM     23  C   UNL     1      33.532 -22.989 -18.486  0.00  0.00    +0.005 C 
BRANCH  21  25
ATOM     24  S   UNL     1      34.667 -24.011 -14.737  0.00  0.00    -0.035 S 
ATOM     25  C   UNL     1      33.760 -23.599 -16.106  0.00  0.00    +0.078 C 
BRANCH  25  26
ATOM     26  N   UNL     1      32.387 -23.811 -16.086  0.00  0.00    -0.352 N 
ATOM     27  H   UNL     1      31.950 -24.274 -16.838  0.00  0.00    +0.143 HD
ATOM     28  H   UNL     1      31.851 -23.499 -15.322  0.00  0.00    +0.143 HD
ENDBRANCH  25  26
ENDBRANCH  21  25
ENDBRANCH  17  18
ENDBRANCH  16  17
ENDBRANCH   1  16
TORSDOF 7
ENDMDL
