MODEL 1
REMARK VINA RESULT:     -11.3      0.000      0.000
REMARK  Name = 6852140
REMARK  4 active torsions:
REMARK  status: ('A' for Active; 'I' for Inactive)
REMARK    1  A    between atoms: C_2  and  N_18
REMARK    2  A    between atoms: C_5  and  C_13
REMARK    3  A    between atoms: C_19  and  C_21
REMARK    4  A    between atoms: C_24  and  O_28
REMARK                            x       y       z     vdW  Elec       q    Type
REMARK                         _______ _______ _______ _____ _____    ______ ____
ROOT
ATOM      1  C   UNL     1      31.903 -23.803 -15.764  0.00  0.00    +0.014 C 
ATOM      2  C   UNL     1      33.206 -23.428 -16.135  0.00  0.00    +0.050 C 
ATOM      3  C   UNL     1      31.719 -24.644 -14.640  0.00  0.00    +0.001 C 
ATOM      4  C   UNL     1      30.781 -23.364 -16.485  0.00  0.00    +0.004 C 
ATOM      5  C   UNL     1      29.495 -23.747 -16.103  0.00  0.00    +0.031 C 
ATOM      6  C   UNL     1      30.417 -25.019 -14.270  0.00  0.00    +0.000 C 
ATOM      7  C   UNL     1      34.309 -23.875 -15.407  0.00  0.00    +0.015 C 
ATOM      8  C   UNL     1      32.842 -25.083 -13.920  0.00  0.00    +0.000 C 
ATOM      9  C   UNL     1      29.313 -24.572 -14.997  0.00  0.00    +0.003 C 
ATOM     10  C   UNL     1      34.127 -24.701 -14.303  0.00  0.00    +0.001 C 
ENDROOT
BRANCH   5  13
ATOM     11  N   UNL     1      27.416 -22.403 -16.301  0.00  0.00    -0.343 N 
ATOM     12  N   UNL     1      28.156 -23.702 -18.097  0.00  0.00    -0.285 NA
ATOM     13  C   UNL     1      28.343 -23.283 -16.858  0.00  0.00    +0.117 C 
ATOM     14  H   UNL     1      26.643 -22.102 -16.830  0.00  0.00    +0.144 HD
ATOM     15  H   UNL     1      27.536 -22.081 -15.378  0.00  0.00    +0.144 HD
ATOM     16  H   UNL     1      27.376 -23.388 -18.610  0.00  0.00    +0.188 HD
ENDBRANCH   5  13
BRANCH   2  18
ATOM     17  O   UNL     1      33.940 -24.188 -18.869  0.00  0.00    -0.270 OA
ATOM     18  N   UNL     1      33.449 -22.599 -17.238  0.00  0.00    -0.280 N 
ATOM     19  C   UNL     1      33.797 -23.019 -18.521  0.00  0.00    +0.249 C 
ATOM     20  H   UNL     1      33.368 -21.629 -17.093  0.00  0.00    +0.155 HD
BRANCH  19  21
ATOM     21  C   UNL     1      34.040 -21.915 -19.468  0.00  0.00    +0.053 C 
ATOM     22  C   UNL     1      35.314 -21.396 -19.634  0.00  0.00    +0.016 C 
ATOM     23  C   UNL     1      32.961 -21.417 -20.182  0.00  0.00    +0.004 C 
ATOM     24  C   UNL     1      35.515 -20.352 -20.537  0.00  0.00    +0.130 C 
ATOM     25  C   UNL     1      36.474 -21.938 -18.861  0.00  0.00    +0.034 C 
ATOM     26  C   UNL     1      33.161 -20.373 -21.085  0.00  0.00    +0.003 C 
ATOM     27  C   UNL     1      34.439 -19.840 -21.262  0.00  0.00    +0.036 C 
BRANCH  24  28
ATOM     28  O   UNL     1      36.755 -19.818 -20.724  0.00  0.00    -0.506 OA
ATOM     29  H   UNL     1      36.946 -18.956 -20.409  0.00  0.00    +0.292 HD
ENDBRANCH  24  28
ENDBRANCH  19  21
ENDBRANCH   2  18
TORSDOF 4
ENDMDL
MODEL 2
REMARK VINA RESULT:     -10.7      1.859      4.360
REMARK  Name = 6852140
REMARK  4 active torsions:
REMARK  status: ('A' for Active; 'I' for Inactive)
REMARK    1  A    between atoms: C_2  and  N_18
REMARK    2  A    between atoms: C_5  and  C_13
REMARK    3  A    between atoms: C_19  and  C_21
REMARK    4  A    between atoms: C_24  and  O_28
REMARK                            x       y       z     vdW  Elec       q    Type
REMARK                         _______ _______ _______ _____ _____    ______ ____
ROOT
ATOM      1  C   UNL     1      33.604 -23.628 -15.525  0.00  0.00    +0.014 C 
ATOM      2  C   UNL     1      32.713 -23.174 -16.512  0.00  0.00    +0.050 C 
ATOM      3  C   UNL     1      33.114 -24.430 -14.466  0.00  0.00    +0.001 C 
ATOM      4  C   UNL     1      34.969 -23.301 -15.563  0.00  0.00    +0.004 C 
ATOM      5  C   UNL     1      35.839 -23.759 -14.574  0.00  0.00    +0.031 C 
ATOM      6  C   UNL     1      34.005 -24.883 -13.479  0.00  0.00    +0.000 C 
ATOM      7  C   UNL     1      31.359 -23.508 -16.456  0.00  0.00    +0.015 C 
ATOM      8  C   UNL     1      31.748 -24.757 -14.428  0.00  0.00    +0.000 C 
ATOM      9  C   UNL     1      35.358 -24.549 -13.535  0.00  0.00    +0.003 C 
ATOM     10  C   UNL     1      30.879 -24.297 -15.416  0.00  0.00    +0.001 C 
ENDROOT
BRANCH   5  13
ATOM     11  N   UNL     1      37.960 -23.448 -15.828  0.00  0.00    -0.343 N 
ATOM     12  N   UNL     1      37.885 -23.063 -13.525  0.00  0.00    -0.285 NA
ATOM     13  C   UNL     1      37.251 -23.413 -14.629  0.00  0.00    +0.117 C 
ATOM     14  H   UNL     1      38.915 -23.210 -15.842  0.00  0.00    +0.144 HD
ATOM     15  H   UNL     1      37.505 -23.709 -16.662  0.00  0.00    +0.144 HD
ATOM     16  H   UNL     1      38.841 -22.828 -13.560  0.00  0.00    +0.188 HD
ENDBRANCH   5  13
BRANCH   2  18
ATOM     17  O   UNL     1      33.905 -24.009 -19.057  0.00  0.00    -0.270 OA
ATOM     18  N   UNL     1      33.140 -22.376 -17.581  0.00  0.00    -0.280 N 
ATOM     19  C   UNL     1      33.702 -22.831 -18.773  0.00  0.00    +0.249 C 
ATOM     20  H   UNL     1      33.033 -21.403 -17.482  0.00  0.00    +0.155 HD
BRANCH  19  21
ATOM     21  C   UNL     1      34.101 -21.753 -19.698  0.00  0.00    +0.053 C 
ATOM     22  C   UNL     1      35.412 -21.306 -19.736  0.00  0.00    +0.016 C 
ATOM     23  C   UNL     1      33.130 -21.206 -20.522  0.00  0.00    +0.004 C 
ATOM     24  C   UNL     1      35.761 -20.286 -20.621  0.00  0.00    +0.130 C 
ATOM     25  C   UNL     1      36.455 -21.901 -18.845  0.00  0.00    +0.034 C 
ATOM     26  C   UNL     1      33.478 -20.186 -21.406  0.00  0.00    +0.003 C 
ATOM     27  C   UNL     1      34.794 -19.725 -21.456  0.00  0.00    +0.036 C 
BRANCH  24  28
ATOM     28  O   UNL     1      37.042 -19.822 -20.684  0.00  0.00    -0.506 OA
ATOM     29  H   UNL     1      37.432 -19.640 -21.516  0.00  0.00    +0.292 HD
ENDBRANCH  24  28
ENDBRANCH  19  21
ENDBRANCH   2  18
TORSDOF 4
ENDMDL
MODEL 3
REMARK VINA RESULT:     -10.5     11.669     14.728
REMARK  Name = 6852140
REMARK  4 active torsions:
REMARK  status: ('A' for Active; 'I' for Inactive)
REMARK    1  A    between atoms: C_2  and  N_18
REMARK    2  A    between atoms: C_5  and  C_13
REMARK    3  A    between atoms: C_19  and  C_21
REMARK    4  A    between atoms: C_24  and  O_28
REMARK                            x       y       z     vdW  Elec       q    Type
REMARK                         _______ _______ _______ _____ _____    ______ ____
ROOT
ATOM      1  C   UNL     1      32.412 -11.390 -21.372  0.00  0.00    +0.014 C 
ATOM      2  C   UNL     1      31.944 -10.182 -20.830  0.00  0.00    +0.050 C 
ATOM      3  C   UNL     1      32.367 -12.565 -20.584  0.00  0.00    +0.001 C 
ATOM      4  C   UNL     1      32.925 -11.458 -22.678  0.00  0.00    +0.004 C 
ATOM      5  C   UNL     1      33.386 -12.667 -23.199  0.00  0.00    +0.031 C 
ATOM      6  C   UNL     1      32.835 -13.774 -21.127  0.00  0.00    +0.000 C 
ATOM      7  C   UNL     1      31.438 -10.133 -19.530  0.00  0.00    +0.015 C 
ATOM      8  C   UNL     1      31.853 -12.498 -19.279  0.00  0.00    +0.000 C 
ATOM      9  C   UNL     1      33.340 -13.823 -22.426  0.00  0.00    +0.003 C 
ATOM     10  C   UNL     1      31.393 -11.289 -18.757  0.00  0.00    +0.001 C 
ENDROOT
BRANCH   5  13
ATOM     11  N   UNL     1      33.711 -13.835 -25.366  0.00  0.00    -0.343 N 
ATOM     12  N   UNL     1      34.605 -11.702 -25.032  0.00  0.00    -0.285 NA
ATOM     13  C   UNL     1      33.914 -12.721 -24.554  0.00  0.00    +0.117 C 
ATOM     14  H   UNL     1      34.078 -13.851 -26.280  0.00  0.00    +0.144 HD
ATOM     15  H   UNL     1      33.201 -14.606 -25.028  0.00  0.00    +0.144 HD
ATOM     16  H   UNL     1      34.963 -11.737 -25.949  0.00  0.00    +0.188 HD
ENDBRANCH   5  13
BRANCH   2  18
ATOM     17  O   UNL     1      33.372  -7.692 -20.231  0.00  0.00    -0.270 OA
ATOM     18  N   UNL     1      31.965  -8.987 -21.562  0.00  0.00    -0.280 N 
ATOM     19  C   UNL     1      32.666  -7.830 -21.227  0.00  0.00    +0.249 C 
ATOM     20  H   UNL     1      31.434  -8.963 -22.391  0.00  0.00    +0.155 HD
BRANCH  19  21
ATOM     21  C   UNL     1      32.458  -6.710 -22.164  0.00  0.00    +0.053 C 
ATOM     22  C   UNL     1      33.354  -6.477 -23.195  0.00  0.00    +0.016 C 
ATOM     23  C   UNL     1      31.344  -5.904 -21.982  0.00  0.00    +0.004 C 
ATOM     24  C   UNL     1      33.133  -5.411 -24.066  0.00  0.00    +0.130 C 
ATOM     25  C   UNL     1      34.553  -7.351 -23.385  0.00  0.00    +0.034 C 
ATOM     26  C   UNL     1      31.123  -4.838 -22.853  0.00  0.00    +0.003 C 
ATOM     27  C   UNL     1      32.017  -4.591 -23.895  0.00  0.00    +0.036 C 
BRANCH  24  28
ATOM     28  O   UNL     1      33.995  -5.154 -25.090  0.00  0.00    -0.506 OA
ATOM     29  H   UNL     1      34.814  -5.605 -25.136  0.00  0.00    +0.292 HD
ENDBRANCH  24  28
ENDBRANCH  19  21
ENDBRANCH   2  18
TORSDOF 4
ENDMDL
MODEL 4
REMARK VINA RESULT:     -10.4     11.879     14.954
REMARK  Name = 6852140
REMARK  4 active torsions:
REMARK  status: ('A' for Active; 'I' for Inactive)
REMARK    1  A    between atoms: C_2  and  N_18
REMARK    2  A    between atoms: C_5  and  C_13
REMARK    3  A    between atoms: C_19  and  C_21
REMARK    4  A    between atoms: C_24  and  O_28
REMARK                            x       y       z     vdW  Elec       q    Type
REMARK                         _______ _______ _______ _____ _____    ______ ____
ROOT
ATOM      1  C   UNL     1      32.410 -11.234 -21.411  0.00  0.00    +0.014 C 
ATOM      2  C   UNL     1      32.099  -9.925 -21.005  0.00  0.00    +0.050 C 
ATOM      3  C   UNL     1      32.216 -12.304 -20.505  0.00  0.00    +0.001 C 
ATOM      4  C   UNL     1      32.912 -11.503 -22.695  0.00  0.00    +0.004 C 
ATOM      5  C   UNL     1      33.216 -12.809 -23.080  0.00  0.00    +0.031 C 
ATOM      6  C   UNL     1      32.527 -13.612 -20.911  0.00  0.00    +0.000 C 
ATOM      7  C   UNL     1      31.603  -9.676 -19.724  0.00  0.00    +0.015 C 
ATOM      8  C   UNL     1      31.714 -12.035 -19.221  0.00  0.00    +0.000 C 
ATOM      9  C   UNL     1      33.023 -13.861 -22.191  0.00  0.00    +0.003 C 
ATOM     10  C   UNL     1      31.411 -10.729 -18.835  0.00  0.00    +0.001 C 
ENDROOT
BRANCH   5  13
ATOM     11  N   UNL     1      33.687 -14.349 -24.970  0.00  0.00    -0.343 N 
ATOM     12  N   UNL     1      34.266 -12.090 -25.119  0.00  0.00    -0.285 NA
ATOM     13  C   UNL     1      33.734 -13.072 -24.414  0.00  0.00    +0.117 C 
ATOM     14  H   UNL     1      34.043 -14.505 -25.874  0.00  0.00    +0.144 HD
ATOM     15  H   UNL     1      33.296 -15.095 -24.460  0.00  0.00    +0.144 HD
ATOM     16  H   UNL     1      34.617 -12.266 -26.022  0.00  0.00    +0.188 HD
ENDBRANCH   5  13
BRANCH   2  18
ATOM     17  O   UNL     1      33.570  -7.437 -20.510  0.00  0.00    -0.270 OA
ATOM     18  N   UNL     1      32.272  -8.827 -21.857  0.00  0.00    -0.280 N 
ATOM     19  C   UNL     1      32.986  -7.665 -21.566  0.00  0.00    +0.249 C 
ATOM     20  H   UNL     1      31.850  -8.881 -22.745  0.00  0.00    +0.155 HD
BRANCH  19  21
ATOM     21  C   UNL     1      32.953  -6.657 -22.642  0.00  0.00    +0.053 C 
ATOM     22  C   UNL     1      31.920  -5.737 -22.716  0.00  0.00    +0.016 C 
ATOM     23  C   UNL     1      33.984  -6.658 -23.570  0.00  0.00    +0.004 C 
ATOM     24  C   UNL     1      31.915  -4.795 -23.745  0.00  0.00    +0.130 C 
ATOM     25  C   UNL     1      30.812  -5.740 -21.712  0.00  0.00    +0.034 C 
ATOM     26  C   UNL     1      33.979  -5.716 -24.598  0.00  0.00    +0.003 C 
ATOM     27  C   UNL     1      32.945  -4.784 -24.686  0.00  0.00    +0.036 C 
BRANCH  24  28
ATOM     28  O   UNL     1      30.913  -3.875 -23.847  0.00  0.00    -0.506 OA
ATOM     29  H   UNL     1      30.225  -4.002 -24.469  0.00  0.00    +0.292 HD
ENDBRANCH  24  28
ENDBRANCH  19  21
ENDBRANCH   2  18
TORSDOF 4
ENDMDL
MODEL 5
REMARK VINA RESULT:     -10.1      3.196      5.963
REMARK  Name = 6852140
REMARK  4 active torsions:
REMARK  status: ('A' for Active; 'I' for Inactive)
REMARK    1  A    between atoms: C_2  and  N_18
REMARK    2  A    between atoms: C_5  and  C_13
REMARK    3  A    between atoms: C_19  and  C_21
REMARK    4  A    between atoms: C_24  and  O_28
REMARK                            x       y       z     vdW  Elec       q    Type
REMARK                         _______ _______ _______ _____ _____    ______ ____
ROOT
ATOM      1  C   UNL     1      32.616 -23.967 -15.559  0.00  0.00    +0.014 C 
ATOM      2  C   UNL     1      33.159 -24.680 -14.478  0.00  0.00    +0.050 C 
ATOM      3  C   UNL     1      31.225 -23.706 -15.587  0.00  0.00    +0.001 C 
ATOM      4  C   UNL     1      33.422 -23.509 -16.615  0.00  0.00    +0.004 C 
ATOM      5  C   UNL     1      32.865 -22.803 -17.681  0.00  0.00    +0.031 C 
ATOM      6  C   UNL     1      30.682 -22.993 -16.669  0.00  0.00    +0.000 C 
ATOM      7  C   UNL     1      32.343 -25.128 -13.439  0.00  0.00    +0.015 C 
ATOM      8  C   UNL     1      30.419 -24.164 -14.532  0.00  0.00    +0.000 C 
ATOM      9  C   UNL     1      31.498 -22.544 -17.708  0.00  0.00    +0.003 C 
ATOM     10  C   UNL     1      30.976 -24.871 -13.466  0.00  0.00    +0.001 C 
ENDROOT
BRANCH   5  13
ATOM     11  N   UNL     1      33.205 -21.536 -19.789  0.00  0.00    -0.343 N 
ATOM     12  N   UNL     1      34.990 -22.670 -18.795  0.00  0.00    -0.285 NA
ATOM     13  C   UNL     1      33.713 -22.334 -18.765  0.00  0.00    +0.117 C 
ATOM     14  H   UNL     1      33.797 -21.230 -20.514  0.00  0.00    +0.144 HD
ATOM     15  H   UNL     1      32.255 -21.277 -19.787  0.00  0.00    +0.144 HD
ATOM     16  H   UNL     1      35.565 -22.354 -19.529  0.00  0.00    +0.188 HD
ENDBRANCH   5  13
BRANCH   2  18
ATOM     17  O   UNL     1      35.137 -23.660 -12.568  0.00  0.00    -0.270 OA
ATOM     18  N   UNL     1      34.528 -24.969 -14.397  0.00  0.00    -0.280 N 
ATOM     19  C   UNL     1      35.424 -24.452 -13.463  0.00  0.00    +0.249 C 
ATOM     20  H   UNL     1      34.891 -25.597 -15.063  0.00  0.00    +0.155 HD
BRANCH  19  21
ATOM     21  C   UNL     1      36.816 -24.900 -13.654  0.00  0.00    +0.053 C 
ATOM     22  C   UNL     1      37.583 -24.394 -14.692  0.00  0.00    +0.016 C 
ATOM     23  C   UNL     1      37.329 -25.835 -12.769  0.00  0.00    +0.004 C 
ATOM     24  C   UNL     1      38.896 -24.836 -14.849  0.00  0.00    +0.130 C 
ATOM     25  C   UNL     1      37.024 -23.385 -15.642  0.00  0.00    +0.034 C 
ATOM     26  C   UNL     1      38.642 -26.277 -12.926  0.00  0.00    +0.003 C 
ATOM     27  C   UNL     1      39.427 -25.778 -13.966  0.00  0.00    +0.036 C 
BRANCH  24  28
ATOM     28  O   UNL     1      39.679 -24.360 -15.859  0.00  0.00    -0.506 OA
ATOM     29  H   UNL     1      39.344 -24.325 -16.733  0.00  0.00    +0.292 HD
ENDBRANCH  24  28
ENDBRANCH  19  21
ENDBRANCH   2  18
TORSDOF 4
ENDMDL
MODEL 6
REMARK VINA RESULT:     -10.1      1.774      4.134
REMARK  Name = 6852140
REMARK  4 active torsions:
REMARK  status: ('A' for Active; 'I' for Inactive)
REMARK    1  A    between atoms: C_2  and  N_18
REMARK    2  A    between atoms: C_5  and  C_13
REMARK    3  A    between atoms: C_19  and  C_21
REMARK    4  A    between atoms: C_24  and  O_28
REMARK                            x       y       z     vdW  Elec       q    Type
REMARK                         _______ _______ _______ _____ _____    ______ ____
ROOT
ATOM      1  C   UNL     1      32.332 -23.595 -15.722  0.00  0.00    +0.014 C 
ATOM      2  C   UNL     1      31.984 -22.894 -16.889  0.00  0.00    +0.050 C 
ATOM      3  C   UNL     1      31.314 -24.208 -14.954  0.00  0.00    +0.001 C 
ATOM      4  C   UNL     1      33.668 -23.698 -15.300  0.00  0.00    +0.004 C 
ATOM      5  C   UNL     1      33.995 -24.397 -14.139  0.00  0.00    +0.031 C 
ATOM      6  C   UNL     1      31.662 -24.909 -13.787  0.00  0.00    +0.000 C 
ATOM      7  C   UNL     1      30.651 -22.801 -17.292  0.00  0.00    +0.015 C 
ATOM      8  C   UNL     1      29.978 -24.105 -15.376  0.00  0.00    +0.000 C 
ATOM      9  C   UNL     1      32.995 -25.003 -13.384  0.00  0.00    +0.003 C 
ATOM     10  C   UNL     1      29.651 -23.405 -16.537  0.00  0.00    +0.001 C 
ENDROOT
BRANCH   5  13
ATOM     11  N   UNL     1      36.135 -25.645 -13.959  0.00  0.00    -0.343 N 
ATOM     12  N   UNL     1      35.951 -23.487 -13.082  0.00  0.00    -0.285 NA
ATOM     13  C   UNL     1      35.383 -24.497 -13.716  0.00  0.00    +0.117 C 
ATOM     14  H   UNL     1      37.072 -25.691 -13.663  0.00  0.00    +0.144 HD
ATOM     15  H   UNL     1      35.728 -26.410 -14.427  0.00  0.00    +0.144 HD
ATOM     16  H   UNL     1      36.891 -23.552 -12.795  0.00  0.00    +0.188 HD
ENDBRANCH   5  13
BRANCH   2  18
ATOM     17  O   UNL     1      33.666 -24.061 -18.988  0.00  0.00    -0.270 OA
ATOM     18  N   UNL     1      32.948 -22.265 -17.688  0.00  0.00    -0.280 N 
ATOM     19  C   UNL     1      33.721 -22.874 -18.676  0.00  0.00    +0.249 C 
ATOM     20  H   UNL     1      33.092 -21.303 -17.539  0.00  0.00    +0.155 HD
BRANCH  19  21
ATOM     21  C   UNL     1      34.691 -21.969 -19.321  0.00  0.00    +0.053 C 
ATOM     22  C   UNL     1      34.276 -21.058 -20.280  0.00  0.00    +0.016 C 
ATOM     23  C   UNL     1      36.021 -22.056 -18.939  0.00  0.00    +0.004 C 
ATOM     24  C   UNL     1      35.215 -20.215 -20.874  0.00  0.00    +0.130 C 
ATOM     25  C   UNL     1      32.840 -20.969 -20.687  0.00  0.00    +0.034 C 
ATOM     26  C   UNL     1      36.960 -21.213 -19.533  0.00  0.00    +0.003 C 
ATOM     27  C   UNL     1      36.557 -20.292 -20.500  0.00  0.00    +0.036 C 
BRANCH  24  28
ATOM     28  O   UNL     1      34.841 -19.308 -21.821  0.00  0.00    -0.506 OA
ATOM     29  H   UNL     1      34.858 -18.393 -21.624  0.00  0.00    +0.292 HD
ENDBRANCH  24  28
ENDBRANCH  19  21
ENDBRANCH   2  18
TORSDOF 4
ENDMDL
MODEL 7
REMARK VINA RESULT:      -9.9      2.642      6.696
REMARK  Name = 6852140
REMARK  4 active torsions:
REMARK  status: ('A' for Active; 'I' for Inactive)
REMARK    1  A    between atoms: C_2  and  N_18
REMARK    2  A    between atoms: C_5  and  C_13
REMARK    3  A    between atoms: C_19  and  C_21
REMARK    4  A    between atoms: C_24  and  O_28
REMARK                            x       y       z     vdW  Elec       q    Type
REMARK                         _______ _______ _______ _____ _____    ______ ____
ROOT
ATOM      1  C   UNL     1      35.209 -22.380 -17.876  0.00  0.00    +0.014 C 
ATOM      2  C   UNL     1      34.703 -23.151 -16.816  0.00  0.00    +0.050 C 
ATOM      3  C   UNL     1      36.592 -22.082 -17.916  0.00  0.00    +0.001 C 
ATOM      4  C   UNL     1      34.372 -21.897 -18.896  0.00  0.00    +0.004 C 
ATOM      5  C   UNL     1      34.892 -21.132 -19.940  0.00  0.00    +0.031 C 
ATOM      6  C   UNL     1      37.098 -21.310 -18.976  0.00  0.00    +0.000 C 
ATOM      7  C   UNL     1      35.549 -23.621 -15.811  0.00  0.00    +0.015 C 
ATOM      8  C   UNL     1      37.428 -22.565 -16.896  0.00  0.00    +0.000 C 
ATOM      9  C   UNL     1      36.252 -20.840 -19.981  0.00  0.00    +0.003 C 
ATOM     10  C   UNL     1      36.908 -23.328 -15.851  0.00  0.00    +0.001 C 
ENDROOT
BRANCH   5  13
ATOM     11  N   UNL     1      34.517 -19.964 -22.099  0.00  0.00    -0.343 N 
ATOM     12  N   UNL     1      32.709 -20.827 -20.897  0.00  0.00    -0.285 NA
ATOM     13  C   UNL     1      34.013 -20.640 -20.990  0.00  0.00    +0.117 C 
ATOM     14  H   UNL     1      33.905 -19.639 -22.798  0.00  0.00    +0.144 HD
ATOM     15  H   UNL     1      35.487 -19.812 -22.185  0.00  0.00    +0.144 HD
ATOM     16  H   UNL     1      32.113 -20.495 -21.607  0.00  0.00    +0.188 HD
ENDBRANCH   5  13
BRANCH   2  18
ATOM     17  O   UNL     1      32.737 -22.259 -14.832  0.00  0.00    -0.270 OA
ATOM     18  N   UNL     1      33.343 -23.477 -16.724  0.00  0.00    -0.280 N 
ATOM     19  C   UNL     1      32.452 -23.020 -15.754  0.00  0.00    +0.249 C 
ATOM     20  H   UNL     1      32.983 -24.086 -17.408  0.00  0.00    +0.155 HD
BRANCH  19  21
ATOM     21  C   UNL     1      31.091 -23.573 -15.881  0.00  0.00    +0.053 C 
ATOM     22  C   UNL     1      30.709 -24.684 -15.147  0.00  0.00    +0.016 C 
ATOM     23  C   UNL     1      30.211 -22.949 -16.753  0.00  0.00    +0.004 C 
ATOM     24  C   UNL     1      29.415 -25.185 -15.288  0.00  0.00    +0.130 C 
ATOM     25  C   UNL     1      31.662 -25.351 -14.208  0.00  0.00    +0.034 C 
ATOM     26  C   UNL     1      28.918 -23.450 -16.894  0.00  0.00    +0.003 C 
ATOM     27  C   UNL     1      28.519 -24.569 -16.161  0.00  0.00    +0.036 C 
BRANCH  24  28
ATOM     28  O   UNL     1      29.007 -26.277 -14.580  0.00  0.00    -0.506 OA
ATOM     29  H   UNL     1      28.619 -26.168 -13.735  0.00  0.00    +0.292 HD
ENDBRANCH  24  28
ENDBRANCH  19  21
ENDBRANCH   2  18
TORSDOF 4
ENDMDL
MODEL 8
REMARK VINA RESULT:      -9.9      2.176      4.619
REMARK  Name = 6852140
REMARK  4 active torsions:
REMARK  status: ('A' for Active; 'I' for Inactive)
REMARK    1  A    between atoms: C_2  and  N_18
REMARK    2  A    between atoms: C_5  and  C_13
REMARK    3  A    between atoms: C_19  and  C_21
REMARK    4  A    between atoms: C_24  and  O_28
REMARK                            x       y       z     vdW  Elec       q    Type
REMARK                         _______ _______ _______ _____ _____    ______ ____
ROOT
ATOM      1  C   UNL     1      33.740 -23.448 -15.583  0.00  0.00    +0.014 C 
ATOM      2  C   UNL     1      33.146 -22.961 -16.759  0.00  0.00    +0.050 C 
ATOM      3  C   UNL     1      32.959 -24.199 -14.673  0.00  0.00    +0.001 C 
ATOM      4  C   UNL     1      35.092 -23.203 -15.289  0.00  0.00    +0.004 C 
ATOM      5  C   UNL     1      35.665 -23.694 -14.116  0.00  0.00    +0.031 C 
ATOM      6  C   UNL     1      33.553 -24.686 -13.496  0.00  0.00    +0.000 C 
ATOM      7  C   UNL     1      31.801 -23.213 -17.034  0.00  0.00    +0.015 C 
ATOM      8  C   UNL     1      31.607 -24.444 -14.967  0.00  0.00    +0.000 C 
ATOM      9  C   UNL     1      34.898 -24.434 -13.221  0.00  0.00    +0.003 C 
ATOM     10  C   UNL     1      31.034 -23.953 -16.139  0.00  0.00    +0.001 C 
ENDROOT
BRANCH   5  13
ATOM     11  N   UNL     1      37.494 -23.123 -12.536  0.00  0.00    -0.343 N 
ATOM     12  N   UNL     1      37.959 -23.483 -14.797  0.00  0.00    -0.285 NA
ATOM     13  C   UNL     1      37.066 -23.433 -13.826  0.00  0.00    +0.117 C 
ATOM     14  H   UNL     1      38.447 -22.950 -12.362  0.00  0.00    +0.144 HD
ATOM     15  H   UNL     1      36.843 -23.078 -11.798  0.00  0.00    +0.144 HD
ATOM     16  H   UNL     1      38.908 -23.308 -14.603  0.00  0.00    +0.188 HD
ENDBRANCH   5  13
BRANCH   2  18
ATOM     17  O   UNL     1      33.989 -23.726 -19.461  0.00  0.00    -0.270 OA
ATOM     18  N   UNL     1      33.869 -22.211 -17.695  0.00  0.00    -0.280 N 
ATOM     19  C   UNL     1      34.243 -22.628 -18.972  0.00  0.00    +0.249 C 
ATOM     20  H   UNL     1      34.138 -21.303 -17.427  0.00  0.00    +0.155 HD
BRANCH  19  21
ATOM     21  C   UNL     1      35.043 -21.638 -19.716  0.00  0.00    +0.053 C 
ATOM     22  C   UNL     1      34.432 -20.742 -20.579  0.00  0.00    +0.016 C 
ATOM     23  C   UNL     1      36.417 -21.632 -19.526  0.00  0.00    +0.004 C 
ATOM     24  C   UNL     1      35.214 -19.817 -21.270  0.00  0.00    +0.130 C 
ATOM     25  C   UNL     1      32.950 -20.754 -20.779  0.00  0.00    +0.034 C 
ATOM     26  C   UNL     1      37.199 -20.707 -20.217  0.00  0.00    +0.003 C 
ATOM     27  C   UNL     1      36.597 -19.799 -21.090  0.00  0.00    +0.036 C 
BRANCH  24  28
ATOM     28  O   UNL     1      34.645 -18.922 -22.127  0.00  0.00    -0.506 OA
ATOM     29  H   UNL     1      34.021 -19.214 -22.762  0.00  0.00    +0.292 HD
ENDBRANCH  24  28
ENDBRANCH  19  21
ENDBRANCH   2  18
TORSDOF 4
ENDMDL
MODEL 9
REMARK VINA RESULT:      -9.8      2.669      7.233
REMARK  Name = 6852140
REMARK  4 active torsions:
REMARK  status: ('A' for Active; 'I' for Inactive)
REMARK    1  A    between atoms: C_2  and  N_18
REMARK    2  A    between atoms: C_5  and  C_13
REMARK    3  A    between atoms: C_19  and  C_21
REMARK    4  A    between atoms: C_24  and  O_28
REMARK                            x       y       z     vdW  Elec       q    Type
REMARK                         _______ _______ _______ _____ _____    ______ ____
ROOT
ATOM      1  C   UNL     1      35.332 -22.667 -17.400  0.00  0.00    +0.014 C 
ATOM      2  C   UNL     1      34.039 -22.833 -17.926  0.00  0.00    +0.050 C 
ATOM      3  C   UNL     1      36.322 -22.030 -18.187  0.00  0.00    +0.001 C 
ATOM      4  C   UNL     1      35.664 -23.122 -16.114  0.00  0.00    +0.004 C 
ATOM      5  C   UNL     1      36.953 -22.950 -15.609  0.00  0.00    +0.031 C 
ATOM      6  C   UNL     1      37.614 -21.864 -17.661  0.00  0.00    +0.000 C 
ATOM      7  C   UNL     1      33.728 -22.376 -19.207  0.00  0.00    +0.015 C 
ATOM      8  C   UNL     1      35.989 -21.575 -19.473  0.00  0.00    +0.000 C 
ATOM      9  C   UNL     1      37.926 -22.321 -16.380  0.00  0.00    +0.003 C 
ATOM     10  C   UNL     1      34.701 -21.748 -19.978  0.00  0.00    +0.001 C 
ENDROOT
BRANCH   5  13
ATOM     11  N   UNL     1      36.413 -23.230 -13.201  0.00  0.00    -0.343 N 
ATOM     12  N   UNL     1      38.426 -24.049 -14.062  0.00  0.00    -0.285 NA
ATOM     13  C   UNL     1      37.282 -23.425 -14.274  0.00  0.00    +0.117 C 
ATOM     14  H   UNL     1      36.656 -23.560 -12.306  0.00  0.00    +0.144 HD
ATOM     15  H   UNL     1      35.557 -22.764 -13.339  0.00  0.00    +0.144 HD
ATOM     16  H   UNL     1      38.650 -24.372 -13.159  0.00  0.00    +0.188 HD
ENDBRANCH   5  13
BRANCH   2  18
ATOM     17  O   UNL     1      31.260 -21.974 -17.558  0.00  0.00    -0.270 OA
ATOM     18  N   UNL     1      33.020 -23.457 -17.195  0.00  0.00    -0.280 N 
ATOM     19  C   UNL     1      31.710 -23.001 -17.055  0.00  0.00    +0.249 C 
ATOM     20  H   UNL     1      33.251 -24.298 -16.738  0.00  0.00    +0.155 HD
BRANCH  19  21
ATOM     21  C   UNL     1      30.871 -23.844 -16.183  0.00  0.00    +0.053 C 
ATOM     22  C   UNL     1      31.248 -24.099 -14.874  0.00  0.00    +0.016 C 
ATOM     23  C   UNL     1      29.701 -24.368 -16.711  0.00  0.00    +0.004 C 
ATOM     24  C   UNL     1      30.435 -24.900 -14.073  0.00  0.00    +0.130 C 
ATOM     25  C   UNL     1      32.511 -23.530 -14.311  0.00  0.00    +0.034 C 
ATOM     26  C   UNL     1      28.888 -25.169 -15.910  0.00  0.00    +0.003 C 
ATOM     27  C   UNL     1      29.254 -25.435 -14.590  0.00  0.00    +0.036 C 
BRANCH  24  28
ATOM     28  O   UNL     1      30.776 -25.171 -12.781  0.00  0.00    -0.506 OA
ATOM     29  H   UNL     1      31.242 -25.958 -12.576  0.00  0.00    +0.292 HD
ENDBRANCH  24  28
ENDBRANCH  19  21
ENDBRANCH   2  18
TORSDOF 4
ENDMDL
