MODEL 1
REMARK VINA RESULT:     -12.6      0.000      0.000
REMARK  Name = 68488178
REMARK  9 active torsions:
REMARK  status: ('A' for Active; 'I' for Inactive)
REMARK    1  A    between atoms: N_1  and  C_10
REMARK    2  A    between atoms: N_2  and  C_29
REMARK    3  A    between atoms: C_10  and  C_11
REMARK    4  A    between atoms: C_16  and  O_17
REMARK    5  A    between atoms: O_17  and  C_18
REMARK    6  A    between atoms: C_23  and  C_26
REMARK    7  A    between atoms: C_29  and  C_30
REMARK    8  A    between atoms: C_35  and  C_37
REMARK    9  A    between atoms: C_37  and  O_38
REMARK                            x       y       z     vdW  Elec       q    Type
REMARK                         _______ _______ _______ _____ _____    ______ ____
ROOT
ATOM      1  N   UNL     1      33.450 -23.398 -17.568  0.00  0.00    +0.388 N 
ATOM      2  N   UNL     1      34.433 -24.805 -15.352  0.00  0.00    +0.388 N 
ATOM      3  C   UNL     1      34.509 -22.854 -16.683  0.00  0.00    -0.081 C 
ATOM      4  C   UNL     1      33.230 -23.939 -15.279  0.00  0.00    -0.081 C 
ATOM      5  C   UNL     1      33.782 -22.529 -15.391  0.00  0.00    -0.046 C 
ATOM      6  C   UNL     1      32.515 -24.077 -16.636  0.00  0.00    -0.098 C 
ATOM      7  C   UNL     1      35.360 -24.058 -16.239  0.00  0.00    -0.098 C 
ATOM      8  H   UNL     1      33.829 -24.033 -18.271  0.00  0.00    -0.079 HD
ATOM      9  H   UNL     1      34.213 -25.734 -15.713  0.00  0.00    -0.079 HD
ENDROOT
BRANCH   1  10
ATOM     10  C   UNL     1      32.788 -22.363 -18.353  0.00  0.00    -0.050 C 
BRANCH  10  11
ATOM     11  C   UNL     1      33.734 -21.699 -19.318  0.00  0.00    -0.043 C 
ATOM     12  C   UNL     1      33.258 -20.740 -20.212  0.00  0.00    -0.003 C 
ATOM     13  C   UNL     1      35.086 -22.044 -19.318  0.00  0.00    -0.003 C 
ATOM     14  C   UNL     1      34.133 -20.125 -21.106  0.00  0.00    +0.037 C 
ATOM     15  C   UNL     1      35.962 -21.429 -20.212  0.00  0.00    +0.037 C 
ATOM     16  C   UNL     1      35.485 -20.469 -21.106  0.00  0.00    +0.145 C 
BRANCH  16  17
ATOM     17  O   UNL     1      36.340 -19.869 -21.980  0.00  0.00    -0.453 OA
BRANCH  17  18
ATOM     18  C   UNL     1      35.836 -18.860 -22.783  0.00  0.00    +0.145 C 
ATOM     19  C   UNL     1      35.238 -19.174 -24.004  0.00  0.00    +0.038 C 
ATOM     20  C   UNL     1      35.929 -17.530 -22.373  0.00  0.00    +0.038 C 
ATOM     21  C   UNL     1      34.734 -18.158 -24.814  0.00  0.00    +0.008 C 
ATOM     22  C   UNL     1      35.424 -16.514 -23.184  0.00  0.00    +0.008 C 
ATOM     23  C   UNL     1      34.826 -16.827 -24.405  0.00  0.00    +0.054 C 
BRANCH  23  26
ATOM     24  O   UNL     1      34.071 -14.593 -24.612  0.00  0.00    -0.431 OA
ATOM     25  N   UNL     1      34.022 -15.796 -26.527  0.00  0.00    -0.206 NA
ATOM     26  C   UNL     1      34.304 -15.776 -25.244  0.00  0.00    +0.230 C 
ATOM     27  C   UNL     1      33.594 -13.791 -25.604  0.00  0.00    +0.202 C 
ATOM     28  C   UNL     1      33.566 -14.525 -26.764  0.00  0.00    +0.143 C 
ENDBRANCH  23  26
ENDBRANCH  17  18
ENDBRANCH  16  17
ENDBRANCH  10  11
ENDBRANCH   1  10
BRANCH   2  29
ATOM     29  C   UNL     1      35.017 -25.067 -14.042  0.00  0.00    -0.050 C 
BRANCH  29  30
ATOM     30  C   UNL     1      36.501 -25.305 -14.128  0.00  0.00    -0.043 C 
ATOM     31  C   UNL     1      36.998 -26.319 -14.946  0.00  0.00    -0.006 C 
ATOM     32  C   UNL     1      37.379 -24.512 -13.387  0.00  0.00    -0.006 C 
ATOM     33  C   UNL     1      38.372 -26.540 -15.024  0.00  0.00    +0.006 C 
ATOM     34  C   UNL     1      38.753 -24.734 -13.465  0.00  0.00    +0.006 C 
ATOM     35  C   UNL     1      39.251 -25.747 -14.285  0.00  0.00    +0.075 C 
BRANCH  35  37
ATOM     36  O   UNL     1      41.276 -26.970 -13.932  0.00  0.00    -0.245 OA
ATOM     37  C   UNL     1      40.684 -25.978 -14.368  0.00  0.00    +0.338 C 
BRANCH  37  38
ATOM     38  O   UNL     1      41.339 -24.962 -14.994  0.00  0.00    -0.477 OA
ATOM     39  H   UNL     1      41.145 -24.759 -15.888  0.00  0.00    +0.295 HD
ENDBRANCH  37  38
ENDBRANCH  35  37
ENDBRANCH  29  30
ENDBRANCH   2  29
TORSDOF 9
ENDMDL
MODEL 2
REMARK VINA RESULT:     -11.6      4.377     13.048
REMARK  Name = 68488178
REMARK  9 active torsions:
REMARK  status: ('A' for Active; 'I' for Inactive)
REMARK    1  A    between atoms: N_1  and  C_10
REMARK    2  A    between atoms: N_2  and  C_29
REMARK    3  A    between atoms: C_10  and  C_11
REMARK    4  A    between atoms: C_16  and  O_17
REMARK    5  A    between atoms: O_17  and  C_18
REMARK    6  A    between atoms: C_23  and  C_26
REMARK    7  A    between atoms: C_29  and  C_30
REMARK    8  A    between atoms: C_35  and  C_37
REMARK    9  A    between atoms: C_37  and  O_38
REMARK                            x       y       z     vdW  Elec       q    Type
REMARK                         _______ _______ _______ _____ _____    ______ ____
ROOT
ATOM      1  N   UNL     1      33.715 -14.551 -23.026  0.00  0.00    +0.388 N 
ATOM      2  N   UNL     1      31.916 -12.860 -21.701  0.00  0.00    +0.388 N 
ATOM      3  C   UNL     1      33.878 -14.172 -21.602  0.00  0.00    -0.081 C 
ATOM      4  C   UNL     1      33.064 -12.346 -22.489  0.00  0.00    -0.081 C 
ATOM      5  C   UNL     1      34.278 -12.708 -21.652  0.00  0.00    -0.046 C 
ATOM      6  C   UNL     1      33.237 -13.307 -23.679  0.00  0.00    -0.098 C 
ATOM      7  C   UNL     1      32.458 -14.062 -21.019  0.00  0.00    -0.098 C 
ATOM      8  H   UNL     1      33.062 -15.328 -23.141  0.00  0.00    -0.079 HD
ATOM      9  H   UNL     1      31.113 -13.076 -22.293  0.00  0.00    -0.079 HD
ENDROOT
BRANCH   1  10
ATOM     10  C   UNL     1      34.951 -15.044 -23.621  0.00  0.00    -0.050 C 
BRANCH  10  11
ATOM     11  C   UNL     1      35.266 -16.448 -23.180  0.00  0.00    -0.043 C 
ATOM     12  C   UNL     1      35.240 -17.492 -24.106  0.00  0.00    -0.003 C 
ATOM     13  C   UNL     1      35.584 -16.706 -21.846  0.00  0.00    -0.003 C 
ATOM     14  C   UNL     1      35.532 -18.794 -23.698  0.00  0.00    +0.037 C 
ATOM     15  C   UNL     1      35.875 -18.008 -21.438  0.00  0.00    +0.037 C 
ATOM     16  C   UNL     1      35.849 -19.051 -22.364  0.00  0.00    +0.145 C 
BRANCH  16  17
ATOM     17  O   UNL     1      36.133 -20.322 -21.965  0.00  0.00    -0.453 OA
BRANCH  17  18
ATOM     18  C   UNL     1      35.351 -20.872 -20.963  0.00  0.00    +0.145 C 
ATOM     19  C   UNL     1      35.920 -21.739 -20.031  0.00  0.00    +0.038 C 
ATOM     20  C   UNL     1      33.993 -20.559 -20.887  0.00  0.00    +0.038 C 
ATOM     21  C   UNL     1      35.132 -22.295 -19.025  0.00  0.00    +0.008 C 
ATOM     22  C   UNL     1      33.205 -21.116 -19.880  0.00  0.00    +0.008 C 
ATOM     23  C   UNL     1      33.775 -21.984 -18.948  0.00  0.00    +0.054 C 
BRANCH  23  26
ATOM     24  O   UNL     1      33.624 -23.356 -17.025  0.00  0.00    -0.431 OA
ATOM     25  N   UNL     1      31.671 -22.427 -17.687  0.00  0.00    -0.206 NA
ATOM     26  C   UNL     1      32.959 -22.560 -17.907  0.00  0.00    +0.230 C 
ATOM     27  C   UNL     1      32.648 -23.763 -16.166  0.00  0.00    +0.202 C 
ATOM     28  C   UNL     1      31.465 -23.197 -16.571  0.00  0.00    +0.143 C 
ENDBRANCH  23  26
ENDBRANCH  17  18
ENDBRANCH  16  17
ENDBRANCH  10  11
ENDBRANCH   1  10
BRANCH   2  29
ATOM     29  C   UNL     1      31.399 -11.878 -20.756  0.00  0.00    -0.050 C 
BRANCH  29  30
ATOM     30  C   UNL     1      31.780 -10.473 -21.141  0.00  0.00    -0.043 C 
ATOM     31  C   UNL     1      32.361  -9.625 -20.198  0.00  0.00    -0.006 C 
ATOM     32  C   UNL     1      31.551 -10.020 -22.441  0.00  0.00    -0.006 C 
ATOM     33  C   UNL     1      32.713  -8.324 -20.556  0.00  0.00    +0.006 C 
ATOM     34  C   UNL     1      31.902  -8.719 -22.797  0.00  0.00    +0.006 C 
ATOM     35  C   UNL     1      32.485  -7.870 -21.855  0.00  0.00    +0.075 C 
BRANCH  35  37
ATOM     36  O   UNL     1      33.478  -6.194 -23.242  0.00  0.00    -0.245 OA
ATOM     37  C   UNL     1      32.852  -6.514 -22.227  0.00  0.00    +0.338 C 
BRANCH  37  38
ATOM     38  O   UNL     1      32.427  -5.592 -21.320  0.00  0.00    -0.477 OA
ATOM     39  H   UNL     1      32.871  -4.770 -21.243  0.00  0.00    +0.295 HD
ENDBRANCH  37  38
ENDBRANCH  35  37
ENDBRANCH  29  30
ENDBRANCH   2  29
TORSDOF 9
ENDMDL
MODEL 3
REMARK VINA RESULT:     -11.4      4.363      6.705
REMARK  Name = 68488178
REMARK  9 active torsions:
REMARK  status: ('A' for Active; 'I' for Inactive)
REMARK    1  A    between atoms: N_1  and  C_10
REMARK    2  A    between atoms: N_2  and  C_29
REMARK    3  A    between atoms: C_10  and  C_11
REMARK    4  A    between atoms: C_16  and  O_17
REMARK    5  A    between atoms: O_17  and  C_18
REMARK    6  A    between atoms: C_23  and  C_26
REMARK    7  A    between atoms: C_29  and  C_30
REMARK    8  A    between atoms: C_35  and  C_37
REMARK    9  A    between atoms: C_37  and  O_38
REMARK                            x       y       z     vdW  Elec       q    Type
REMARK                         _______ _______ _______ _____ _____    ______ ____
ROOT
ATOM      1  N   UNL     1      34.753 -22.044 -18.764  0.00  0.00    +0.388 N 
ATOM      2  N   UNL     1      33.165 -22.792 -16.580  0.00  0.00    +0.388 N 
ATOM      3  C   UNL     1      33.619 -22.990 -18.890  0.00  0.00    -0.081 C 
ATOM      4  C   UNL     1      34.432 -23.485 -16.920  0.00  0.00    -0.081 C 
ATOM      5  C   UNL     1      34.106 -24.247 -18.192  0.00  0.00    -0.046 C 
ATOM      6  C   UNL     1      35.382 -22.404 -17.468  0.00  0.00    -0.098 C 
ATOM      7  C   UNL     1      32.543 -22.510 -17.898  0.00  0.00    -0.098 C 
ATOM      8  H   UNL     1      34.443 -21.071 -18.790  0.00  0.00    -0.079 HD
ATOM      9  H   UNL     1      33.328 -21.943 -16.036  0.00  0.00    -0.079 HD
ENDROOT
BRANCH   1  10
ATOM     10  C   UNL     1      35.692 -22.141 -19.875  0.00  0.00    -0.050 C 
BRANCH  10  11
ATOM     11  C   UNL     1      35.810 -20.841 -20.625  0.00  0.00    -0.043 C 
ATOM     12  C   UNL     1      37.023 -20.152 -20.638  0.00  0.00    -0.003 C 
ATOM     13  C   UNL     1      34.707 -20.326 -21.307  0.00  0.00    -0.003 C 
ATOM     14  C   UNL     1      37.134 -18.947 -21.332  0.00  0.00    +0.037 C 
ATOM     15  C   UNL     1      34.818 -19.121 -22.001  0.00  0.00    +0.037 C 
ATOM     16  C   UNL     1      36.031 -18.432 -22.014  0.00  0.00    +0.145 C 
BRANCH  16  17
ATOM     17  O   UNL     1      36.138 -17.256 -22.691  0.00  0.00    -0.453 OA
BRANCH  17  18
ATOM     18  C   UNL     1      35.283 -16.226 -22.333  0.00  0.00    +0.145 C 
ATOM     19  C   UNL     1      34.762 -15.381 -23.312  0.00  0.00    +0.038 C 
ATOM     20  C   UNL     1      34.944 -16.035 -20.994  0.00  0.00    +0.038 C 
ATOM     21  C   UNL     1      33.904 -14.343 -22.952  0.00  0.00    +0.008 C 
ATOM     22  C   UNL     1      34.086 -14.997 -20.633  0.00  0.00    +0.008 C 
ATOM     23  C   UNL     1      33.564 -14.150 -21.613  0.00  0.00    +0.054 C 
BRANCH  23  26
ATOM     24  O   UNL     1      32.411 -12.981 -19.908  0.00  0.00    -0.431 OA
ATOM     25  N   UNL     1      32.090 -12.178 -21.998  0.00  0.00    -0.206 NA
ATOM     26  C   UNL     1      32.677 -13.076 -21.240  0.00  0.00    +0.230 C 
ATOM     27  C   UNL     1      31.569 -11.913 -19.827  0.00  0.00    +0.202 C 
ATOM     28  C   UNL     1      31.378 -11.429 -21.098  0.00  0.00    +0.143 C 
ENDBRANCH  23  26
ENDBRANCH  17  18
ENDBRANCH  16  17
ENDBRANCH  10  11
ENDBRANCH   1  10
BRANCH   2  29
ATOM     29  C   UNL     1      32.298 -23.594 -15.725  0.00  0.00    -0.050 C 
BRANCH  29  30
ATOM     30  C   UNL     1      30.844 -23.265 -15.934  0.00  0.00    -0.043 C 
ATOM     31  C   UNL     1      30.150 -23.828 -17.006  0.00  0.00    -0.006 C 
ATOM     32  C   UNL     1      30.191 -22.397 -15.059  0.00  0.00    -0.006 C 
ATOM     33  C   UNL     1      28.803 -23.523 -17.200  0.00  0.00    +0.006 C 
ATOM     34  C   UNL     1      28.845 -22.092 -15.254  0.00  0.00    +0.006 C 
ATOM     35  C   UNL     1      28.149 -22.656 -16.324  0.00  0.00    +0.075 C 
BRANCH  35  37
ATOM     36  O   UNL     1      26.228 -22.035 -17.607  0.00  0.00    -0.245 OA
ATOM     37  C   UNL     1      26.746 -22.339 -16.527  0.00  0.00    +0.338 C 
BRANCH  37  38
ATOM     38  O   UNL     1      26.024 -22.410 -15.375  0.00  0.00    -0.477 OA
ATOM     39  H   UNL     1      25.929 -23.231 -14.932  0.00  0.00    +0.295 HD
ENDBRANCH  37  38
ENDBRANCH  35  37
ENDBRANCH  29  30
ENDBRANCH   2  29
TORSDOF 9
ENDMDL
MODEL 4
REMARK VINA RESULT:     -11.4      3.091     12.505
REMARK  Name = 68488178
REMARK  9 active torsions:
REMARK  status: ('A' for Active; 'I' for Inactive)
REMARK    1  A    between atoms: N_1  and  C_10
REMARK    2  A    between atoms: N_2  and  C_29
REMARK    3  A    between atoms: C_10  and  C_11
REMARK    4  A    between atoms: C_16  and  O_17
REMARK    5  A    between atoms: O_17  and  C_18
REMARK    6  A    between atoms: C_23  and  C_26
REMARK    7  A    between atoms: C_29  and  C_30
REMARK    8  A    between atoms: C_35  and  C_37
REMARK    9  A    between atoms: C_37  and  O_38
REMARK                            x       y       z     vdW  Elec       q    Type
REMARK                         _______ _______ _______ _____ _____    ______ ____
ROOT
ATOM      1  N   UNL     1      35.117 -19.155 -21.963  0.00  0.00    +0.388 N 
ATOM      2  N   UNL     1      34.942 -16.572 -23.034  0.00  0.00    +0.388 N 
ATOM      3  C   UNL     1      36.120 -18.103 -21.674  0.00  0.00    -0.081 C 
ATOM      4  C   UNL     1      35.591 -17.694 -23.757  0.00  0.00    -0.081 C 
ATOM      5  C   UNL     1      36.873 -17.939 -22.982  0.00  0.00    -0.046 C 
ATOM      6  C   UNL     1      34.791 -18.959 -23.398  0.00  0.00    -0.098 C 
ATOM      7  C   UNL     1      35.347 -16.772 -21.620  0.00  0.00    -0.098 C 
ATOM      8  H   UNL     1      34.295 -19.075 -21.362  0.00  0.00    -0.079 HD
ATOM      9  H   UNL     1      33.928 -16.576 -23.153  0.00  0.00    -0.079 HD
ENDROOT
BRANCH   1  10
ATOM     10  C   UNL     1      35.617 -20.498 -21.692  0.00  0.00    -0.050 C 
BRANCH  10  11
ATOM     11  C   UNL     1      34.832 -21.180 -20.604  0.00  0.00    -0.043 C 
ATOM     12  C   UNL     1      35.430 -22.181 -19.837  0.00  0.00    -0.003 C 
ATOM     13  C   UNL     1      33.509 -20.812 -20.362  0.00  0.00    -0.003 C 
ATOM     14  C   UNL     1      34.703 -22.814 -18.828  0.00  0.00    +0.037 C 
ATOM     15  C   UNL     1      32.782 -21.445 -19.354  0.00  0.00    +0.037 C 
ATOM     16  C   UNL     1      33.379 -22.446 -18.587  0.00  0.00    +0.145 C 
BRANCH  16  17
ATOM     17  O   UNL     1      32.670 -23.064 -17.603  0.00  0.00    -0.453 OA
BRANCH  17  18
ATOM     18  C   UNL     1      33.319 -23.326 -16.408  0.00  0.00    +0.145 C 
ATOM     19  C   UNL     1      32.599 -23.804 -15.314  0.00  0.00    +0.038 C 
ATOM     20  C   UNL     1      34.693 -23.110 -16.299  0.00  0.00    +0.038 C 
ATOM     21  C   UNL     1      33.252 -24.064 -14.109  0.00  0.00    +0.008 C 
ATOM     22  C   UNL     1      35.346 -23.370 -15.095  0.00  0.00    +0.008 C 
ATOM     23  C   UNL     1      34.626 -23.849 -13.999  0.00  0.00    +0.054 C 
BRANCH  23  26
ATOM     24  O   UNL     1      36.437 -23.397 -12.543  0.00  0.00    -0.431 OA
ATOM     25  N   UNL     1      34.980 -24.957 -11.795  0.00  0.00    -0.206 NA
ATOM     26  C   UNL     1      35.301 -24.118 -12.753  0.00  0.00    +0.230 C 
ATOM     27  C   UNL     1      36.869 -23.832 -11.327  0.00  0.00    +0.202 C 
ATOM     28  C   UNL     1      35.982 -24.777 -10.876  0.00  0.00    +0.143 C 
ENDBRANCH  23  26
ENDBRANCH  17  18
ENDBRANCH  16  17
ENDBRANCH  10  11
ENDBRANCH   1  10
BRANCH   2  29
ATOM     29  C   UNL     1      35.348 -15.267 -23.542  0.00  0.00    -0.050 C 
BRANCH  29  30
ATOM     30  C   UNL     1      34.383 -14.184 -23.141  0.00  0.00    -0.043 C 
ATOM     31  C   UNL     1      34.253 -13.039 -23.928  0.00  0.00    -0.006 C 
ATOM     32  C   UNL     1      33.620 -14.324 -21.981  0.00  0.00    -0.006 C 
ATOM     33  C   UNL     1      33.359 -12.036 -23.555  0.00  0.00    +0.006 C 
ATOM     34  C   UNL     1      32.727 -13.320 -21.609  0.00  0.00    +0.006 C 
ATOM     35  C   UNL     1      32.595 -12.176 -22.397  0.00  0.00    +0.075 C 
BRANCH  35  37
ATOM     36  O   UNL     1      31.846  -9.917 -22.155  0.00  0.00    -0.245 OA
ATOM     37  C   UNL     1      31.663 -11.130 -22.009  0.00  0.00    +0.338 C 
BRANCH  37  38
ATOM     38  O   UNL     1      30.525 -11.627 -21.451  0.00  0.00    -0.477 OA
ATOM     39  H   UNL     1      29.747 -11.105 -21.430  0.00  0.00    +0.295 HD
ENDBRANCH  37  38
ENDBRANCH  35  37
ENDBRANCH  29  30
ENDBRANCH   2  29
TORSDOF 9
ENDMDL
MODEL 5
REMARK VINA RESULT:     -11.4      3.669      6.323
REMARK  Name = 68488178
REMARK  9 active torsions:
REMARK  status: ('A' for Active; 'I' for Inactive)
REMARK    1  A    between atoms: N_1  and  C_10
REMARK    2  A    between atoms: N_2  and  C_29
REMARK    3  A    between atoms: C_10  and  C_11
REMARK    4  A    between atoms: C_16  and  O_17
REMARK    5  A    between atoms: O_17  and  C_18
REMARK    6  A    between atoms: C_23  and  C_26
REMARK    7  A    between atoms: C_29  and  C_30
REMARK    8  A    between atoms: C_35  and  C_37
REMARK    9  A    between atoms: C_37  and  O_38
REMARK                            x       y       z     vdW  Elec       q    Type
REMARK                         _______ _______ _______ _____ _____    ______ ____
ROOT
ATOM      1  N   UNL     1      35.878 -19.532 -20.682  0.00  0.00    +0.388 N 
ATOM      2  N   UNL     1      34.496 -21.590 -19.375  0.00  0.00    +0.388 N 
ATOM      3  C   UNL     1      34.885 -20.390 -21.373  0.00  0.00    -0.081 C 
ATOM      4  C   UNL     1      35.835 -21.788 -19.985  0.00  0.00    -0.081 C 
ATOM      5  C   UNL     1      35.571 -21.740 -21.479  0.00  0.00    -0.046 C 
ATOM      6  C   UNL     1      36.601 -20.468 -19.784  0.00  0.00    -0.098 C 
ATOM      7  C   UNL     1      33.791 -20.704 -20.336  0.00  0.00    -0.098 C 
ATOM      8  H   UNL     1      35.433 -18.768 -20.173  0.00  0.00    -0.079 HD
ATOM      9  H   UNL     1      34.558 -21.181 -18.442  0.00  0.00    -0.079 HD
ENDROOT
BRANCH   1  10
ATOM     10  C   UNL     1      36.778 -18.856 -21.610  0.00  0.00    -0.050 C 
BRANCH  10  11
ATOM     11  C   UNL     1      36.050 -17.861 -22.473  0.00  0.00    -0.043 C 
ATOM     12  C   UNL     1      35.803 -18.150 -23.815  0.00  0.00    -0.003 C 
ATOM     13  C   UNL     1      35.622 -16.649 -21.930  0.00  0.00    -0.003 C 
ATOM     14  C   UNL     1      35.129 -17.228 -24.615  0.00  0.00    +0.037 C 
ATOM     15  C   UNL     1      34.947 -15.726 -22.730  0.00  0.00    +0.037 C 
ATOM     16  C   UNL     1      34.701 -16.015 -24.073  0.00  0.00    +0.145 C 
BRANCH  16  17
ATOM     17  O   UNL     1      34.044 -15.115 -24.853  0.00  0.00    -0.453 OA
BRANCH  17  18
ATOM     18  C   UNL     1      33.748 -13.879 -24.301  0.00  0.00    +0.145 C 
ATOM     19  C   UNL     1      34.328 -12.725 -24.825  0.00  0.00    +0.038 C 
ATOM     20  C   UNL     1      32.870 -13.791 -23.221  0.00  0.00    +0.038 C 
ATOM     21  C   UNL     1      34.032 -11.481 -24.268  0.00  0.00    +0.008 C 
ATOM     22  C   UNL     1      32.575 -12.547 -22.663  0.00  0.00    +0.008 C 
ATOM     23  C   UNL     1      33.155 -11.391 -23.187  0.00  0.00    +0.054 C 
BRANCH  23  26
ATOM     24  O   UNL     1      33.439  -9.041 -23.221  0.00  0.00    -0.431 OA
ATOM     25  N   UNL     1      32.087  -9.813 -21.581  0.00  0.00    -0.206 NA
ATOM     26  C   UNL     1      32.850 -10.105 -22.609  0.00  0.00    +0.230 C 
ATOM     27  C   UNL     1      32.999  -7.974 -22.498  0.00  0.00    +0.202 C 
ATOM     28  C   UNL     1      32.178  -8.447 -21.505  0.00  0.00    +0.143 C 
ENDBRANCH  23  26
ENDBRANCH  17  18
ENDBRANCH  16  17
ENDBRANCH  10  11
ENDBRANCH   1  10
BRANCH   2  29
ATOM     29  C   UNL     1      33.785 -22.845 -19.161  0.00  0.00    -0.050 C 
BRANCH  29  30
ATOM     30  C   UNL     1      33.444 -23.055 -17.710  0.00  0.00    -0.043 C 
ATOM     31  C   UNL     1      32.123 -22.934 -17.280  0.00  0.00    -0.006 C 
ATOM     32  C   UNL     1      34.450 -23.371 -16.796  0.00  0.00    -0.006 C 
ATOM     33  C   UNL     1      31.808 -23.128 -15.936  0.00  0.00    +0.006 C 
ATOM     34  C   UNL     1      34.134 -23.565 -15.452  0.00  0.00    +0.006 C 
ATOM     35  C   UNL     1      32.813 -23.445 -15.021  0.00  0.00    +0.075 C 
BRANCH  35  37
ATOM     36  O   UNL     1      31.353 -23.870 -13.174  0.00  0.00    -0.245 OA
ATOM     37  C   UNL     1      32.483 -23.648 -13.620  0.00  0.00    +0.338 C 
BRANCH  37  38
ATOM     38  O   UNL     1      33.576 -23.570 -12.812  0.00  0.00    -0.477 OA
ATOM     39  H   UNL     1      34.078 -22.779 -12.777  0.00  0.00    +0.295 HD
ENDBRANCH  37  38
ENDBRANCH  35  37
ENDBRANCH  29  30
ENDBRANCH   2  29
TORSDOF 9
ENDMDL
MODEL 6
REMARK VINA RESULT:     -11.3      4.491      7.597
REMARK  Name = 68488178
REMARK  9 active torsions:
REMARK  status: ('A' for Active; 'I' for Inactive)
REMARK    1  A    between atoms: N_1  and  C_10
REMARK    2  A    between atoms: N_2  and  C_29
REMARK    3  A    between atoms: C_10  and  C_11
REMARK    4  A    between atoms: C_16  and  O_17
REMARK    5  A    between atoms: O_17  and  C_18
REMARK    6  A    between atoms: C_23  and  C_26
REMARK    7  A    between atoms: C_29  and  C_30
REMARK    8  A    between atoms: C_35  and  C_37
REMARK    9  A    between atoms: C_37  and  O_38
REMARK                            x       y       z     vdW  Elec       q    Type
REMARK                         _______ _______ _______ _____ _____    ______ ____
ROOT
ATOM      1  N   UNL     1      35.698 -17.679 -21.688  0.00  0.00    +0.388 N 
ATOM      2  N   UNL     1      35.789 -20.264 -20.612  0.00  0.00    +0.388 N 
ATOM      3  C   UNL     1      34.889 -18.797 -22.230  0.00  0.00    -0.081 C 
ATOM      4  C   UNL     1      36.745 -19.796 -21.644  0.00  0.00    -0.081 C 
ATOM      5  C   UNL     1      35.907 -19.697 -22.907  0.00  0.00    -0.046 C 
ATOM      6  C   UNL     1      37.001 -18.305 -21.352  0.00  0.00    -0.098 C 
ATOM      7  C   UNL     1      34.493 -19.668 -21.024  0.00  0.00    -0.098 C 
ATOM      8  H   UNL     1      35.254 -17.244 -20.878  0.00  0.00    -0.079 HD
ATOM      9  H   UNL     1      36.069 -19.977 -19.673  0.00  0.00    -0.079 HD
ENDROOT
BRANCH   1  10
ATOM     10  C   UNL     1      35.845 -16.581 -22.637  0.00  0.00    -0.050 C 
BRANCH  10  11
ATOM     11  C   UNL     1      34.819 -15.503 -22.411  0.00  0.00    -0.043 C 
ATOM     12  C   UNL     1      34.246 -14.847 -23.501  0.00  0.00    -0.003 C 
ATOM     13  C   UNL     1      34.441 -15.161 -21.113  0.00  0.00    -0.003 C 
ATOM     14  C   UNL     1      33.295 -13.848 -23.293  0.00  0.00    +0.037 C 
ATOM     15  C   UNL     1      33.490 -14.161 -20.904  0.00  0.00    +0.037 C 
ATOM     16  C   UNL     1      32.917 -13.505 -21.994  0.00  0.00    +0.145 C 
BRANCH  16  17
ATOM     17  O   UNL     1      31.990 -12.530 -21.790  0.00  0.00    -0.453 OA
BRANCH  17  18
ATOM     18  C   UNL     1      32.274 -11.261 -22.268  0.00  0.00    +0.145 C 
ATOM     19  C   UNL     1      31.712 -10.143 -21.653  0.00  0.00    +0.038 C 
ATOM     20  C   UNL     1      33.122 -11.103 -23.364  0.00  0.00    +0.038 C 
ATOM     21  C   UNL     1      31.996  -8.866 -22.136  0.00  0.00    +0.008 C 
ATOM     22  C   UNL     1      33.406  -9.825 -23.847  0.00  0.00    +0.008 C 
ATOM     23  C   UNL     1      32.843  -8.706 -23.232  0.00  0.00    +0.054 C 
BRANCH  23  26
ATOM     24  O   UNL     1      34.410  -7.204 -24.178  0.00  0.00    -0.431 OA
ATOM     25  N   UNL     1      32.353  -6.333 -23.818  0.00  0.00    -0.206 NA
ATOM     26  C   UNL     1      33.136  -7.385 -23.732  0.00  0.00    +0.230 C 
ATOM     27  C   UNL     1      34.423  -5.904 -24.584  0.00  0.00    +0.202 C 
ATOM     28  C   UNL     1      33.173  -5.380 -24.365  0.00  0.00    +0.143 C 
ENDBRANCH  23  26
ENDBRANCH  17  18
ENDBRANCH  16  17
ENDBRANCH  10  11
ENDBRANCH   1  10
BRANCH   2  29
ATOM     29  C   UNL     1      35.722 -21.719 -20.527  0.00  0.00    -0.050 C 
BRANCH  29  30
ATOM     30  C   UNL     1      35.399 -22.185 -19.133  0.00  0.00    -0.043 C 
ATOM     31  C   UNL     1      34.147 -22.731 -18.852  0.00  0.00    -0.006 C 
ATOM     32  C   UNL     1      36.352 -22.069 -18.120  0.00  0.00    -0.006 C 
ATOM     33  C   UNL     1      33.848 -23.162 -17.560  0.00  0.00    +0.006 C 
ATOM     34  C   UNL     1      36.053 -22.499 -16.828  0.00  0.00    +0.006 C 
ATOM     35  C   UNL     1      34.801 -23.048 -16.548  0.00  0.00    +0.075 C 
BRANCH  35  37
ATOM     36  O   UNL     1      33.473 -24.116 -14.870  0.00  0.00    -0.245 OA
ATOM     37  C   UNL     1      34.489 -23.497 -15.201  0.00  0.00    +0.338 C 
BRANCH  37  38
ATOM     38  O   UNL     1      35.456 -23.163 -14.304  0.00  0.00    -0.477 OA
ATOM     39  H   UNL     1      35.279 -23.209 -13.384  0.00  0.00    +0.295 HD
ENDBRANCH  37  38
ENDBRANCH  35  37
ENDBRANCH  29  30
ENDBRANCH   2  29
TORSDOF 9
ENDMDL
MODEL 7
REMARK VINA RESULT:     -11.2      5.135      8.452
REMARK  Name = 68488178
REMARK  9 active torsions:
REMARK  status: ('A' for Active; 'I' for Inactive)
REMARK    1  A    between atoms: N_1  and  C_10
REMARK    2  A    between atoms: N_2  and  C_29
REMARK    3  A    between atoms: C_10  and  C_11
REMARK    4  A    between atoms: C_16  and  O_17
REMARK    5  A    between atoms: O_17  and  C_18
REMARK    6  A    between atoms: C_23  and  C_26
REMARK    7  A    between atoms: C_29  and  C_30
REMARK    8  A    between atoms: C_35  and  C_37
REMARK    9  A    between atoms: C_37  and  O_38
REMARK                            x       y       z     vdW  Elec       q    Type
REMARK                         _______ _______ _______ _____ _____    ______ ____
ROOT
ATOM      1  N   UNL     1      34.916 -17.048 -22.434  0.00  0.00    +0.388 N 
ATOM      2  N   UNL     1      35.535 -19.552 -21.340  0.00  0.00    +0.388 N 
ATOM      3  C   UNL     1      35.444 -18.166 -23.252  0.00  0.00    -0.081 C 
ATOM      4  C   UNL     1      36.501 -18.426 -21.354  0.00  0.00    -0.081 C 
ATOM      5  C   UNL     1      36.893 -18.293 -22.815  0.00  0.00    -0.046 C 
ATOM      6  C   UNL     1      35.672 -17.143 -21.160  0.00  0.00    -0.098 C 
ATOM      7  C   UNL     1      34.851 -19.455 -22.655  0.00  0.00    -0.098 C 
ATOM      8  H   UNL     1      33.907 -17.120 -22.295  0.00  0.00    -0.079 HD
ATOM      9  H   UNL     1      34.884 -19.488 -20.557  0.00  0.00    -0.079 HD
ENDROOT
BRANCH   1  10
ATOM     10  C   UNL     1      35.088 -15.751 -23.079  0.00  0.00    -0.050 C 
BRANCH  10  11
ATOM     11  C   UNL     1      34.188 -14.703 -22.479  0.00  0.00    -0.043 C 
ATOM     12  C   UNL     1      33.492 -13.825 -23.310  0.00  0.00    -0.003 C 
ATOM     13  C   UNL     1      34.052 -14.610 -21.094  0.00  0.00    -0.003 C 
ATOM     14  C   UNL     1      32.658 -12.853 -22.756  0.00  0.00    +0.037 C 
ATOM     15  C   UNL     1      33.219 -13.638 -20.539  0.00  0.00    +0.037 C 
ATOM     16  C   UNL     1      32.522 -12.760 -21.370  0.00  0.00    +0.145 C 
BRANCH  16  17
ATOM     17  O   UNL     1      31.710 -11.811 -20.829  0.00  0.00    -0.453 OA
BRANCH  17  18
ATOM     18  C   UNL     1      31.811 -10.520 -21.320  0.00  0.00    +0.145 C 
ATOM     19  C   UNL     1      32.202  -9.482 -20.474  0.00  0.00    +0.038 C 
ATOM     20  C   UNL     1      31.522 -10.258 -22.659  0.00  0.00    +0.038 C 
ATOM     21  C   UNL     1      32.301  -8.181 -20.968  0.00  0.00    +0.008 C 
ATOM     22  C   UNL     1      31.621  -8.958 -23.152  0.00  0.00    +0.008 C 
ATOM     23  C   UNL     1      32.012  -7.918 -22.307  0.00  0.00    +0.054 C 
BRANCH  23  26
ATOM     24  O   UNL     1      31.201  -5.694 -22.320  0.00  0.00    -0.431 OA
ATOM     25  N   UNL     1      32.959  -6.075 -23.690  0.00  0.00    -0.206 NA
ATOM     26  C   UNL     1      32.114  -6.573 -22.817  0.00  0.00    +0.230 C 
ATOM     27  C   UNL     1      31.508  -4.526 -22.950  0.00  0.00    +0.202 C 
ATOM     28  C   UNL     1      32.576  -4.762 -23.779  0.00  0.00    +0.143 C 
ENDBRANCH  23  26
ENDBRANCH  17  18
ENDBRANCH  16  17
ENDBRANCH  10  11
ENDBRANCH   1  10
BRANCH   2  29
ATOM     29  C   UNL     1      36.182 -20.845 -21.152  0.00  0.00    -0.050 C 
BRANCH  29  30
ATOM     30  C   UNL     1      35.717 -21.527 -19.894  0.00  0.00    -0.043 C 
ATOM     31  C   UNL     1      34.400 -21.976 -19.790  0.00  0.00    -0.006 C 
ATOM     32  C   UNL     1      36.602 -21.709 -18.831  0.00  0.00    -0.006 C 
ATOM     33  C   UNL     1      33.970 -22.607 -18.624  0.00  0.00    +0.006 C 
ATOM     34  C   UNL     1      36.171 -22.340 -17.664  0.00  0.00    +0.006 C 
ATOM     35  C   UNL     1      34.854 -22.791 -17.561  0.00  0.00    +0.075 C 
BRANCH  35  37
ATOM     36  O   UNL     1      33.440 -23.101 -15.657  0.00  0.00    -0.245 OA
ATOM     37  C   UNL     1      34.404 -23.449 -16.346  0.00  0.00    +0.338 C 
BRANCH  37  38
ATOM     38  O   UNL     1      35.171 -24.527 -16.023  0.00  0.00    -0.477 OA
ATOM     39  H   UNL     1      35.985 -24.673 -16.466  0.00  0.00    +0.295 HD
ENDBRANCH  37  38
ENDBRANCH  35  37
ENDBRANCH  29  30
ENDBRANCH   2  29
TORSDOF 9
ENDMDL
MODEL 8
REMARK VINA RESULT:     -11.1      5.551     10.376
REMARK  Name = 68488178
REMARK  9 active torsions:
REMARK  status: ('A' for Active; 'I' for Inactive)
REMARK    1  A    between atoms: N_1  and  C_10
REMARK    2  A    between atoms: N_2  and  C_29
REMARK    3  A    between atoms: C_10  and  C_11
REMARK    4  A    between atoms: C_16  and  O_17
REMARK    5  A    between atoms: O_17  and  C_18
REMARK    6  A    between atoms: C_23  and  C_26
REMARK    7  A    between atoms: C_29  and  C_30
REMARK    8  A    between atoms: C_35  and  C_37
REMARK    9  A    between atoms: C_37  and  O_38
REMARK                            x       y       z     vdW  Elec       q    Type
REMARK                         _______ _______ _______ _____ _____    ______ ____
ROOT
ATOM      1  N   UNL     1      33.980 -15.433 -24.334  0.00  0.00    +0.388 N 
ATOM      2  N   UNL     1      35.085 -17.680 -23.077  0.00  0.00    +0.388 N 
ATOM      3  C   UNL     1      34.873 -16.383 -25.040  0.00  0.00    -0.081 C 
ATOM      4  C   UNL     1      35.723 -16.342 -23.026  0.00  0.00    -0.081 C 
ATOM      5  C   UNL     1      36.241 -16.125 -24.436  0.00  0.00    -0.046 C 
ATOM      6  C   UNL     1      34.576 -15.316 -22.980  0.00  0.00    -0.098 C 
ATOM      7  C   UNL     1      34.563 -17.777 -24.463  0.00  0.00    -0.098 C 
ATOM      8  H   UNL     1      33.014 -15.764 -24.309  0.00  0.00    -0.079 HD
ATOM      9  H   UNL     1      34.350 -17.779 -22.375  0.00  0.00    -0.079 HD
ENDROOT
BRANCH   1  10
ATOM     10  C   UNL     1      33.889 -14.143 -25.007  0.00  0.00    -0.050 C 
BRANCH  10  11
ATOM     11  C   UNL     1      33.440 -13.052 -24.071  0.00  0.00    -0.043 C 
ATOM     12  C   UNL     1      33.931 -11.755 -24.226  0.00  0.00    -0.003 C 
ATOM     13  C   UNL     1      32.535 -13.338 -23.049  0.00  0.00    -0.003 C 
ATOM     14  C   UNL     1      33.516 -10.744 -23.359  0.00  0.00    +0.037 C 
ATOM     15  C   UNL     1      32.120 -12.328 -22.182  0.00  0.00    +0.037 C 
ATOM     16  C   UNL     1      32.610 -11.031 -22.337  0.00  0.00    +0.145 C 
BRANCH  16  17
ATOM     17  O   UNL     1      32.205 -10.044 -21.491  0.00  0.00    -0.453 OA
BRANCH  17  18
ATOM     18  C   UNL     1      32.089  -8.763 -22.003  0.00  0.00    +0.145 C 
ATOM     19  C   UNL     1      32.727  -7.698 -21.368  0.00  0.00    +0.038 C 
ATOM     20  C   UNL     1      31.334  -8.538 -23.154  0.00  0.00    +0.038 C 
ATOM     21  C   UNL     1      32.607  -6.407 -21.882  0.00  0.00    +0.008 C 
ATOM     22  C   UNL     1      31.215  -7.247 -23.669  0.00  0.00    +0.008 C 
ATOM     23  C   UNL     1      31.852  -6.181 -23.033  0.00  0.00    +0.054 C 
BRANCH  23  26
ATOM     24  O   UNL     1      32.614  -4.530 -24.549  0.00  0.00    -0.431 OA
ATOM     25  N   UNL     1      30.886  -3.893 -23.237  0.00  0.00    -0.206 NA
ATOM     26  C   UNL     1      31.728  -4.846 -23.565  0.00  0.00    +0.230 C 
ATOM     27  C   UNL     1      32.291  -3.246 -24.868  0.00  0.00    +0.202 C 
ATOM     28  C   UNL     1      31.242  -2.864 -24.070  0.00  0.00    +0.143 C 
ENDBRANCH  23  26
ENDBRANCH  17  18
ENDBRANCH  16  17
ENDBRANCH  10  11
ENDBRANCH   1  10
BRANCH   2  29
ATOM     29  C   UNL     1      36.016 -18.758 -22.764  0.00  0.00    -0.050 C 
BRANCH  29  30
ATOM     30  C   UNL     1      35.456 -19.700 -21.732  0.00  0.00    -0.043 C 
ATOM     31  C   UNL     1      34.074 -19.834 -21.586  0.00  0.00    -0.006 C 
ATOM     32  C   UNL     1      36.317 -20.438 -20.920  0.00  0.00    -0.006 C 
ATOM     33  C   UNL     1      33.556 -20.705 -20.629  0.00  0.00    +0.006 C 
ATOM     34  C   UNL     1      35.799 -21.309 -19.963  0.00  0.00    +0.006 C 
ATOM     35  C   UNL     1      34.417 -21.444 -19.818  0.00  0.00    +0.075 C 
BRANCH  35  37
ATOM     36  O   UNL     1      32.677 -22.578 -18.632  0.00  0.00    -0.245 OA
ATOM     37  C   UNL     1      33.876 -22.353 -18.821  0.00  0.00    +0.338 C 
BRANCH  37  38
ATOM     38  O   UNL     1      34.849 -22.959 -18.086  0.00  0.00    -0.477 OA
ATOM     39  H   UNL     1      35.525 -22.445 -17.688  0.00  0.00    +0.295 HD
ENDBRANCH  37  38
ENDBRANCH  35  37
ENDBRANCH  29  30
ENDBRANCH   2  29
TORSDOF 9
ENDMDL
MODEL 9
REMARK VINA RESULT:     -11.1      3.854      7.025
REMARK  Name = 68488178
REMARK  9 active torsions:
REMARK  status: ('A' for Active; 'I' for Inactive)
REMARK    1  A    between atoms: N_1  and  C_10
REMARK    2  A    between atoms: N_2  and  C_29
REMARK    3  A    between atoms: C_10  and  C_11
REMARK    4  A    between atoms: C_16  and  O_17
REMARK    5  A    between atoms: O_17  and  C_18
REMARK    6  A    between atoms: C_23  and  C_26
REMARK    7  A    between atoms: C_29  and  C_30
REMARK    8  A    between atoms: C_35  and  C_37
REMARK    9  A    between atoms: C_37  and  O_38
REMARK                            x       y       z     vdW  Elec       q    Type
REMARK                         _______ _______ _______ _____ _____    ______ ____
ROOT
ATOM      1  N   UNL     1      33.661 -24.004 -15.357  0.00  0.00    +0.388 N 
ATOM      2  N   UNL     1      30.972 -24.793 -15.340  0.00  0.00    +0.388 N 
ATOM      3  C   UNL     1      32.826 -23.963 -14.133  0.00  0.00    -0.081 C 
ATOM      4  C   UNL     1      31.398 -23.418 -15.698  0.00  0.00    -0.081 C 
ATOM      5  C   UNL     1      31.859 -22.819 -14.382  0.00  0.00    -0.046 C 
ATOM      6  C   UNL     1      32.742 -23.560 -16.436  0.00  0.00    -0.098 C 
ATOM      7  C   UNL     1      31.872 -25.168 -14.220  0.00  0.00    -0.098 C 
ATOM      8  H   UNL     1      34.042 -24.935 -15.528  0.00  0.00    -0.079 HD
ATOM      9  H   UNL     1      31.046 -25.434 -16.131  0.00  0.00    -0.079 HD
ENDROOT
BRANCH   1  10
ATOM     10  C   UNL     1      34.843 -23.156 -15.260  0.00  0.00    -0.050 C 
BRANCH  10  11
ATOM     11  C   UNL     1      35.354 -22.747 -16.615  0.00  0.00    -0.043 C 
ATOM     12  C   UNL     1      34.501 -22.775 -17.719  0.00  0.00    -0.003 C 
ATOM     13  C   UNL     1      36.680 -22.342 -16.767  0.00  0.00    -0.003 C 
ATOM     14  C   UNL     1      34.975 -22.397 -18.976  0.00  0.00    +0.037 C 
ATOM     15  C   UNL     1      37.154 -21.963 -18.024  0.00  0.00    +0.037 C 
ATOM     16  C   UNL     1      36.301 -21.991 -19.128  0.00  0.00    +0.145 C 
BRANCH  16  17
ATOM     17  O   UNL     1      36.764 -21.623 -20.354  0.00  0.00    -0.453 OA
BRANCH  17  18
ATOM     18  C   UNL     1      36.393 -20.378 -20.835  0.00  0.00    +0.145 C 
ATOM     19  C   UNL     1      35.057 -20.117 -21.136  0.00  0.00    +0.038 C 
ATOM     20  C   UNL     1      37.357 -19.386 -21.018  0.00  0.00    +0.038 C 
ATOM     21  C   UNL     1      34.684 -18.864 -21.623  0.00  0.00    +0.008 C 
ATOM     22  C   UNL     1      36.984 -18.134 -21.505  0.00  0.00    +0.008 C 
ATOM     23  C   UNL     1      35.647 -17.872 -21.807  0.00  0.00    +0.054 C 
BRANCH  23  26
ATOM     24  O   UNL     1      34.923 -15.662 -21.361  0.00  0.00    -0.431 OA
ATOM     25  N   UNL     1      35.190 -16.152 -23.553  0.00  0.00    -0.206 NA
ATOM     26  C   UNL     1      35.261 -16.576 -22.311  0.00  0.00    +0.230 C 
ATOM     27  C   UNL     1      34.607 -14.552 -22.085  0.00  0.00    +0.202 C 
ATOM     28  C   UNL     1      34.771 -14.854 -23.414  0.00  0.00    +0.143 C 
ENDBRANCH  23  26
ENDBRANCH  17  18
ENDBRANCH  16  17
ENDBRANCH  10  11
ENDBRANCH   1  10
BRANCH   2  29
ATOM     29  C   UNL     1      29.566 -24.865 -14.962  0.00  0.00    -0.050 C 
BRANCH  29  30
ATOM     30  C   UNL     1      28.704 -23.996 -15.838  0.00  0.00    -0.043 C 
ATOM     31  C   UNL     1      28.055 -22.886 -15.297  0.00  0.00    -0.006 C 
ATOM     32  C   UNL     1      28.554 -24.301 -17.192  0.00  0.00    -0.006 C 
ATOM     33  C   UNL     1      27.257 -22.082 -16.109  0.00  0.00    +0.006 C 
ATOM     34  C   UNL     1      27.756 -23.497 -18.003  0.00  0.00    +0.006 C 
ATOM     35  C   UNL     1      27.107 -22.385 -17.463  0.00  0.00    +0.075 C 
BRANCH  35  37
ATOM     36  O   UNL     1      25.641 -21.930 -19.297  0.00  0.00    -0.245 OA
ATOM     37  C   UNL     1      26.275 -21.546 -18.309  0.00  0.00    +0.338 C 
BRANCH  37  38
ATOM     38  O   UNL     1      26.256 -20.249 -17.897  0.00  0.00    -0.477 OA
ATOM     39  H   UNL     1      27.008 -19.879 -17.478  0.00  0.00    +0.295 HD
ENDBRANCH  37  38
ENDBRANCH  35  37
ENDBRANCH  29  30
ENDBRANCH   2  29
TORSDOF 9
ENDMDL
