MODEL 1
REMARK VINA RESULT:     -12.2      0.000      0.000
REMARK  Name = 5326868
REMARK  6 active torsions:
REMARK  status: ('A' for Active; 'I' for Inactive)
REMARK    1  A    between atoms: C_2  and  C_28
REMARK    2  A    between atoms: C_7  and  N_12
REMARK    3  A    between atoms: C_13  and  C_18
REMARK    4  A    between atoms: C_16  and  N_23
REMARK    5  A    between atoms: C_28  and  C_29
REMARK    6  A    between atoms: C_29  and  C_31
REMARK                            x       y       z     vdW  Elec       q    Type
REMARK                         _______ _______ _______ _____ _____    ______ ____
ROOT
ATOM      1  N   UNL     1      35.369 -16.514 -24.730  0.00  0.00    -0.312 N 
ATOM      2  C   UNL     1      35.087 -15.623 -22.716  0.00  0.00    -0.006 C 
ATOM      3  C   UNL     1      35.145 -17.038 -22.573  0.00  0.00    +0.012 C 
ATOM      4  C   UNL     1      35.321 -17.572 -23.850  0.00  0.00    +0.048 C 
ATOM      5  C   UNL     1      35.228 -15.332 -24.053  0.00  0.00    +0.058 C 
ATOM      6  C   UNL     1      35.062 -17.918 -21.475  0.00  0.00    +0.016 C 
ATOM      7  C   UNL     1      35.160 -19.296 -21.696  0.00  0.00    +0.051 C 
ATOM      8  C   UNL     1      35.421 -18.948 -24.087  0.00  0.00    +0.016 C 
ATOM      9  C   UNL     1      35.337 -19.802 -22.982  0.00  0.00    +0.016 C 
ATOM     10  H   UNL     1      35.487 -16.595 -25.703  0.00  0.00    +0.152 HD
ENDROOT
BRANCH   7  12
ATOM     11  O   UNL     1      32.910 -21.066 -20.803  0.00  0.00    -0.270 OA
ATOM     12  N   UNL     1      35.079 -20.174 -20.613  0.00  0.00    -0.280 N 
ATOM     13  C   UNL     1      33.997 -20.982 -20.239  0.00  0.00    +0.250 C 
ATOM     14  H   UNL     1      35.878 -20.233 -20.043  0.00  0.00    +0.155 HD
BRANCH  13  18
ATOM     15  F   UNL     1      36.929 -23.015 -16.975  0.00  0.00    -0.204 F 
ATOM     16  C   UNL     1      33.298 -23.057 -17.199  0.00  0.00    +0.050 C 
ATOM     17  C   UNL     1      33.102 -22.295 -18.351  0.00  0.00    +0.019 C 
ATOM     18  C   UNL     1      34.204 -21.795 -19.012  0.00  0.00    +0.057 C 
ATOM     19  C   UNL     1      34.590 -23.300 -16.734  0.00  0.00    +0.044 C 
ATOM     20  C   UNL     1      35.492 -22.020 -18.574  0.00  0.00    +0.034 C 
ATOM     21  C   UNL     1      35.688 -22.782 -17.422  0.00  0.00    +0.142 C 
BRANCH  16  23
ATOM     22  O   UNL     1      30.019 -24.409 -14.939  0.00  0.00    -0.350 OA
ATOM     23  N   UNL     1      32.198 -23.575 -16.508  0.00  0.00    -0.303 N 
ATOM     24  C   UNL     1      30.857 -23.034 -16.755  0.00  0.00    +0.123 C 
ATOM     25  C   UNL     1      32.417 -24.110 -15.157  0.00  0.00    +0.123 C 
ATOM     26  C   UNL     1      29.804 -24.039 -16.300  0.00  0.00    +0.164 C 
ATOM     27  C   UNL     1      31.282 -25.059 -14.789  0.00  0.00    +0.164 C 
ENDBRANCH  16  23
ENDBRANCH  13  18
ENDBRANCH   7  12
BRANCH   2  28
ATOM     28  C   UNL     1      34.909 -14.637 -21.631  0.00  0.00    +0.032 C 
BRANCH  28  29
ATOM     29  C   UNL     1      33.541 -14.709 -20.918  0.00  0.00    +0.031 C 
BRANCH  29  31
ATOM     30  N   UNL     1      31.299 -11.066 -21.184  0.00  0.00    -0.242 NA
ATOM     31  C   UNL     1      32.752 -13.427 -21.011  0.00  0.00    -0.019 C 
ATOM     32  C   UNL     1      32.586 -12.819 -22.240  0.00  0.00    +0.016 C 
ATOM     33  C   UNL     1      32.208 -12.878 -19.866  0.00  0.00    +0.016 C 
ATOM     34  C   UNL     1      31.853 -11.644 -22.273  0.00  0.00    +0.099 C 
ATOM     35  C   UNL     1      31.492 -11.699 -20.005  0.00  0.00    +0.099 C 
ENDBRANCH  29  31
ENDBRANCH  28  29
ENDBRANCH   2  28
TORSDOF 6
ENDMDL
MODEL 2
REMARK VINA RESULT:     -12.2      4.289     10.956
REMARK  Name = 5326868
REMARK  6 active torsions:
REMARK  status: ('A' for Active; 'I' for Inactive)
REMARK    1  A    between atoms: C_2  and  C_28
REMARK    2  A    between atoms: C_7  and  N_12
REMARK    3  A    between atoms: C_13  and  C_18
REMARK    4  A    between atoms: C_16  and  N_23
REMARK    5  A    between atoms: C_28  and  C_29
REMARK    6  A    between atoms: C_29  and  C_31
REMARK                            x       y       z     vdW  Elec       q    Type
REMARK                         _______ _______ _______ _____ _____    ______ ____
ROOT
ATOM      1  N   UNL     1      35.573 -17.892 -24.923  0.00  0.00    -0.312 N 
ATOM      2  C   UNL     1      35.917 -17.876 -22.730  0.00  0.00    -0.006 C 
ATOM      3  C   UNL     1      35.246 -16.672 -23.084  0.00  0.00    +0.012 C 
ATOM      4  C   UNL     1      35.043 -16.707 -24.465  0.00  0.00    +0.048 C 
ATOM      5  C   UNL     1      36.103 -18.605 -23.881  0.00  0.00    +0.058 C 
ATOM      6  C   UNL     1      34.792 -15.551 -22.360  0.00  0.00    +0.016 C 
ATOM      7  C   UNL     1      34.153 -14.511 -23.043  0.00  0.00    +0.051 C 
ATOM      8  C   UNL     1      34.405 -15.674 -25.162  0.00  0.00    +0.016 C 
ATOM      9  C   UNL     1      33.962 -14.573 -24.422  0.00  0.00    +0.016 C 
ATOM     10  H   UNL     1      35.571 -18.184 -25.862  0.00  0.00    +0.152 HD
ENDROOT
BRANCH   7  12
ATOM     11  O   UNL     1      31.956 -14.266 -21.016  0.00  0.00    -0.270 OA
ATOM     12  N   UNL     1      33.700 -13.396 -22.333  0.00  0.00    -0.280 N 
ATOM     13  C   UNL     1      32.664 -13.337 -21.393  0.00  0.00    +0.250 C 
ATOM     14  H   UNL     1      34.166 -12.549 -22.516  0.00  0.00    +0.155 HD
BRANCH  13  18
ATOM     15  F   UNL     1      31.958 -10.430 -17.593  0.00  0.00    -0.204 F 
ATOM     16  C   UNL     1      32.009  -9.656 -21.147  0.00  0.00    +0.050 C 
ATOM     17  C   UNL     1      32.257 -10.920 -21.683  0.00  0.00    +0.019 C 
ATOM     18  C   UNL     1      32.397 -11.989 -20.823  0.00  0.00    +0.057 C 
ATOM     19  C   UNL     1      31.908  -9.491 -19.766  0.00  0.00    +0.044 C 
ATOM     20  C   UNL     1      32.303 -11.853 -19.454  0.00  0.00    +0.034 C 
ATOM     21  C   UNL     1      32.055 -10.590 -18.919  0.00  0.00    +0.142 C 
BRANCH  16  23
ATOM     22  O   UNL     1      31.843  -6.299 -23.675  0.00  0.00    -0.350 OA
ATOM     23  N   UNL     1      31.863  -8.553 -21.996  0.00  0.00    -0.303 N 
ATOM     24  C   UNL     1      32.108  -8.700 -23.435  0.00  0.00    +0.123 C 
ATOM     25  C   UNL     1      32.133  -7.217 -21.449  0.00  0.00    +0.123 C 
ATOM     26  C   UNL     1      31.428  -7.564 -24.191  0.00  0.00    +0.164 C 
ATOM     27  C   UNL     1      31.450  -6.160 -22.310  0.00  0.00    +0.164 C 
ENDBRANCH  16  23
ENDBRANCH  13  18
ENDBRANCH   7  12
BRANCH   2  28
ATOM     28  C   UNL     1      36.340 -18.280 -21.374  0.00  0.00    +0.032 C 
BRANCH  28  29
ATOM     29  C   UNL     1      36.627 -19.789 -21.215  0.00  0.00    +0.031 C 
BRANCH  29  31
ATOM     30  N   UNL     1      33.294 -21.988 -19.657  0.00  0.00    -0.242 NA
ATOM     31  C   UNL     1      35.453 -20.563 -20.667  0.00  0.00    -0.019 C 
ATOM     32  C   UNL     1      35.681 -21.667 -19.869  0.00  0.00    +0.016 C 
ATOM     33  C   UNL     1      34.169 -20.157 -20.971  0.00  0.00    +0.016 C 
ATOM     34  C   UNL     1      34.571 -22.344 -19.390  0.00  0.00    +0.099 C 
ATOM     35  C   UNL     1      33.125 -20.901 -20.442  0.00  0.00    +0.099 C 
ENDBRANCH  29  31
ENDBRANCH  28  29
ENDBRANCH   2  28
TORSDOF 6
ENDMDL
MODEL 3
REMARK VINA RESULT:     -12.0      4.794     11.678
REMARK  Name = 5326868
REMARK  6 active torsions:
REMARK  status: ('A' for Active; 'I' for Inactive)
REMARK    1  A    between atoms: C_2  and  C_28
REMARK    2  A    between atoms: C_7  and  N_12
REMARK    3  A    between atoms: C_13  and  C_18
REMARK    4  A    between atoms: C_16  and  N_23
REMARK    5  A    between atoms: C_28  and  C_29
REMARK    6  A    between atoms: C_29  and  C_31
REMARK                            x       y       z     vdW  Elec       q    Type
REMARK                         _______ _______ _______ _____ _____    ______ ____
ROOT
ATOM      1  N   UNL     1      34.955 -17.633 -25.507  0.00  0.00    -0.312 N 
ATOM      2  C   UNL     1      35.392 -17.430 -23.340  0.00  0.00    -0.006 C 
ATOM      3  C   UNL     1      34.799 -16.217 -23.790  0.00  0.00    +0.012 C 
ATOM      4  C   UNL     1      34.535 -16.371 -25.153  0.00  0.00    +0.048 C 
ATOM      5  C   UNL     1      35.475 -18.281 -24.418  0.00  0.00    +0.058 C 
ATOM      6  C   UNL     1      34.461 -14.999 -23.167  0.00  0.00    +0.016 C 
ATOM      7  C   UNL     1      33.872 -13.984 -23.928  0.00  0.00    +0.051 C 
ATOM      8  C   UNL     1      33.947 -15.363 -25.926  0.00  0.00    +0.016 C 
ATOM      9  C   UNL     1      33.619 -14.164 -25.286  0.00  0.00    +0.016 C 
ATOM     10  H   UNL     1      34.892 -18.014 -26.412  0.00  0.00    +0.152 HD
ENDROOT
BRANCH   7  12
ATOM     11  O   UNL     1      31.901 -13.398 -21.745  0.00  0.00    -0.270 OA
ATOM     12  N   UNL     1      33.535 -12.773 -23.318  0.00  0.00    -0.280 N 
ATOM     13  C   UNL     1      32.601 -12.554 -22.297  0.00  0.00    +0.250 C 
ATOM     14  H   UNL     1      34.011 -11.977 -23.646  0.00  0.00    +0.155 HD
BRANCH  13  18
ATOM     15  F   UNL     1      31.461  -9.262 -18.944  0.00  0.00    -0.204 F 
ATOM     16  C   UNL     1      32.582  -8.808 -22.375  0.00  0.00    +0.050 C 
ATOM     17  C   UNL     1      32.729 -10.137 -22.776  0.00  0.00    +0.019 C 
ATOM     18  C   UNL     1      32.443 -11.138 -21.872  0.00  0.00    +0.057 C 
ATOM     19  C   UNL     1      32.153  -8.513 -21.081  0.00  0.00    +0.044 C 
ATOM     20  C   UNL     1      32.019 -10.873 -20.587  0.00  0.00    +0.034 C 
ATOM     21  C   UNL     1      31.871  -9.546 -20.187  0.00  0.00    +0.142 C 
BRANCH  16  23
ATOM     22  O   UNL     1      33.478  -5.886 -25.264  0.00  0.00    -0.350 OA
ATOM     23  N   UNL     1      32.866  -7.772 -23.271  0.00  0.00    -0.303 N 
ATOM     24  C   UNL     1      31.813  -7.261 -24.156  0.00  0.00    +0.123 C 
ATOM     25  C   UNL     1      34.232  -7.668 -23.801  0.00  0.00    +0.123 C 
ATOM     26  C   UNL     1      32.188  -5.869 -24.653  0.00  0.00    +0.164 C 
ATOM     27  C   UNL     1      34.479  -6.254 -24.314  0.00  0.00    +0.164 C 
ENDBRANCH  16  23
ENDBRANCH  13  18
ENDBRANCH   7  12
BRANCH   2  28
ATOM     28  C   UNL     1      35.841 -17.732 -21.966  0.00  0.00    +0.032 C 
BRANCH  28  29
ATOM     29  C   UNL     1      36.488 -19.124 -21.794  0.00  0.00    +0.031 C 
BRANCH  29  31
ATOM     30  N   UNL     1      34.055 -21.855 -19.560  0.00  0.00    -0.242 NA
ATOM     31  C   UNL     1      35.631 -20.085 -21.008  0.00  0.00    -0.019 C 
ATOM     32  C   UNL     1      36.236 -21.041 -20.215  0.00  0.00    +0.016 C 
ATOM     33  C   UNL     1      34.256 -19.996 -21.093  0.00  0.00    +0.016 C 
ATOM     34  C   UNL     1      35.406 -21.900 -19.513  0.00  0.00    +0.099 C 
ATOM     35  C   UNL     1      33.513 -20.901 -20.351  0.00  0.00    +0.099 C 
ENDBRANCH  29  31
ENDBRANCH  28  29
ENDBRANCH   2  28
TORSDOF 6
ENDMDL
MODEL 4
REMARK VINA RESULT:     -11.7      2.377      3.209
REMARK  Name = 5326868
REMARK  6 active torsions:
REMARK  status: ('A' for Active; 'I' for Inactive)
REMARK    1  A    between atoms: C_2  and  C_28
REMARK    2  A    between atoms: C_7  and  N_12
REMARK    3  A    between atoms: C_13  and  C_18
REMARK    4  A    between atoms: C_16  and  N_23
REMARK    5  A    between atoms: C_28  and  C_29
REMARK    6  A    between atoms: C_29  and  C_31
REMARK                            x       y       z     vdW  Elec       q    Type
REMARK                         _______ _______ _______ _____ _____    ______ ____
ROOT
ATOM      1  N   UNL     1      35.519 -16.710 -24.688  0.00  0.00    -0.312 N 
ATOM      2  C   UNL     1      35.165 -15.764 -22.711  0.00  0.00    -0.006 C 
ATOM      3  C   UNL     1      35.147 -17.176 -22.539  0.00  0.00    +0.012 C 
ATOM      4  C   UNL     1      35.371 -17.746 -23.794  0.00  0.00    +0.048 C 
ATOM      5  C   UNL     1      35.396 -15.508 -24.043  0.00  0.00    +0.058 C 
ATOM      6  C   UNL     1      34.959 -18.028 -21.431  0.00  0.00    +0.016 C 
ATOM      7  C   UNL     1      35.004 -19.413 -21.620  0.00  0.00    +0.051 C 
ATOM      8  C   UNL     1      35.418 -19.130 -23.998  0.00  0.00    +0.016 C 
ATOM      9  C   UNL     1      35.230 -19.954 -22.885  0.00  0.00    +0.016 C 
ATOM     10  H   UNL     1      35.688 -16.817 -25.651  0.00  0.00    +0.152 HD
ENDROOT
BRANCH   7  12
ATOM     11  O   UNL     1      36.917 -21.299 -20.288  0.00  0.00    -0.270 OA
ATOM     12  N   UNL     1      34.819 -20.264 -20.528  0.00  0.00    -0.280 N 
ATOM     13  C   UNL     1      35.752 -21.130 -19.943  0.00  0.00    +0.250 C 
ATOM     14  H   UNL     1      33.924 -20.255 -20.121  0.00  0.00    +0.155 HD
BRANCH  13  18
ATOM     15  F   UNL     1      32.136 -23.371 -17.644  0.00  0.00    -0.204 F 
ATOM     16  C   UNL     1      35.649 -23.076 -16.743  0.00  0.00    +0.050 C 
ATOM     17  C   UNL     1      36.126 -22.319 -17.813  0.00  0.00    +0.019 C 
ATOM     18  C   UNL     1      35.244 -21.934 -18.801  0.00  0.00    +0.057 C 
ATOM     19  C   UNL     1      34.301 -23.431 -16.686  0.00  0.00    +0.044 C 
ATOM     20  C   UNL     1      33.907 -22.273 -18.769  0.00  0.00    +0.034 C 
ATOM     21  C   UNL     1      33.430 -23.029 -17.699  0.00  0.00    +0.142 C 
BRANCH  16  23
ATOM     22  O   UNL     1      38.364 -24.028 -13.676  0.00  0.00    -0.350 OA
ATOM     23  N   UNL     1      36.522 -23.480 -15.727  0.00  0.00    -0.303 N 
ATOM     24  C   UNL     1      36.135 -23.317 -14.322  0.00  0.00    +0.123 C 
ATOM     25  C   UNL     1      37.966 -23.417 -15.989  0.00  0.00    +0.123 C 
ATOM     26  C   UNL     1      36.972 -24.244 -13.447  0.00  0.00    +0.164 C 
ATOM     27  C   UNL     1      38.705 -24.340 -15.027  0.00  0.00    +0.164 C 
ENDBRANCH  16  23
ENDBRANCH  13  18
ENDBRANCH   7  12
BRANCH   2  28
ATOM     28  C   UNL     1      34.972 -14.747 -21.658  0.00  0.00    +0.032 C 
BRANCH  28  29
ATOM     29  C   UNL     1      33.605 -14.816 -20.943  0.00  0.00    +0.031 C 
BRANCH  29  31
ATOM     30  N   UNL     1      31.314 -11.214 -21.325  0.00  0.00    -0.242 NA
ATOM     31  C   UNL     1      32.799 -13.548 -21.077  0.00  0.00    -0.019 C 
ATOM     32  C   UNL     1      32.626 -12.982 -22.325  0.00  0.00    +0.016 C 
ATOM     33  C   UNL     1      32.245 -12.971 -19.951  0.00  0.00    +0.016 C 
ATOM     34  C   UNL     1      31.877 -11.818 -22.396  0.00  0.00    +0.099 C 
ATOM     35  C   UNL     1      31.513 -11.808 -20.127  0.00  0.00    +0.099 C 
ENDBRANCH  29  31
ENDBRANCH  28  29
ENDBRANCH   2  28
TORSDOF 6
ENDMDL
MODEL 5
REMARK VINA RESULT:     -10.9      8.554     15.157
REMARK  Name = 5326868
REMARK  6 active torsions:
REMARK  status: ('A' for Active; 'I' for Inactive)
REMARK    1  A    between atoms: C_2  and  C_28
REMARK    2  A    between atoms: C_7  and  N_12
REMARK    3  A    between atoms: C_13  and  C_18
REMARK    4  A    between atoms: C_16  and  N_23
REMARK    5  A    between atoms: C_28  and  C_29
REMARK    6  A    between atoms: C_29  and  C_31
REMARK                            x       y       z     vdW  Elec       q    Type
REMARK                         _______ _______ _______ _____ _____    ______ ____
ROOT
ATOM      1  N   UNL     1      31.949 -12.135 -19.307  0.00  0.00    -0.312 N 
ATOM      2  C   UNL     1      32.359 -12.574 -21.444  0.00  0.00    -0.006 C 
ATOM      3  C   UNL     1      32.267 -11.162 -21.289  0.00  0.00    +0.012 C 
ATOM      4  C   UNL     1      32.009 -10.914 -19.940  0.00  0.00    +0.048 C 
ATOM      5  C   UNL     1      32.158 -13.144 -20.208  0.00  0.00    +0.058 C 
ATOM      6  C   UNL     1      32.378 -10.069 -22.172  0.00  0.00    +0.016 C 
ATOM      7  C   UNL     1      32.229  -8.771 -21.671  0.00  0.00    +0.051 C 
ATOM      8  C   UNL     1      31.857  -9.621 -19.426  0.00  0.00    +0.016 C 
ATOM      9  C   UNL     1      31.972  -8.552 -20.319  0.00  0.00    +0.016 C 
ATOM     10  H   UNL     1      31.779 -12.263 -18.346  0.00  0.00    +0.152 HD
ENDROOT
BRANCH   7  12
ATOM     11  O   UNL     1      34.660  -7.368 -22.725  0.00  0.00    -0.270 OA
ATOM     12  N   UNL     1      32.337  -7.682 -22.539  0.00  0.00    -0.280 N 
ATOM     13  C   UNL     1      33.504  -7.062 -23.001  0.00  0.00    +0.250 C 
ATOM     14  H   UNL     1      31.489  -7.303 -22.865  0.00  0.00    +0.155 HD
BRANCH  13  18
ATOM     15  F   UNL     1      31.048  -3.086 -24.245  0.00  0.00    -0.204 F 
ATOM     16  C   UNL     1      33.950  -4.623 -25.811  0.00  0.00    +0.050 C 
ATOM     17  C   UNL     1      34.148  -5.717 -24.968  0.00  0.00    +0.019 C 
ATOM     18  C   UNL     1      33.293  -5.897 -23.901  0.00  0.00    +0.057 C 
ATOM     19  C   UNL     1      32.903  -3.735 -25.567  0.00  0.00    +0.044 C 
ATOM     20  C   UNL     1      32.251  -5.034 -23.637  0.00  0.00    +0.034 C 
ATOM     21  C   UNL     1      32.052  -3.940 -24.479  0.00  0.00    +0.142 C 
BRANCH  16  23
ATOM     22  O   UNL     1      36.475  -4.266 -29.155  0.00  0.00    -0.350 OA
ATOM     23  N   UNL     1      34.803  -4.416 -26.901  0.00  0.00    -0.303 N 
ATOM     24  C   UNL     1      34.242  -4.099 -28.218  0.00  0.00    +0.123 C 
ATOM     25  C   UNL     1      36.086  -5.131 -26.923  0.00  0.00    +0.123 C 
ATOM     26  C   UNL     1      35.310  -3.444 -29.088  0.00  0.00    +0.164 C 
ATOM     27  C   UNL     1      37.056  -4.420 -27.860  0.00  0.00    +0.164 C 
ENDBRANCH  16  23
ENDBRANCH  13  18
ENDBRANCH   7  12
BRANCH   2  28
ATOM     28  C   UNL     1      32.621 -13.305 -22.700  0.00  0.00    +0.032 C 
BRANCH  28  29
ATOM     29  C   UNL     1      34.074 -13.802 -22.860  0.00  0.00    +0.031 C 
BRANCH  29  31
ATOM     30  N   UNL     1      34.582 -16.510 -26.144  0.00  0.00    -0.242 NA
ATOM     31  C   UNL     1      34.253 -14.755 -24.017  0.00  0.00    -0.019 C 
ATOM     32  C   UNL     1      35.081 -15.851 -23.872  0.00  0.00    +0.016 C 
ATOM     33  C   UNL     1      33.587 -14.517 -25.203  0.00  0.00    +0.016 C 
ATOM     34  C   UNL     1      35.212 -16.696 -24.962  0.00  0.00    +0.099 C 
ATOM     35  C   UNL     1      33.784 -15.422 -26.234  0.00  0.00    +0.099 C 
ENDBRANCH  29  31
ENDBRANCH  28  29
ENDBRANCH   2  28
TORSDOF 6
ENDMDL
MODEL 6
REMARK VINA RESULT:     -10.8      7.765     14.867
REMARK  Name = 5326868
REMARK  6 active torsions:
REMARK  status: ('A' for Active; 'I' for Inactive)
REMARK    1  A    between atoms: C_2  and  C_28
REMARK    2  A    between atoms: C_7  and  N_12
REMARK    3  A    between atoms: C_13  and  C_18
REMARK    4  A    between atoms: C_16  and  N_23
REMARK    5  A    between atoms: C_28  and  C_29
REMARK    6  A    between atoms: C_29  and  C_31
REMARK                            x       y       z     vdW  Elec       q    Type
REMARK                         _______ _______ _______ _____ _____    ______ ____
ROOT
ATOM      1  N   UNL     1      32.367 -13.408 -19.958  0.00  0.00    -0.312 N 
ATOM      2  C   UNL     1      32.736 -13.256 -22.142  0.00  0.00    -0.006 C 
ATOM      3  C   UNL     1      32.425 -11.957 -21.651  0.00  0.00    +0.012 C 
ATOM      4  C   UNL     1      32.197 -12.080 -20.279  0.00  0.00    +0.048 C 
ATOM      5  C   UNL     1      32.693 -14.126 -21.078  0.00  0.00    +0.058 C 
ATOM      6  C   UNL     1      32.313 -10.683 -22.246  0.00  0.00    +0.016 C 
ATOM      7  C   UNL     1      31.980  -9.584 -21.446  0.00  0.00    +0.051 C 
ATOM      8  C   UNL     1      31.863 -10.990 -19.468  0.00  0.00    +0.016 C 
ATOM      9  C   UNL     1      31.759  -9.737 -20.079  0.00  0.00    +0.016 C 
ATOM     10  H   UNL     1      32.269 -13.786 -19.055  0.00  0.00    +0.152 HD
ENDROOT
BRANCH   7  12
ATOM     11  O   UNL     1      34.096  -7.745 -22.509  0.00  0.00    -0.270 OA
ATOM     12  N   UNL     1      31.867  -8.319 -22.028  0.00  0.00    -0.280 N 
ATOM     13  C   UNL     1      32.894  -7.498 -22.510  0.00  0.00    +0.250 C 
ATOM     14  H   UNL     1      30.954  -7.961 -22.108  0.00  0.00    +0.155 HD
BRANCH  13  18
ATOM     15  F   UNL     1      30.193  -3.499 -22.199  0.00  0.00    -0.204 F 
ATOM     16  C   UNL     1      32.601  -4.499 -24.737  0.00  0.00    +0.050 C 
ATOM     17  C   UNL     1      33.011  -5.733 -24.231  0.00  0.00    +0.019 C 
ATOM     18  C   UNL     1      32.457  -6.184 -23.051  0.00  0.00    +0.057 C 
ATOM     19  C   UNL     1      31.650  -3.745 -24.051  0.00  0.00    +0.044 C 
ATOM     20  C   UNL     1      31.516  -5.458 -22.353  0.00  0.00    +0.034 C 
ATOM     21  C   UNL     1      31.106  -4.224 -22.858  0.00  0.00    +0.142 C 
BRANCH  16  23
ATOM     22  O   UNL     1      34.041  -3.189 -28.464  0.00  0.00    -0.350 OA
ATOM     23  N   UNL     1      33.147  -4.018 -25.932  0.00  0.00    -0.303 N 
ATOM     24  C   UNL     1      32.594  -2.809 -26.552  0.00  0.00    +0.123 C 
ATOM     25  C   UNL     1      33.736  -4.987 -26.865  0.00  0.00    +0.123 C 
ATOM     26  C   UNL     1      33.616  -2.211 -27.515  0.00  0.00    +0.164 C 
ATOM     27  C   UNL     1      34.698  -4.274 -27.809  0.00  0.00    +0.164 C 
ENDBRANCH  16  23
ENDBRANCH  13  18
ENDBRANCH   7  12
BRANCH   2  28
ATOM     28  C   UNL     1      33.051 -13.615 -23.539  0.00  0.00    +0.032 C 
BRANCH  28  29
ATOM     29  C   UNL     1      34.537 -13.947 -23.796  0.00  0.00    +0.031 C 
BRANCH  29  31
ATOM     30  N   UNL     1      35.254 -18.129 -24.404  0.00  0.00    -0.242 NA
ATOM     31  C   UNL     1      34.790 -15.419 -24.011  0.00  0.00    -0.019 C 
ATOM     32  C   UNL     1      35.297 -16.179 -22.975  0.00  0.00    +0.016 C 
ATOM     33  C   UNL     1      34.510 -15.985 -25.239  0.00  0.00    +0.016 C 
ATOM     34  C   UNL     1      35.511 -17.526 -23.222  0.00  0.00    +0.099 C 
ATOM     35  C   UNL     1      34.759 -17.341 -25.385  0.00  0.00    +0.099 C 
ENDBRANCH  29  31
ENDBRANCH  28  29
ENDBRANCH   2  28
TORSDOF 6
ENDMDL
MODEL 7
REMARK VINA RESULT:     -10.7      6.150     10.342
REMARK  Name = 5326868
REMARK  6 active torsions:
REMARK  status: ('A' for Active; 'I' for Inactive)
REMARK    1  A    between atoms: C_2  and  C_28
REMARK    2  A    between atoms: C_7  and  N_12
REMARK    3  A    between atoms: C_13  and  C_18
REMARK    4  A    between atoms: C_16  and  N_23
REMARK    5  A    between atoms: C_28  and  C_29
REMARK    6  A    between atoms: C_29  and  C_31
REMARK                            x       y       z     vdW  Elec       q    Type
REMARK                         _______ _______ _______ _____ _____    ______ ____
ROOT
ATOM      1  N   UNL     1      32.147  -6.799 -21.175  0.00  0.00    -0.312 N 
ATOM      2  C   UNL     1      33.406  -6.646 -22.997  0.00  0.00    -0.006 C 
ATOM      3  C   UNL     1      33.075  -8.016 -22.798  0.00  0.00    +0.012 C 
ATOM      4  C   UNL     1      32.286  -8.084 -21.649  0.00  0.00    +0.048 C 
ATOM      5  C   UNL     1      32.821  -5.923 -21.983  0.00  0.00    +0.058 C 
ATOM      6  C   UNL     1      33.375  -9.208 -23.488  0.00  0.00    +0.016 C 
ATOM      7  C   UNL     1      32.872 -10.421 -23.004  0.00  0.00    +0.051 C 
ATOM      8  C   UNL     1      31.777  -9.290 -21.152  0.00  0.00    +0.016 C 
ATOM      9  C   UNL     1      32.085 -10.460 -21.854  0.00  0.00    +0.016 C 
ATOM     10  H   UNL     1      31.638  -6.547 -20.371  0.00  0.00    +0.152 HD
ENDROOT
BRANCH   7  12
ATOM     11  O   UNL     1      33.847 -13.057 -21.960  0.00  0.00    -0.270 OA
ATOM     12  N   UNL     1      33.164 -11.607 -23.681  0.00  0.00    -0.280 N 
ATOM     13  C   UNL     1      33.619 -12.816 -23.142  0.00  0.00    +0.250 C 
ATOM     14  H   UNL     1      33.034 -11.590 -24.656  0.00  0.00    +0.155 HD
BRANCH  13  18
ATOM     15  F   UNL     1      33.647 -14.445 -27.695  0.00  0.00    -0.204 F 
ATOM     16  C   UNL     1      34.569 -16.132 -24.606  0.00  0.00    +0.050 C 
ATOM     17  C   UNL     1      34.333 -15.117 -23.678  0.00  0.00    +0.019 C 
ATOM     18  C   UNL     1      33.869 -13.899 -24.129  0.00  0.00    +0.057 C 
ATOM     19  C   UNL     1      34.337 -15.905 -25.963  0.00  0.00    +0.044 C 
ATOM     20  C   UNL     1      33.633 -13.649 -25.465  0.00  0.00    +0.034 C 
ATOM     21  C   UNL     1      33.868 -14.663 -26.392  0.00  0.00    +0.142 C 
BRANCH  16  23
ATOM     22  O   UNL     1      35.787 -19.872 -23.118  0.00  0.00    -0.350 OA
ATOM     23  N   UNL     1      35.039 -17.378 -24.176  0.00  0.00    -0.303 N 
ATOM     24  C   UNL     1      34.395 -18.607 -24.652  0.00  0.00    +0.123 C 
ATOM     25  C   UNL     1      35.647 -17.466 -22.841  0.00  0.00    +0.123 C 
ATOM     26  C   UNL     1      35.343 -19.788 -24.472  0.00  0.00    +0.164 C 
ATOM     27  C   UNL     1      36.530 -18.706 -22.759  0.00  0.00    +0.164 C 
ENDBRANCH  16  23
ENDBRANCH  13  18
ENDBRANCH   7  12
BRANCH   2  28
ATOM     28  C   UNL     1      34.228  -6.090 -24.090  0.00  0.00    +0.032 C 
BRANCH  28  29
ATOM     29  C   UNL     1      33.430  -5.313 -25.161  0.00  0.00    +0.031 C 
BRANCH  29  31
ATOM     30  N   UNL     1      35.807  -4.161 -28.536  0.00  0.00    -0.242 NA
ATOM     31  C   UNL     1      34.267  -4.907 -26.349  0.00  0.00    -0.019 C 
ATOM     32  C   UNL     1      35.613  -5.215 -26.368  0.00  0.00    +0.016 C 
ATOM     33  C   UNL     1      33.674  -4.234 -27.399  0.00  0.00    +0.016 C 
ATOM     34  C   UNL     1      36.338  -4.821 -27.482  0.00  0.00    +0.099 C 
ATOM     35  C   UNL     1      34.486  -3.884 -28.467  0.00  0.00    +0.099 C 
ENDBRANCH  29  31
ENDBRANCH  28  29
ENDBRANCH   2  28
TORSDOF 6
ENDMDL
MODEL 8
REMARK VINA RESULT:     -10.6      7.186     11.841
REMARK  Name = 5326868
REMARK  6 active torsions:
REMARK  status: ('A' for Active; 'I' for Inactive)
REMARK    1  A    between atoms: C_2  and  C_28
REMARK    2  A    between atoms: C_7  and  N_12
REMARK    3  A    between atoms: C_13  and  C_18
REMARK    4  A    between atoms: C_16  and  N_23
REMARK    5  A    between atoms: C_28  and  C_29
REMARK    6  A    between atoms: C_29  and  C_31
REMARK                            x       y       z     vdW  Elec       q    Type
REMARK                         _______ _______ _______ _____ _____    ______ ____
ROOT
ATOM      1  N   UNL     1      32.120  -4.002 -23.257  0.00  0.00    -0.312 N 
ATOM      2  C   UNL     1      33.039  -5.162 -24.912  0.00  0.00    -0.006 C 
ATOM      3  C   UNL     1      32.757  -6.058 -23.844  0.00  0.00    +0.012 C 
ATOM      4  C   UNL     1      32.182  -5.305 -22.818  0.00  0.00    +0.048 C 
ATOM      5  C   UNL     1      32.637  -3.905 -24.522  0.00  0.00    +0.058 C 
ATOM      6  C   UNL     1      32.938  -7.442 -23.649  0.00  0.00    +0.016 C 
ATOM      7  C   UNL     1      32.536  -8.020 -22.440  0.00  0.00    +0.051 C 
ATOM      8  C   UNL     1      31.775  -5.869 -21.603  0.00  0.00    +0.016 C 
ATOM      9  C   UNL     1      31.963  -7.245 -21.434  0.00  0.00    +0.016 C 
ATOM     10  H   UNL     1      31.758  -3.249 -22.738  0.00  0.00    +0.152 HD
ENDROOT
BRANCH   7  12
ATOM     11  O   UNL     1      30.547 -10.262 -22.528  0.00  0.00    -0.270 OA
ATOM     12  N   UNL     1      32.712  -9.391 -22.240  0.00  0.00    -0.280 N 
ATOM     13  C   UNL     1      31.743 -10.400 -22.292  0.00  0.00    +0.250 C 
ATOM     14  H   UNL     1      33.630  -9.683 -22.036  0.00  0.00    +0.155 HD
BRANCH  13  18
ATOM     15  F   UNL     1      32.493 -14.049 -19.209  0.00  0.00    -0.204 F 
ATOM     16  C   UNL     1      33.247 -13.800 -22.760  0.00  0.00    +0.050 C 
ATOM     17  C   UNL     1      32.785 -12.512 -23.031  0.00  0.00    +0.019 C 
ATOM     18  C   UNL     1      32.237 -11.773 -22.004  0.00  0.00    +0.057 C 
ATOM     19  C   UNL     1      33.148 -14.319 -21.469  0.00  0.00    +0.044 C 
ATOM     20  C   UNL     1      32.127 -12.263 -20.720  0.00  0.00    +0.034 C 
ATOM     21  C   UNL     1      32.589 -13.550 -20.448  0.00  0.00    +0.142 C 
BRANCH  16  23
ATOM     22  O   UNL     1      35.097 -15.906 -25.894  0.00  0.00    -0.350 OA
ATOM     23  N   UNL     1      33.808 -14.572 -23.783  0.00  0.00    -0.303 N 
ATOM     24  C   UNL     1      35.045 -15.322 -23.539  0.00  0.00    +0.123 C 
ATOM     25  C   UNL     1      33.603 -14.137 -25.171  0.00  0.00    +0.123 C 
ATOM     26  C   UNL     1      35.184 -16.436 -24.572  0.00  0.00    +0.164 C 
ATOM     27  C   UNL     1      33.816 -15.315 -26.116  0.00  0.00    +0.164 C 
ENDBRANCH  16  23
ENDBRANCH  13  18
ENDBRANCH   7  12
BRANCH   2  28
ATOM     28  C   UNL     1      33.653  -5.507 -26.210  0.00  0.00    +0.032 C 
BRANCH  28  29
ATOM     29  C   UNL     1      35.198  -5.514 -26.206  0.00  0.00    +0.031 C 
BRANCH  29  31
ATOM     30  N   UNL     1      36.910  -2.301 -28.468  0.00  0.00    -0.242 NA
ATOM     31  C   UNL     1      35.801  -4.383 -27.002  0.00  0.00    -0.019 C 
ATOM     32  C   UNL     1      37.154  -4.391 -27.276  0.00  0.00    +0.016 C 
ATOM     33  C   UNL     1      34.990  -3.356 -27.445  0.00  0.00    +0.016 C 
ATOM     34  C   UNL     1      37.659  -3.330 -28.011  0.00  0.00    +0.099 C 
ATOM     35  C   UNL     1      35.591  -2.341 -28.172  0.00  0.00    +0.099 C 
ENDBRANCH  29  31
ENDBRANCH  28  29
ENDBRANCH   2  28
TORSDOF 6
ENDMDL
MODEL 9
REMARK VINA RESULT:     -10.5      1.409      1.879
REMARK  Name = 5326868
REMARK  6 active torsions:
REMARK  status: ('A' for Active; 'I' for Inactive)
REMARK    1  A    between atoms: C_2  and  C_28
REMARK    2  A    between atoms: C_7  and  N_12
REMARK    3  A    between atoms: C_13  and  C_18
REMARK    4  A    between atoms: C_16  and  N_23
REMARK    5  A    between atoms: C_28  and  C_29
REMARK    6  A    between atoms: C_29  and  C_31
REMARK                            x       y       z     vdW  Elec       q    Type
REMARK                         _______ _______ _______ _____ _____    ______ ____
ROOT
ATOM      1  N   UNL     1      34.995 -17.178 -25.122  0.00  0.00    -0.312 N 
ATOM      2  C   UNL     1      35.027 -15.948 -23.275  0.00  0.00    -0.006 C 
ATOM      3  C   UNL     1      35.154 -17.315 -22.901  0.00  0.00    +0.012 C 
ATOM      4  C   UNL     1      35.131 -18.065 -24.079  0.00  0.00    +0.048 C 
ATOM      5  C   UNL     1      34.931 -15.896 -24.647  0.00  0.00    +0.058 C 
ATOM      6  C   UNL     1      35.286 -17.988 -21.670  0.00  0.00    +0.016 C 
ATOM      7  C   UNL     1      35.391 -19.383 -21.663  0.00  0.00    +0.051 C 
ATOM      8  C   UNL     1      35.235 -19.461 -24.087  0.00  0.00    +0.016 C 
ATOM      9  C   UNL     1      35.366 -20.107 -22.853  0.00  0.00    +0.016 C 
ATOM     10  H   UNL     1      34.951 -17.429 -26.073  0.00  0.00    +0.152 HD
ENDROOT
BRANCH   7  12
ATOM     11  O   UNL     1      36.291 -22.185 -21.090  0.00  0.00    -0.270 OA
ATOM     12  N   UNL     1      35.521 -20.058 -20.447  0.00  0.00    -0.280 N 
ATOM     13  C   UNL     1      35.948 -21.375 -20.235  0.00  0.00    +0.250 C 
ATOM     14  H   UNL     1      35.284 -19.545 -19.641  0.00  0.00    +0.155 HD
BRANCH  13  18
ATOM     15  F   UNL     1      38.245 -22.012 -16.027  0.00  0.00    -0.204 F 
ATOM     16  C   UNL     1      34.802 -22.752 -16.944  0.00  0.00    +0.050 C 
ATOM     17  C   UNL     1      34.796 -22.335 -18.275  0.00  0.00    +0.019 C 
ATOM     18  C   UNL     1      35.955 -21.821 -18.816  0.00  0.00    +0.057 C 
ATOM     19  C   UNL     1      35.967 -22.643 -16.185  0.00  0.00    +0.044 C 
ATOM     20  C   UNL     1      37.119 -21.701 -18.087  0.00  0.00    +0.034 C 
ATOM     21  C   UNL     1      37.127 -22.117 -16.757  0.00  0.00    +0.142 C 
BRANCH  16  23
ATOM     22  O   UNL     1      31.320 -24.537 -15.404  0.00  0.00    -0.350 OA
ATOM     23  N   UNL     1      33.640 -23.278 -16.369  0.00  0.00    -0.303 N 
ATOM     24  C   UNL     1      33.738 -24.336 -15.358  0.00  0.00    +0.123 C 
ATOM     25  C   UNL     1      32.415 -23.298 -17.179  0.00  0.00    +0.123 C 
ATOM     26  C   UNL     1      32.450 -24.392 -14.545  0.00  0.00    +0.164 C 
ATOM     27  C   UNL     1      31.197 -23.407 -16.268  0.00  0.00    +0.164 C 
ENDBRANCH  16  23
ENDBRANCH  13  18
ENDBRANCH   7  12
BRANCH   2  28
ATOM     28  C   UNL     1      35.001 -14.786 -22.363  0.00  0.00    +0.032 C 
BRANCH  28  29
ATOM     29  C   UNL     1      33.588 -14.239 -22.063  0.00  0.00    +0.031 C 
BRANCH  29  31
ATOM     30  N   UNL     1      32.943 -10.290 -23.601  0.00  0.00    -0.242 NA
ATOM     31  C   UNL     1      33.361 -12.849 -22.604  0.00  0.00    -0.019 C 
ATOM     32  C   UNL     1      34.081 -12.421 -23.703  0.00  0.00    +0.016 C 
ATOM     33  C   UNL     1      32.437 -12.023 -21.993  0.00  0.00    +0.016 C 
ATOM     34  C   UNL     1      33.836 -11.137 -24.162  0.00  0.00    +0.099 C 
ATOM     35  C   UNL     1      32.265 -10.756 -22.528  0.00  0.00    +0.099 C 
ENDBRANCH  29  31
ENDBRANCH  28  29
ENDBRANCH   2  28
TORSDOF 6
ENDMDL
