MODEL 1
REMARK VINA RESULT:     -11.2      0.000      0.000
REMARK  Name = 15942672
REMARK  5 active torsions:
REMARK  status: ('A' for Active; 'I' for Inactive)
REMARK    1  A    between atoms: N_2  and  C_7
REMARK    2  A    between atoms: N_3  and  C_17
REMARK    3  A    between atoms: C_8  and  C_16
REMARK    4  A    between atoms: C_18  and  O_23
REMARK    5  A    between atoms: O_23  and  C_25
REMARK                            x       y       z     vdW  Elec       q    Type
REMARK                         _______ _______ _______ _____ _____    ______ ____
ROOT
ATOM      1  O   UNL     1      35.723 -22.381 -19.256  0.00  0.00    -0.252 OA
ATOM      2  N   UNL     1      37.064 -21.660 -17.475  0.00  0.00    -0.268 N 
ATOM      3  N   UNL     1      36.892 -20.358 -19.376  0.00  0.00    -0.268 N 
ATOM      4  C   UNL     1      36.479 -21.551 -18.760  0.00  0.00    +0.308 C 
ATOM      5  H   UNL     1      37.651 -20.916 -17.209  0.00  0.00    +0.156 HD
ATOM      6  H   UNL     1      37.502 -19.791 -18.852  0.00  0.00    +0.156 HD
ENDROOT
BRANCH   2   7
ATOM      7  C   UNL     1      36.919 -22.682 -16.536  0.00  0.00    +0.052 C 
ATOM      8  C   UNL     1      37.890 -24.426 -15.176  0.00  0.00    +0.073 C 
ATOM      9  C   UNL     1      38.035 -23.404 -16.115  0.00  0.00    +0.019 C 
ATOM     10  C   UNL     1      35.658 -22.981 -16.020  0.00  0.00    +0.015 C 
ATOM     11  C   UNL     1      36.628 -24.725 -14.660  0.00  0.00    +0.004 C 
ATOM     12  C   UNL     1      35.513 -24.002 -15.082  0.00  0.00    +0.001 C 
BRANCH   8  16
ATOM     13  F   UNL     1      39.389 -25.012 -13.407  0.00  0.00    -0.166 F 
ATOM     14  F   UNL     1      38.945 -26.550 -14.869  0.00  0.00    -0.166 F 
ATOM     15  F   UNL     1      40.213 -24.871 -15.414  0.00  0.00    -0.166 F 
ATOM     16  C   UNL     1      39.082 -25.199 -14.724  0.00  0.00    +0.419 C 
ENDBRANCH   8  16
ENDBRANCH   2   7
BRANCH   3  17
ATOM     17  C   UNL     1      36.540 -19.871 -20.656  0.00  0.00    +0.052 C 
ATOM     18  C   UNL     1      35.848 -18.917 -23.163  0.00  0.00    +0.145 C 
ATOM     19  C   UNL     1      37.464 -19.137 -21.380  0.00  0.00    +0.018 C 
ATOM     20  C   UNL     1      35.276 -20.138 -21.159  0.00  0.00    +0.018 C 
ATOM     21  C   UNL     1      37.115 -18.656 -22.643  0.00  0.00    +0.039 C 
ATOM     22  C   UNL     1      34.928 -19.658 -22.422  0.00  0.00    +0.039 C 
BRANCH  18  23
ATOM     23  O   UNL     1      35.509 -18.450 -24.396  0.00  0.00    -0.453 OA
BRANCH  23  25
ATOM     24  N   UNL     1      34.156 -14.531 -24.672  0.00  0.00    -0.242 NA
ATOM     25  C   UNL     1      35.057 -17.145 -24.488  0.00  0.00    +0.148 C 
ATOM     26  C   UNL     1      34.370 -16.747 -25.615  0.00  0.00    +0.058 C 
ATOM     27  C   UNL     1      35.304 -16.271 -23.451  0.00  0.00    +0.058 C 
ATOM     28  C   UNL     1      33.940 -15.430 -25.659  0.00  0.00    +0.102 C 
ATOM     29  C   UNL     1      34.834 -14.976 -23.592  0.00  0.00    +0.102 C 
ENDBRANCH  23  25
ENDBRANCH  18  23
ENDBRANCH   3  17
TORSDOF 5
ENDMDL
MODEL 2
REMARK VINA RESULT:     -10.8      5.092     10.773
REMARK  Name = 15942672
REMARK  5 active torsions:
REMARK  status: ('A' for Active; 'I' for Inactive)
REMARK    1  A    between atoms: N_2  and  C_7
REMARK    2  A    between atoms: N_3  and  C_17
REMARK    3  A    between atoms: C_8  and  C_16
REMARK    4  A    between atoms: C_18  and  O_23
REMARK    5  A    between atoms: O_23  and  C_25
REMARK                            x       y       z     vdW  Elec       q    Type
REMARK                         _______ _______ _______ _____ _____    ______ ____
ROOT
ATOM      1  O   UNL     1      34.337 -20.366 -20.520  0.00  0.00    -0.252 OA
ATOM      2  N   UNL     1      36.210 -19.700 -21.760  0.00  0.00    -0.268 N 
ATOM      3  N   UNL     1      36.499 -20.915 -19.817  0.00  0.00    -0.268 N 
ATOM      4  C   UNL     1      35.554 -20.334 -20.677  0.00  0.00    +0.308 C 
ATOM      5  H   UNL     1      37.194 -19.755 -21.754  0.00  0.00    +0.156 HD
ATOM      6  H   UNL     1      37.442 -20.806 -20.075  0.00  0.00    +0.156 HD
ENDROOT
BRANCH   2   7
ATOM      7  C   UNL     1      35.649 -19.007 -22.833  0.00  0.00    +0.052 C 
ATOM      8  C   UNL     1      34.999 -16.922 -23.866  0.00  0.00    +0.073 C 
ATOM      9  C   UNL     1      35.560 -17.615 -22.793  0.00  0.00    +0.019 C 
ATOM     10  C   UNL     1      35.177 -19.705 -23.944  0.00  0.00    +0.015 C 
ATOM     11  C   UNL     1      34.528 -17.621 -24.978  0.00  0.00    +0.004 C 
ATOM     12  C   UNL     1      34.616 -19.012 -25.016  0.00  0.00    +0.001 C 
BRANCH   8  16
ATOM     13  F   UNL     1      33.646 -14.959 -24.059  0.00  0.00    -0.166 F 
ATOM     14  F   UNL     1      35.273 -14.895 -22.627  0.00  0.00    -0.166 F 
ATOM     15  F   UNL     1      35.701 -14.833 -24.758  0.00  0.00    -0.166 F 
ATOM     16  C   UNL     1      34.905 -15.434 -23.827  0.00  0.00    +0.419 C 
ENDBRANCH   8  16
ENDBRANCH   2   7
BRANCH   3  17
ATOM     17  C   UNL     1      36.263 -21.639 -18.624  0.00  0.00    +0.052 C 
ATOM     18  C   UNL     1      35.802 -23.056 -16.289  0.00  0.00    +0.145 C 
ATOM     19  C   UNL     1      35.058 -22.300 -18.460  0.00  0.00    +0.018 C 
ATOM     20  C   UNL     1      37.243 -21.671 -17.646  0.00  0.00    +0.018 C 
ATOM     21  C   UNL     1      34.825 -23.014 -17.283  0.00  0.00    +0.039 C 
ATOM     22  C   UNL     1      37.012 -22.385 -16.470  0.00  0.00    +0.039 C 
BRANCH  18  23
ATOM     23  O   UNL     1      35.577 -23.754 -15.142  0.00  0.00    -0.453 OA
BRANCH  23  25
ATOM     24  N   UNL     1      38.343 -26.664 -14.072  0.00  0.00    -0.242 NA
ATOM     25  C   UNL     1      36.499 -24.723 -14.787  0.00  0.00    +0.148 C 
ATOM     26  C   UNL     1      36.467 -25.949 -15.419  0.00  0.00    +0.058 C 
ATOM     27  C   UNL     1      37.429 -24.443 -13.809  0.00  0.00    +0.058 C 
ATOM     28  C   UNL     1      37.410 -26.885 -15.025  0.00  0.00    +0.102 C 
ATOM     29  C   UNL     1      38.328 -25.446 -13.487  0.00  0.00    +0.102 C 
ENDBRANCH  23  25
ENDBRANCH  18  23
ENDBRANCH   3  17
TORSDOF 5
ENDMDL
MODEL 3
REMARK VINA RESULT:     -10.8      1.909      2.745
REMARK  Name = 15942672
REMARK  5 active torsions:
REMARK  status: ('A' for Active; 'I' for Inactive)
REMARK    1  A    between atoms: N_2  and  C_7
REMARK    2  A    between atoms: N_3  and  C_17
REMARK    3  A    between atoms: C_8  and  C_16
REMARK    4  A    between atoms: C_18  and  O_23
REMARK    5  A    between atoms: O_23  and  C_25
REMARK                            x       y       z     vdW  Elec       q    Type
REMARK                         _______ _______ _______ _____ _____    ______ ____
ROOT
ATOM      1  O   UNL     1      35.753 -22.245 -19.244  0.00  0.00    -0.252 OA
ATOM      2  N   UNL     1      37.181 -21.508 -17.538  0.00  0.00    -0.268 N 
ATOM      3  N   UNL     1      36.963 -20.256 -19.467  0.00  0.00    -0.268 N 
ATOM      4  C   UNL     1      36.548 -21.420 -18.802  0.00  0.00    +0.308 C 
ATOM      5  H   UNL     1      37.796 -20.771 -17.318  0.00  0.00    +0.156 HD
ATOM      6  H   UNL     1      37.607 -19.690 -18.984  0.00  0.00    +0.156 HD
ENDROOT
BRANCH   2   7
ATOM      7  C   UNL     1      37.050 -22.500 -16.565  0.00  0.00    +0.052 C 
ATOM      8  C   UNL     1      35.669 -23.762 -15.038  0.00  0.00    +0.073 C 
ATOM      9  C   UNL     1      35.800 -22.771 -16.010  0.00  0.00    +0.019 C 
ATOM     10  C   UNL     1      38.169 -23.220 -16.149  0.00  0.00    +0.015 C 
ATOM     11  C   UNL     1      36.789 -24.483 -14.621  0.00  0.00    +0.004 C 
ATOM     12  C   UNL     1      38.039 -24.211 -15.177  0.00  0.00    +0.001 C 
BRANCH   8  16
ATOM     13  F   UNL     1      33.359 -23.178 -14.828  0.00  0.00    -0.166 F 
ATOM     14  F   UNL     1      33.849 -25.290 -14.766  0.00  0.00    -0.166 F 
ATOM     15  F   UNL     1      34.345 -24.012 -13.079  0.00  0.00    -0.166 F 
ATOM     16  C   UNL     1      34.332 -24.054 -14.443  0.00  0.00    +0.419 C 
ENDBRANCH   8  16
ENDBRANCH   2   7
BRANCH   3  17
ATOM     17  C   UNL     1      36.571 -19.796 -20.746  0.00  0.00    +0.052 C 
ATOM     18  C   UNL     1      35.804 -18.895 -23.251  0.00  0.00    +0.145 C 
ATOM     19  C   UNL     1      35.286 -20.052 -21.194  0.00  0.00    +0.018 C 
ATOM     20  C   UNL     1      37.481 -19.099 -21.524  0.00  0.00    +0.018 C 
ATOM     21  C   UNL     1      34.900 -19.598 -22.456  0.00  0.00    +0.039 C 
ATOM     22  C   UNL     1      37.095 -18.644 -22.785  0.00  0.00    +0.039 C 
BRANCH  18  23
ATOM     23  O   UNL     1      35.427 -18.450 -24.481  0.00  0.00    -0.453 OA
BRANCH  23  25
ATOM     24  N   UNL     1      34.116 -14.519 -24.796  0.00  0.00    -0.242 NA
ATOM     25  C   UNL     1      34.992 -17.140 -24.586  0.00  0.00    +0.148 C 
ATOM     26  C   UNL     1      35.277 -16.251 -23.570  0.00  0.00    +0.058 C 
ATOM     27  C   UNL     1      34.282 -16.754 -25.702  0.00  0.00    +0.058 C 
ATOM     28  C   UNL     1      34.817 -14.953 -23.723  0.00  0.00    +0.102 C 
ATOM     29  C   UNL     1      33.866 -15.433 -25.759  0.00  0.00    +0.102 C 
ENDBRANCH  23  25
ENDBRANCH  18  23
ENDBRANCH   3  17
TORSDOF 5
ENDMDL
MODEL 4
REMARK VINA RESULT:     -10.7      7.081     11.094
REMARK  Name = 15942672
REMARK  5 active torsions:
REMARK  status: ('A' for Active; 'I' for Inactive)
REMARK    1  A    between atoms: N_2  and  C_7
REMARK    2  A    between atoms: N_3  and  C_17
REMARK    3  A    between atoms: C_8  and  C_16
REMARK    4  A    between atoms: C_18  and  O_23
REMARK    5  A    between atoms: O_23  and  C_25
REMARK                            x       y       z     vdW  Elec       q    Type
REMARK                         _______ _______ _______ _____ _____    ______ ____
ROOT
ATOM      1  O   UNL     1      34.536 -13.252 -22.924  0.00  0.00    -0.252 OA
ATOM      2  N   UNL     1      34.228 -14.138 -25.070  0.00  0.00    -0.268 N 
ATOM      3  N   UNL     1      34.010 -11.863 -24.730  0.00  0.00    -0.268 N 
ATOM      4  C   UNL     1      34.284 -13.094 -24.114  0.00  0.00    +0.308 C 
ATOM      5  H   UNL     1      34.013 -13.861 -25.991  0.00  0.00    +0.156 HD
ATOM      6  H   UNL     1      33.825 -11.896 -25.697  0.00  0.00    +0.156 HD
ENDROOT
BRANCH   2   7
ATOM      7  C   UNL     1      34.435 -15.504 -24.881  0.00  0.00    +0.052 C 
ATOM      8  C   UNL     1      35.232 -17.330 -23.515  0.00  0.00    +0.073 C 
ATOM      9  C   UNL     1      35.025 -15.963 -23.704  0.00  0.00    +0.019 C 
ATOM     10  C   UNL     1      34.052 -16.410 -25.870  0.00  0.00    +0.015 C 
ATOM     11  C   UNL     1      34.849 -18.237 -24.504  0.00  0.00    +0.004 C 
ATOM     12  C   UNL     1      34.260 -17.777 -25.681  0.00  0.00    +0.001 C 
BRANCH   8  16
ATOM     13  F   UNL     1      37.194 -18.093 -22.379  0.00  0.00    -0.166 F 
ATOM     14  F   UNL     1      35.771 -16.941 -21.218  0.00  0.00    -0.166 F 
ATOM     15  F   UNL     1      35.294 -18.980 -21.804  0.00  0.00    -0.166 F 
ATOM     16  C   UNL     1      35.862 -17.823 -22.256  0.00  0.00    +0.419 C 
ENDBRANCH   8  16
ENDBRANCH   2   7
BRANCH   3  17
ATOM     17  C   UNL     1      33.966 -10.581 -24.134  0.00  0.00    +0.052 C 
ATOM     18  C   UNL     1      33.879  -8.070 -22.966  0.00  0.00    +0.145 C 
ATOM     19  C   UNL     1      34.984  -9.679 -24.391  0.00  0.00    +0.018 C 
ATOM     20  C   UNL     1      32.905 -10.255 -23.305  0.00  0.00    +0.018 C 
ATOM     21  C   UNL     1      34.940  -8.414 -23.802  0.00  0.00    +0.039 C 
ATOM     22  C   UNL     1      32.860  -8.991 -22.718  0.00  0.00    +0.039 C 
BRANCH  18  23
ATOM     23  O   UNL     1      33.834  -6.837 -22.394  0.00  0.00    -0.453 OA
BRANCH  23  25
ATOM     24  N   UNL     1      30.853  -4.232 -23.656  0.00  0.00    -0.242 NA
ATOM     25  C   UNL     1      32.841  -5.968 -22.813  0.00  0.00    +0.148 C 
ATOM     26  C   UNL     1      31.750  -5.748 -22.000  0.00  0.00    +0.058 C 
ATOM     27  C   UNL     1      32.965  -5.344 -24.036  0.00  0.00    +0.058 C 
ATOM     28  C   UNL     1      30.783  -4.871 -22.467  0.00  0.00    +0.102 C 
ATOM     29  C   UNL     1      31.944  -4.486 -24.412  0.00  0.00    +0.102 C 
ENDBRANCH  23  25
ENDBRANCH  18  23
ENDBRANCH   3  17
TORSDOF 5
ENDMDL
MODEL 5
REMARK VINA RESULT:     -10.7      2.925      4.009
REMARK  Name = 15942672
REMARK  5 active torsions:
REMARK  status: ('A' for Active; 'I' for Inactive)
REMARK    1  A    between atoms: N_2  and  C_7
REMARK    2  A    between atoms: N_3  and  C_17
REMARK    3  A    between atoms: C_8  and  C_16
REMARK    4  A    between atoms: C_18  and  O_23
REMARK    5  A    between atoms: O_23  and  C_25
REMARK                            x       y       z     vdW  Elec       q    Type
REMARK                         _______ _______ _______ _____ _____    ______ ____
ROOT
ATOM      1  O   UNL     1      34.335 -19.887 -20.876  0.00  0.00    -0.252 OA
ATOM      2  N   UNL     1      36.475 -20.672 -20.331  0.00  0.00    -0.268 N 
ATOM      3  N   UNL     1      36.168 -19.432 -22.256  0.00  0.00    -0.268 N 
ATOM      4  C   UNL     1      35.532 -19.983 -21.133  0.00  0.00    +0.308 C 
ATOM      5  H   UNL     1      37.402 -20.666 -20.664  0.00  0.00    +0.156 HD
ATOM      6  H   UNL     1      37.136 -19.594 -22.327  0.00  0.00    +0.156 HD
ENDROOT
BRANCH   2   7
ATOM      7  C   UNL     1      36.265 -21.359 -19.136  0.00  0.00    +0.052 C 
ATOM      8  C   UNL     1      34.864 -22.742 -17.735  0.00  0.00    +0.073 C 
ATOM      9  C   UNL     1      35.073 -22.055 -18.931  0.00  0.00    +0.019 C 
ATOM     10  C   UNL     1      37.246 -21.349 -18.145  0.00  0.00    +0.015 C 
ATOM     11  C   UNL     1      35.846 -22.732 -16.744  0.00  0.00    +0.004 C 
ATOM     12  C   UNL     1      37.036 -22.036 -16.949  0.00  0.00    +0.001 C 
BRANCH   8  16
ATOM     13  F   UNL     1      33.465 -23.997 -16.256  0.00  0.00    -0.166 F 
ATOM     14  F   UNL     1      32.472 -22.726 -17.705  0.00  0.00    -0.166 F 
ATOM     15  F   UNL     1      33.455 -24.553 -18.358  0.00  0.00    -0.166 F 
ATOM     16  C   UNL     1      33.591 -23.487 -17.516  0.00  0.00    +0.419 C 
ENDBRANCH   8  16
ENDBRANCH   2   7
BRANCH   3  17
ATOM     17  C   UNL     1      35.589 -18.672 -23.300  0.00  0.00    +0.052 C 
ATOM     18  C   UNL     1      34.455 -17.184 -25.343  0.00  0.00    +0.145 C 
ATOM     19  C   UNL     1      35.833 -17.310 -23.362  0.00  0.00    +0.018 C 
ATOM     20  C   UNL     1      34.790 -19.306 -24.237  0.00  0.00    +0.018 C 
ATOM     21  C   UNL     1      35.261 -16.561 -24.392  0.00  0.00    +0.039 C 
ATOM     22  C   UNL     1      34.219 -18.557 -25.267  0.00  0.00    +0.039 C 
BRANCH  18  23
ATOM     23  O   UNL     1      33.900 -16.455 -26.349  0.00  0.00    -0.453 OA
BRANCH  23  25
ATOM     24  N   UNL     1      33.738 -12.330 -25.876  0.00  0.00    -0.242 NA
ATOM     25  C   UNL     1      33.844 -15.080 -26.192  0.00  0.00    +0.148 C 
ATOM     26  C   UNL     1      33.822 -14.274 -27.311  0.00  0.00    +0.058 C 
ATOM     27  C   UNL     1      33.814 -14.548 -24.921  0.00  0.00    +0.058 C 
ATOM     28  C   UNL     1      33.768 -12.905 -27.099  0.00  0.00    +0.102 C 
ATOM     29  C   UNL     1      33.762 -13.168 -24.817  0.00  0.00    +0.102 C 
ENDBRANCH  23  25
ENDBRANCH  18  23
ENDBRANCH   3  17
TORSDOF 5
ENDMDL
MODEL 6
REMARK VINA RESULT:     -10.6      2.206      3.313
REMARK  Name = 15942672
REMARK  5 active torsions:
REMARK  status: ('A' for Active; 'I' for Inactive)
REMARK    1  A    between atoms: N_2  and  C_7
REMARK    2  A    between atoms: N_3  and  C_17
REMARK    3  A    between atoms: C_8  and  C_16
REMARK    4  A    between atoms: C_18  and  O_23
REMARK    5  A    between atoms: O_23  and  C_25
REMARK                            x       y       z     vdW  Elec       q    Type
REMARK                         _______ _______ _______ _____ _____    ______ ____
ROOT
ATOM      1  O   UNL     1      33.691 -20.103 -21.073  0.00  0.00    -0.252 OA
ATOM      2  N   UNL     1      35.691 -21.089 -20.355  0.00  0.00    -0.268 N 
ATOM      3  N   UNL     1      35.688 -19.748 -22.236  0.00  0.00    -0.268 N 
ATOM      4  C   UNL     1      34.895 -20.290 -21.212  0.00  0.00    +0.308 C 
ATOM      5  H   UNL     1      36.645 -21.148 -20.592  0.00  0.00    +0.156 HD
ATOM      6  H   UNL     1      36.642 -19.989 -22.217  0.00  0.00    +0.156 HD
ENDROOT
BRANCH   2   7
ATOM      7  C   UNL     1      35.303 -21.805 -19.223  0.00  0.00    +0.052 C 
ATOM      8  C   UNL     1      35.806 -22.688 -17.031  0.00  0.00    +0.073 C 
ATOM      9  C   UNL     1      36.195 -21.972 -18.164  0.00  0.00    +0.019 C 
ATOM     10  C   UNL     1      34.023 -22.353 -19.150  0.00  0.00    +0.015 C 
ATOM     11  C   UNL     1      34.525 -23.236 -16.959  0.00  0.00    +0.004 C 
ATOM     12  C   UNL     1      33.634 -23.069 -18.018  0.00  0.00    +0.001 C 
BRANCH   8  16
ATOM     13  F   UNL     1      36.177 -22.743 -14.669  0.00  0.00    -0.166 F 
ATOM     14  F   UNL     1      37.367 -24.089 -15.883  0.00  0.00    -0.166 F 
ATOM     15  F   UNL     1      37.773 -21.953 -15.916  0.00  0.00    -0.166 F 
ATOM     16  C   UNL     1      36.758 -22.866 -15.897  0.00  0.00    +0.419 C 
ENDBRANCH   8  16
ENDBRANCH   2   7
BRANCH   3  17
ATOM     17  C   UNL     1      35.285 -18.898 -23.294  0.00  0.00    +0.052 C 
ATOM     18  C   UNL     1      34.494 -17.236 -25.364  0.00  0.00    +0.145 C 
ATOM     19  C   UNL     1      35.721 -17.585 -23.312  0.00  0.00    +0.018 C 
ATOM     20  C   UNL     1      34.461 -19.399 -24.289  0.00  0.00    +0.018 C 
ATOM     21  C   UNL     1      35.323 -16.747 -24.355  0.00  0.00    +0.039 C 
ATOM     22  C   UNL     1      34.063 -18.563 -25.332  0.00  0.00    +0.039 C 
BRANCH  18  23
ATOM     23  O   UNL     1      34.108 -16.421 -26.382  0.00  0.00    -0.453 OA
BRANCH  23  25
ATOM     24  N   UNL     1      33.706 -12.366 -25.568  0.00  0.00    -0.242 NA
ATOM     25  C   UNL     1      33.975 -15.069 -26.110  0.00  0.00    +0.148 C 
ATOM     26  C   UNL     1      33.927 -14.647 -24.798  0.00  0.00    +0.058 C 
ATOM     27  C   UNL     1      33.892 -14.177 -27.157  0.00  0.00    +0.058 C 
ATOM     28  C   UNL     1      33.792 -13.285 -24.580  0.00  0.00    +0.102 C 
ATOM     29  C   UNL     1      33.758 -12.837 -26.833  0.00  0.00    +0.102 C 
ENDBRANCH  23  25
ENDBRANCH  18  23
ENDBRANCH   3  17
TORSDOF 5
ENDMDL
MODEL 7
REMARK VINA RESULT:     -10.5      7.699     12.345
REMARK  Name = 15942672
REMARK  5 active torsions:
REMARK  status: ('A' for Active; 'I' for Inactive)
REMARK    1  A    between atoms: N_2  and  C_7
REMARK    2  A    between atoms: N_3  and  C_17
REMARK    3  A    between atoms: C_8  and  C_16
REMARK    4  A    between atoms: C_18  and  O_23
REMARK    5  A    between atoms: O_23  and  C_25
REMARK                            x       y       z     vdW  Elec       q    Type
REMARK                         _______ _______ _______ _____ _____    ______ ____
ROOT
ATOM      1  O   UNL     1      33.802 -13.657 -21.819  0.00  0.00    -0.252 OA
ATOM      2  N   UNL     1      34.010 -12.434 -23.807  0.00  0.00    -0.268 N 
ATOM      3  N   UNL     1      34.777 -14.611 -23.719  0.00  0.00    -0.268 N 
ATOM      4  C   UNL     1      34.161 -13.581 -22.991  0.00  0.00    +0.308 C 
ATOM      5  H   UNL     1      34.346 -12.519 -24.728  0.00  0.00    +0.156 HD
ATOM      6  H   UNL     1      35.008 -14.401 -24.652  0.00  0.00    +0.156 HD
ENDROOT
BRANCH   2   7
ATOM      7  C   UNL     1      33.451 -11.199 -23.478  0.00  0.00    +0.052 C 
ATOM      8  C   UNL     1      33.562  -8.785 -23.477  0.00  0.00    +0.073 C 
ATOM      9  C   UNL     1      34.122 -10.020 -23.806  0.00  0.00    +0.019 C 
ATOM     10  C   UNL     1      32.222 -11.143 -22.822  0.00  0.00    +0.015 C 
ATOM     11  C   UNL     1      32.332  -8.729 -22.821  0.00  0.00    +0.004 C 
ATOM     12  C   UNL     1      31.663  -9.907 -22.493  0.00  0.00    +0.001 C 
BRANCH   8  16
ATOM     13  F   UNL     1      35.125  -7.653 -24.890  0.00  0.00    -0.166 F 
ATOM     14  F   UNL     1      33.442  -6.497 -24.160  0.00  0.00    -0.166 F 
ATOM     15  F   UNL     1      35.046  -7.054 -22.802  0.00  0.00    -0.166 F 
ATOM     16  C   UNL     1      34.278  -7.524 -23.828  0.00  0.00    +0.419 C 
ENDBRANCH   8  16
ENDBRANCH   2   7
BRANCH   3  17
ATOM     17  C   UNL     1      35.107 -15.914 -23.277  0.00  0.00    +0.052 C 
ATOM     18  C   UNL     1      35.754 -18.465 -22.411  0.00  0.00    +0.145 C 
ATOM     19  C   UNL     1      35.215 -16.937 -24.204  0.00  0.00    +0.018 C 
ATOM     20  C   UNL     1      35.316 -16.139 -21.926  0.00  0.00    +0.018 C 
ATOM     21  C   UNL     1      35.541 -18.222 -23.767  0.00  0.00    +0.039 C 
ATOM     22  C   UNL     1      35.643 -17.423 -21.490  0.00  0.00    +0.039 C 
BRANCH  18  23
ATOM     23  O   UNL     1      36.074 -19.717 -21.986  0.00  0.00    -0.453 OA
BRANCH  23  25
ATOM     24  N   UNL     1      33.381 -21.654 -19.484  0.00  0.00    -0.242 NA
ATOM     25  C   UNL     1      35.178 -20.362 -21.151  0.00  0.00    +0.148 C 
ATOM     26  C   UNL     1      35.646 -21.293 -20.248  0.00  0.00    +0.058 C 
ATOM     27  C   UNL     1      33.836 -20.060 -21.242  0.00  0.00    +0.058 C 
ATOM     28  C   UNL     1      34.708 -21.911 -19.437  0.00  0.00    +0.102 C 
ATOM     29  C   UNL     1      32.979 -20.734 -20.387  0.00  0.00    +0.102 C 
ENDBRANCH  23  25
ENDBRANCH  18  23
ENDBRANCH   3  17
TORSDOF 5
ENDMDL
MODEL 8
REMARK VINA RESULT:     -10.5      7.400     12.208
REMARK  Name = 15942672
REMARK  5 active torsions:
REMARK  status: ('A' for Active; 'I' for Inactive)
REMARK    1  A    between atoms: N_2  and  C_7
REMARK    2  A    between atoms: N_3  and  C_17
REMARK    3  A    between atoms: C_8  and  C_16
REMARK    4  A    between atoms: C_18  and  O_23
REMARK    5  A    between atoms: O_23  and  C_25
REMARK                            x       y       z     vdW  Elec       q    Type
REMARK                         _______ _______ _______ _____ _____    ______ ____
ROOT
ATOM      1  O   UNL     1      35.184 -13.401 -22.354  0.00  0.00    -0.252 OA
ATOM      2  N   UNL     1      34.282 -12.617 -24.369  0.00  0.00    -0.268 N 
ATOM      3  N   UNL     1      34.657 -14.879 -24.088  0.00  0.00    -0.268 N 
ATOM      4  C   UNL     1      34.755 -13.616 -23.483  0.00  0.00    +0.308 C 
ATOM      5  H   UNL     1      33.968 -12.939 -25.245  0.00  0.00    +0.156 HD
ATOM      6  H   UNL     1      34.291 -14.893 -25.001  0.00  0.00    +0.156 HD
ENDROOT
BRANCH   2   7
ATOM      7  C   UNL     1      34.205 -11.239 -24.166  0.00  0.00    +0.052 C 
ATOM      8  C   UNL     1      33.046  -9.317 -23.272  0.00  0.00    +0.073 C 
ATOM      9  C   UNL     1      33.123 -10.695 -23.475  0.00  0.00    +0.019 C 
ATOM     10  C   UNL     1      35.211 -10.405 -24.655  0.00  0.00    +0.015 C 
ATOM     11  C   UNL     1      34.052  -8.483 -23.761  0.00  0.00    +0.004 C 
ATOM     12  C   UNL     1      35.134  -9.027 -24.453  0.00  0.00    +0.001 C 
BRANCH   8  16
ATOM     13  F   UNL     1      31.298  -9.607 -21.665  0.00  0.00    -0.166 F 
ATOM     14  F   UNL     1      32.218  -7.646 -21.775  0.00  0.00    -0.166 F 
ATOM     15  F   UNL     1      30.892  -8.314 -23.365  0.00  0.00    -0.166 F 
ATOM     16  C   UNL     1      31.889  -8.734 -22.532  0.00  0.00    +0.419 C 
ENDBRANCH   8  16
ENDBRANCH   2   7
BRANCH   3  17
ATOM     17  C   UNL     1      35.020 -16.135 -23.546  0.00  0.00    +0.052 C 
ATOM     18  C   UNL     1      35.730 -18.593 -22.485  0.00  0.00    +0.145 C 
ATOM     19  C   UNL     1      35.151 -17.224 -24.390  0.00  0.00    +0.018 C 
ATOM     20  C   UNL     1      35.237 -16.248 -22.183  0.00  0.00    +0.018 C 
ATOM     21  C   UNL     1      35.508 -18.463 -23.856  0.00  0.00    +0.039 C 
ATOM     22  C   UNL     1      35.595 -17.485 -21.648  0.00  0.00    +0.039 C 
BRANCH  18  23
ATOM     23  O   UNL     1      36.081 -19.800 -21.964  0.00  0.00    -0.453 OA
BRANCH  23  25
ATOM     24  N   UNL     1      33.374 -21.670 -19.425  0.00  0.00    -0.242 NA
ATOM     25  C   UNL     1      35.179 -20.424 -21.119  0.00  0.00    +0.148 C 
ATOM     26  C   UNL     1      33.840 -20.105 -21.209  0.00  0.00    +0.058 C 
ATOM     27  C   UNL     1      35.639 -21.348 -20.206  0.00  0.00    +0.058 C 
ATOM     28  C   UNL     1      32.978 -20.756 -20.340  0.00  0.00    +0.102 C 
ATOM     29  C   UNL     1      34.697 -21.942 -19.382  0.00  0.00    +0.102 C 
ENDBRANCH  23  25
ENDBRANCH  18  23
ENDBRANCH   3  17
TORSDOF 5
ENDMDL
MODEL 9
REMARK VINA RESULT:     -10.5      5.486     10.492
REMARK  Name = 15942672
REMARK  5 active torsions:
REMARK  status: ('A' for Active; 'I' for Inactive)
REMARK    1  A    between atoms: N_2  and  C_7
REMARK    2  A    between atoms: N_3  and  C_17
REMARK    3  A    between atoms: C_8  and  C_16
REMARK    4  A    between atoms: C_18  and  O_23
REMARK    5  A    between atoms: O_23  and  C_25
REMARK                            x       y       z     vdW  Elec       q    Type
REMARK                         _______ _______ _______ _____ _____    ______ ____
ROOT
ATOM      1  O   UNL     1      33.997 -19.528 -21.285  0.00  0.00    -0.252 OA
ATOM      2  N   UNL     1      35.985 -18.647 -22.156  0.00  0.00    -0.268 N 
ATOM      3  N   UNL     1      36.076 -20.291 -20.536  0.00  0.00    -0.268 N 
ATOM      4  C   UNL     1      35.223 -19.496 -21.317  0.00  0.00    +0.308 C 
ATOM      5  H   UNL     1      36.963 -18.731 -22.073  0.00  0.00    +0.156 HD
ATOM      6  H   UNL     1      37.041 -20.152 -20.673  0.00  0.00    +0.156 HD
ENDROOT
BRANCH   2   7
ATOM      7  C   UNL     1      35.535 -17.705 -23.082  0.00  0.00    +0.052 C 
ATOM      8  C   UNL     1      34.793 -15.464 -23.595  0.00  0.00    +0.073 C 
ATOM      9  C   UNL     1      35.243 -16.406 -22.669  0.00  0.00    +0.019 C 
ATOM     10  C   UNL     1      35.377 -18.065 -24.420  0.00  0.00    +0.015 C 
ATOM     11  C   UNL     1      34.636 -15.824 -24.934  0.00  0.00    +0.004 C 
ATOM     12  C   UNL     1      34.927 -17.123 -25.346  0.00  0.00    +0.001 C 
BRANCH   8  16
ATOM     13  F   UNL     1      35.061 -13.732 -21.967  0.00  0.00    -0.166 F 
ATOM     14  F   UNL     1      34.889 -13.117 -24.040  0.00  0.00    -0.166 F 
ATOM     15  F   UNL     1      33.143 -13.866 -22.982  0.00  0.00    -0.166 F 
ATOM     16  C   UNL     1      34.481 -14.074 -23.155  0.00  0.00    +0.419 C 
ENDBRANCH   8  16
ENDBRANCH   2   7
BRANCH   3  17
ATOM     17  C   UNL     1      35.721 -21.267 -19.575  0.00  0.00    +0.052 C 
ATOM     18  C   UNL     1      35.027 -23.176 -17.691  0.00  0.00    +0.145 C 
ATOM     19  C   UNL     1      34.578 -22.023 -19.767  0.00  0.00    +0.018 C 
ATOM     20  C   UNL     1      36.526 -21.444 -18.461  0.00  0.00    +0.018 C 
ATOM     21  C   UNL     1      34.228 -22.985 -18.818  0.00  0.00    +0.039 C 
ATOM     22  C   UNL     1      36.177 -22.406 -17.512  0.00  0.00    +0.039 C 
BRANCH  18  23
ATOM     23  O   UNL     1      34.688 -24.115 -16.767  0.00  0.00    -0.453 OA
BRANCH  23  25
ATOM     24  N   UNL     1      31.583 -23.222 -14.153  0.00  0.00    -0.242 NA
ATOM     25  C   UNL     1      33.654 -23.816 -15.895  0.00  0.00    +0.148 C 
ATOM     26  C   UNL     1      33.795 -24.111 -14.555  0.00  0.00    +0.058 C 
ATOM     27  C   UNL     1      32.507 -23.232 -16.386  0.00  0.00    +0.058 C 
ATOM     28  C   UNL     1      32.731 -23.794 -13.726  0.00  0.00    +0.102 C 
ATOM     29  C   UNL     1      31.501 -22.956 -15.475  0.00  0.00    +0.102 C 
ENDBRANCH  23  25
ENDBRANCH  18  23
ENDBRANCH   3  17
TORSDOF 5
ENDMDL
