MODEL 1
REMARK VINA RESULT:     -11.6      0.000      0.000
REMARK  Name = 16122642
REMARK  7 active torsions:
REMARK  status: ('A' for Active; 'I' for Inactive)
REMARK    1  A    between atoms: C_2  and  C_10
REMARK    2  A    between atoms: C_3  and  O_18
REMARK    3  A    between atoms: O_18  and  C_19
REMARK    4  A    between atoms: C_19  and  C_20
REMARK    5  A    between atoms: C_20  and  N_21
REMARK    6  A    between atoms: C_20  and  C_25
REMARK    7  A    between atoms: C_25  and  C_27
REMARK                            x       y       z     vdW  Elec       q    Type
REMARK                         _______ _______ _______ _____ _____    ______ ____
ROOT
ATOM      1  N   UNL     1      33.954 -16.015 -26.319  0.00  0.00    -0.239 NA
ATOM      2  C   UNL     1      34.103 -14.321 -24.609  0.00  0.00    +0.022 C 
ATOM      3  C   UNL     1      35.243 -16.411 -24.312  0.00  0.00    +0.158 C 
ATOM      4  C   UNL     1      34.911 -15.145 -23.841  0.00  0.00    +0.040 C 
ATOM      5  C   UNL     1      33.653 -14.792 -25.828  0.00  0.00    +0.099 C 
ATOM      6  C   UNL     1      34.744 -16.794 -25.547  0.00  0.00    +0.136 C 
ENDROOT
BRANCH   2  10
ATOM      7  N   UNL     1      31.935  -9.763 -21.752  0.00  0.00    -0.280 N 
ATOM      8  N   UNL     1      32.672  -9.295 -22.778  0.00  0.00    -0.173 NA
ATOM      9  C   UNL     1      32.657 -11.565 -22.697  0.00  0.00    +0.032 A 
ATOM     10  C   UNL     1      33.739 -12.994 -24.145  0.00  0.00    +0.002 C 
ATOM     11  C   UNL     1      33.141 -10.396 -23.391  0.00  0.00    +0.102 A 
ATOM     12  C   UNL     1      32.911 -12.894 -23.009  0.00  0.00    +0.003 C 
ATOM     13  C   UNL     1      31.891 -11.123 -21.655  0.00  0.00    +0.053 A 
ATOM     14  C   UNL     1      34.244 -11.868 -24.868  0.00  0.00    +0.002 C 
ATOM     15  C   UNL     1      33.967 -10.527 -24.523  0.00  0.00    +0.021 C 
ATOM     16  C   UNL     1      31.133 -11.806 -20.593  0.00  0.00    +0.051 C 
ATOM     17  H   UNL     1      31.465  -9.171 -21.123  0.00  0.00    +0.189 HD
ENDBRANCH   2  10
BRANCH   3  18
ATOM     18  O   UNL     1      36.031 -17.241 -23.587  0.00  0.00    -0.476 OA
BRANCH  18  19
ATOM     19  C   UNL     1      35.570 -17.612 -22.286  0.00  0.00    +0.184 C 
BRANCH  19  20
ATOM     20  C   UNL     1      35.227 -19.107 -22.249  0.00  0.00    -0.017 C 
BRANCH  20  21
ATOM     21  N   UNL     1      35.340 -19.640 -23.609  0.00  0.00    +0.384 N 
ATOM     22  H   UNL     1      35.656 -20.608 -23.570  0.00  0.00    -0.089 HD
ATOM     23  H   UNL     1      36.013 -19.084 -24.137  0.00  0.00    -0.089 HD
ATOM     24  H   UNL     1      34.430 -19.597 -24.068  0.00  0.00    -0.089 HD
ENDBRANCH  20  21
BRANCH  20  25
ATOM     25  C   UNL     1      36.163 -19.921 -21.331  0.00  0.00    +0.008 C 
BRANCH  25  27
ATOM     26 BR   UNL     1      33.263 -23.591 -17.306  0.00  0.00    -0.049 Br
ATOM     27  C   UNL     1      35.455 -20.818 -20.345  0.00  0.00    -0.024 C 
ATOM     28  C   UNL     1      36.197 -21.520 -19.408  0.00  0.00    -0.004 C 
ATOM     29  C   UNL     1      34.075 -20.925 -20.397  0.00  0.00    -0.004 C 
ATOM     30  C   UNL     1      35.541 -22.349 -18.499  0.00  0.00    +0.006 C 
ATOM     31  C   UNL     1      33.419 -21.754 -19.487  0.00  0.00    +0.006 C 
ATOM     32  C   UNL     1      34.152 -22.466 -18.538  0.00  0.00    +0.035 C 
ENDBRANCH  25  27
ENDBRANCH  20  25
ENDBRANCH  19  20
ENDBRANCH  18  19
ENDBRANCH   3  18
TORSDOF 7
ENDMDL
MODEL 2
REMARK VINA RESULT:     -11.4      5.752     12.083
REMARK  Name = 16122642
REMARK  7 active torsions:
REMARK  status: ('A' for Active; 'I' for Inactive)
REMARK    1  A    between atoms: C_2  and  C_10
REMARK    2  A    between atoms: C_3  and  O_18
REMARK    3  A    between atoms: O_18  and  C_19
REMARK    4  A    between atoms: C_19  and  C_20
REMARK    5  A    between atoms: C_20  and  N_21
REMARK    6  A    between atoms: C_20  and  C_25
REMARK    7  A    between atoms: C_25  and  C_27
REMARK                            x       y       z     vdW  Elec       q    Type
REMARK                         _______ _______ _______ _____ _____    ______ ____
ROOT
ATOM      1  N   UNL     1      31.823 -23.357 -15.658  0.00  0.00    -0.239 NA
ATOM      2  C   UNL     1      34.230 -23.498 -15.670  0.00  0.00    +0.022 C 
ATOM      3  C   UNL     1      33.059 -22.986 -17.702  0.00  0.00    +0.158 C 
ATOM      4  C   UNL     1      34.255 -23.205 -17.026  0.00  0.00    +0.040 C 
ATOM      5  C   UNL     1      33.005 -23.562 -15.034  0.00  0.00    +0.099 C 
ATOM      6  C   UNL     1      31.881 -23.073 -16.978  0.00  0.00    +0.136 C 
ENDROOT
BRANCH   2  10
ATOM      7  N   UNL     1      38.256 -24.508 -11.620  0.00  0.00    -0.280 N 
ATOM      8  N   UNL     1      38.884 -24.389 -12.806  0.00  0.00    -0.173 NA
ATOM      9  C   UNL     1      36.635 -24.139 -12.996  0.00  0.00    +0.032 A 
ATOM     10  C   UNL     1      35.461 -23.730 -14.938  0.00  0.00    +0.002 C 
ATOM     11  C   UNL     1      37.899 -24.159 -13.692  0.00  0.00    +0.102 A 
ATOM     12  C   UNL     1      35.376 -23.933 -13.546  0.00  0.00    +0.003 C 
ATOM     13  C   UNL     1      36.900 -24.366 -11.676  0.00  0.00    +0.053 A 
ATOM     14  C   UNL     1      36.688 -23.739 -15.672  0.00  0.00    +0.002 C 
ATOM     15  C   UNL     1      37.953 -23.953 -15.083  0.00  0.00    +0.021 C 
ATOM     16  C   UNL     1      36.055 -24.466 -10.474  0.00  0.00    +0.051 C 
ATOM     17  H   UNL     1      38.738 -24.682 -10.780  0.00  0.00    +0.189 HD
ENDBRANCH   2  10
BRANCH   3  18
ATOM     18  O   UNL     1      33.048 -22.698 -19.026  0.00  0.00    -0.476 OA
BRANCH  18  19
ATOM     19  C   UNL     1      34.290 -22.320 -19.625  0.00  0.00    +0.184 C 
BRANCH  19  20
ATOM     20  C   UNL     1      34.067 -21.196 -20.644  0.00  0.00    -0.017 C 
BRANCH  20  21
ATOM     21  N   UNL     1      32.877 -20.439 -20.245  0.00  0.00    +0.384 N 
ATOM     22  H   UNL     1      33.138 -19.474 -20.048  0.00  0.00    -0.089 HD
ATOM     23  H   UNL     1      32.473 -20.859 -19.408  0.00  0.00    -0.089 HD
ATOM     24  H   UNL     1      32.192 -20.459 -21.000  0.00  0.00    -0.089 HD
ENDBRANCH  20  21
BRANCH  20  25
ATOM     25  C   UNL     1      35.256 -20.215 -20.735  0.00  0.00    +0.008 C 
BRANCH  25  27
ATOM     26 BR   UNL     1      35.047 -16.362 -25.550  0.00  0.00    -0.049 Br
ATOM     27  C   UNL     1      35.206 -19.272 -21.913  0.00  0.00    -0.024 C 
ATOM     28  C   UNL     1      35.615 -17.958 -21.749  0.00  0.00    -0.004 C 
ATOM     29  C   UNL     1      34.750 -19.738 -23.135  0.00  0.00    -0.004 C 
ATOM     30  C   UNL     1      35.568 -17.087 -22.838  0.00  0.00    +0.006 C 
ATOM     31  C   UNL     1      34.703 -18.867 -24.223  0.00  0.00    +0.006 C 
ATOM     32  C   UNL     1      35.112 -17.542 -24.075  0.00  0.00    +0.035 C 
ENDBRANCH  25  27
ENDBRANCH  20  25
ENDBRANCH  19  20
ENDBRANCH  18  19
ENDBRANCH   3  18
TORSDOF 7
ENDMDL
MODEL 3
REMARK VINA RESULT:     -11.2      1.261      2.107
REMARK  Name = 16122642
REMARK  7 active torsions:
REMARK  status: ('A' for Active; 'I' for Inactive)
REMARK    1  A    between atoms: C_2  and  C_10
REMARK    2  A    between atoms: C_3  and  O_18
REMARK    3  A    between atoms: O_18  and  C_19
REMARK    4  A    between atoms: C_19  and  C_20
REMARK    5  A    between atoms: C_20  and  N_21
REMARK    6  A    between atoms: C_20  and  C_25
REMARK    7  A    between atoms: C_25  and  C_27
REMARK                            x       y       z     vdW  Elec       q    Type
REMARK                         _______ _______ _______ _____ _____    ______ ____
ROOT
ATOM      1  N   UNL     1      33.525 -14.432 -25.761  0.00  0.00    -0.239 NA
ATOM      2  C   UNL     1      33.476 -14.023 -23.385  0.00  0.00    +0.022 C 
ATOM      3  C   UNL     1      34.822 -15.808 -24.256  0.00  0.00    +0.158 C 
ATOM      4  C   UNL     1      34.355 -15.074 -23.171  0.00  0.00    +0.040 C 
ATOM      5  C   UNL     1      33.093 -13.740 -24.682  0.00  0.00    +0.099 C 
ATOM      6  C   UNL     1      34.380 -15.450 -25.519  0.00  0.00    +0.136 C 
ENDROOT
BRANCH   2  10
ATOM      7  N   UNL     1      31.524  -9.817 -19.901  0.00  0.00    -0.280 N 
ATOM      8  N   UNL     1      31.555 -10.961 -19.190  0.00  0.00    -0.173 NA
ATOM      9  C   UNL     1      32.263 -11.258 -21.328  0.00  0.00    +0.032 A 
ATOM     10  C   UNL     1      32.973 -13.237 -22.273  0.00  0.00    +0.002 C 
ATOM     11  C   UNL     1      32.013 -11.885 -20.052  0.00  0.00    +0.102 A 
ATOM     12  C   UNL     1      32.741 -11.864 -22.483  0.00  0.00    +0.003 C 
ATOM     13  C   UNL     1      31.940  -9.938 -21.195  0.00  0.00    +0.053 A 
ATOM     14  C   UNL     1      32.741 -13.905 -21.030  0.00  0.00    +0.002 C 
ATOM     15  C   UNL     1      32.254 -13.260 -19.872  0.00  0.00    +0.021 C 
ATOM     16  C   UNL     1      31.969  -8.789 -22.116  0.00  0.00    +0.051 C 
ATOM     17  H   UNL     1      31.225  -8.962 -19.518  0.00  0.00    +0.189 HD
ENDBRANCH   2  10
BRANCH   3  18
ATOM     18  O   UNL     1      35.682 -16.842 -24.082  0.00  0.00    -0.476 OA
BRANCH  18  19
ATOM     19  C   UNL     1      35.874 -17.317 -22.748  0.00  0.00    +0.184 C 
BRANCH  19  20
ATOM     20  C   UNL     1      35.322 -18.742 -22.607  0.00  0.00    -0.017 C 
BRANCH  20  21
ATOM     21  N   UNL     1      35.172 -19.313 -23.948  0.00  0.00    +0.384 N 
ATOM     22  H   UNL     1      34.284 -19.811 -24.008  0.00  0.00    -0.089 HD
ATOM     23  H   UNL     1      35.938 -19.962 -24.129  0.00  0.00    -0.089 HD
ATOM     24  H   UNL     1      35.189 -18.564 -24.641  0.00  0.00    -0.089 HD
ENDBRANCH  20  21
BRANCH  20  25
ATOM     25  C   UNL     1      36.242 -19.670 -21.786  0.00  0.00    +0.008 C 
BRANCH  25  27
ATOM     26 BR   UNL     1      33.304 -23.249 -17.707  0.00  0.00    -0.049 Br
ATOM     27  C   UNL     1      35.524 -20.545 -20.787  0.00  0.00    -0.024 C 
ATOM     28  C   UNL     1      36.263 -21.336 -19.921  0.00  0.00    -0.004 C 
ATOM     29  C   UNL     1      34.139 -20.543 -20.756  0.00  0.00    -0.004 C 
ATOM     30  C   UNL     1      35.598 -22.145 -18.999  0.00  0.00    +0.006 C 
ATOM     31  C   UNL     1      33.475 -21.352 -19.835  0.00  0.00    +0.006 C 
ATOM     32  C   UNL     1      34.204 -22.152 -18.956  0.00  0.00    +0.035 C 
ENDBRANCH  25  27
ENDBRANCH  20  25
ENDBRANCH  19  20
ENDBRANCH  18  19
ENDBRANCH   3  18
TORSDOF 7
ENDMDL
MODEL 4
REMARK VINA RESULT:     -11.1      0.790      1.991
REMARK  Name = 16122642
REMARK  7 active torsions:
REMARK  status: ('A' for Active; 'I' for Inactive)
REMARK    1  A    between atoms: C_2  and  C_10
REMARK    2  A    between atoms: C_3  and  O_18
REMARK    3  A    between atoms: O_18  and  C_19
REMARK    4  A    between atoms: C_19  and  C_20
REMARK    5  A    between atoms: C_20  and  N_21
REMARK    6  A    between atoms: C_20  and  C_25
REMARK    7  A    between atoms: C_25  and  C_27
REMARK                            x       y       z     vdW  Elec       q    Type
REMARK                         _______ _______ _______ _____ _____    ______ ____
ROOT
ATOM      1  N   UNL     1      33.978 -15.112 -26.264  0.00  0.00    -0.239 NA
ATOM      2  C   UNL     1      33.832 -13.830 -24.227  0.00  0.00    +0.022 C 
ATOM      3  C   UNL     1      35.128 -15.849 -24.269  0.00  0.00    +0.158 C 
ATOM      4  C   UNL     1      34.645 -14.744 -23.575  0.00  0.00    +0.040 C 
ATOM      5  C   UNL     1      33.529 -14.051 -25.557  0.00  0.00    +0.099 C 
ATOM      6  C   UNL     1      34.769 -15.985 -25.601  0.00  0.00    +0.136 C 
ENDROOT
BRANCH   2  10
ATOM      7  N   UNL     1      32.685  -8.485 -22.289  0.00  0.00    -0.280 N 
ATOM      8  N   UNL     1      31.904  -9.347 -21.609  0.00  0.00    -0.173 NA
ATOM      9  C   UNL     1      33.232 -10.400 -23.123  0.00  0.00    +0.032 A 
ATOM     10  C   UNL     1      33.314 -12.667 -23.530  0.00  0.00    +0.002 C 
ATOM     11  C   UNL     1      32.220 -10.557 -22.106  0.00  0.00    +0.102 A 
ATOM     12  C   UNL     1      33.827 -11.402 -23.878  0.00  0.00    +0.003 C 
ATOM     13  C   UNL     1      33.504  -9.064 -23.214  0.00  0.00    +0.053 A 
ATOM     14  C   UNL     1      32.312 -12.875 -22.530  0.00  0.00    +0.002 C 
ATOM     15  C   UNL     1      31.725 -11.833 -21.780  0.00  0.00    +0.021 C 
ATOM     16  C   UNL     1      34.424  -8.272 -24.047  0.00  0.00    +0.051 C 
ATOM     17  H   UNL     1      32.666  -7.515 -22.131  0.00  0.00    +0.189 HD
ENDBRANCH   2  10
BRANCH   3  18
ATOM     18  O   UNL     1      35.925 -16.762 -23.662  0.00  0.00    -0.476 OA
BRANCH  18  19
ATOM     19  C   UNL     1      35.479 -17.293 -22.413  0.00  0.00    +0.184 C 
BRANCH  19  20
ATOM     20  C   UNL     1      35.288 -18.811 -22.519  0.00  0.00    -0.017 C 
BRANCH  20  21
ATOM     21  N   UNL     1      35.547 -19.213 -23.904  0.00  0.00    +0.384 N 
ATOM     22  H   UNL     1      34.710 -19.058 -24.465  0.00  0.00    -0.089 HD
ATOM     23  H   UNL     1      35.795 -20.202 -23.931  0.00  0.00    -0.089 HD
ATOM     24  H   UNL     1      36.317 -18.660 -24.281  0.00  0.00    -0.089 HD
ENDBRANCH  20  21
BRANCH  20  25
ATOM     25  C   UNL     1      36.236 -19.609 -21.598  0.00  0.00    +0.008 C 
BRANCH  25  27
ATOM     26 BR   UNL     1      33.402 -23.415 -17.654  0.00  0.00    -0.049 Br
ATOM     27  C   UNL     1      35.542 -20.540 -20.634  0.00  0.00    -0.024 C 
ATOM     28  C   UNL     1      34.159 -20.626 -20.648  0.00  0.00    -0.004 C 
ATOM     29  C   UNL     1      36.302 -21.291 -19.752  0.00  0.00    -0.004 C 
ATOM     30  C   UNL     1      33.519 -21.487 -19.757  0.00  0.00    +0.006 C 
ATOM     31  C   UNL     1      35.661 -22.152 -18.861  0.00  0.00    +0.006 C 
ATOM     32  C   UNL     1      34.270 -22.250 -18.863  0.00  0.00    +0.035 C 
ENDBRANCH  25  27
ENDBRANCH  20  25
ENDBRANCH  19  20
ENDBRANCH  18  19
ENDBRANCH   3  18
TORSDOF 7
ENDMDL
MODEL 5
REMARK VINA RESULT:     -11.0      3.999      9.802
REMARK  Name = 16122642
REMARK  7 active torsions:
REMARK  status: ('A' for Active; 'I' for Inactive)
REMARK    1  A    between atoms: C_2  and  C_10
REMARK    2  A    between atoms: C_3  and  O_18
REMARK    3  A    between atoms: O_18  and  C_19
REMARK    4  A    between atoms: C_19  and  C_20
REMARK    5  A    between atoms: C_20  and  N_21
REMARK    6  A    between atoms: C_20  and  C_25
REMARK    7  A    between atoms: C_25  and  C_27
REMARK                            x       y       z     vdW  Elec       q    Type
REMARK                         _______ _______ _______ _____ _____    ______ ____
ROOT
ATOM      1  N   UNL     1      34.071 -18.129 -25.761  0.00  0.00    -0.239 NA
ATOM      2  C   UNL     1      35.138 -18.145 -23.598  0.00  0.00    +0.022 C 
ATOM      3  C   UNL     1      34.830 -16.066 -24.755  0.00  0.00    +0.158 C 
ATOM      4  C   UNL     1      35.290 -16.768 -23.646  0.00  0.00    +0.040 C 
ATOM      5  C   UNL     1      34.529 -18.777 -24.665  0.00  0.00    +0.099 C 
ATOM      6  C   UNL     1      34.233 -16.788 -25.777  0.00  0.00    +0.136 C 
ENDROOT
BRANCH   2  10
ATOM      7  N   UNL     1      35.675 -21.708 -19.053  0.00  0.00    -0.280 N 
ATOM      8  N   UNL     1      36.853 -21.076 -19.224  0.00  0.00    -0.173 NA
ATOM      9  C   UNL     1      35.305 -20.439 -20.760  0.00  0.00    +0.032 A 
ATOM     10  C   UNL     1      35.607 -18.904 -22.453  0.00  0.00    +0.002 C 
ATOM     11  C   UNL     1      36.658 -20.274 -20.286  0.00  0.00    +0.102 A 
ATOM     12  C   UNL     1      34.706 -19.794 -21.834  0.00  0.00    +0.003 C 
ATOM     13  C   UNL     1      34.706 -21.362 -19.950  0.00  0.00    +0.053 A 
ATOM     14  C   UNL     1      36.955 -18.705 -22.022  0.00  0.00    +0.002 C 
ATOM     15  C   UNL     1      37.535 -19.378 -20.924  0.00  0.00    +0.021 C 
ATOM     16  C   UNL     1      33.359 -21.955 -19.912  0.00  0.00    +0.051 C 
ATOM     17  H   UNL     1      35.524 -22.365 -18.337  0.00  0.00    +0.189 HD
ENDBRANCH   2  10
BRANCH   3  18
ATOM     18  O   UNL     1      34.962 -14.719 -24.834  0.00  0.00    -0.476 OA
BRANCH  18  19
ATOM     19  C   UNL     1      33.763 -13.948 -24.929  0.00  0.00    +0.184 C 
BRANCH  19  20
ATOM     20  C   UNL     1      33.842 -12.726 -24.005  0.00  0.00    -0.017 C 
BRANCH  20  21
ATOM     21  N   UNL     1      34.750 -13.043 -22.899  0.00  0.00    +0.384 N 
ATOM     22  H   UNL     1      34.677 -14.035 -22.673  0.00  0.00    -0.089 HD
ATOM     23  H   UNL     1      34.495 -12.489 -22.081  0.00  0.00    -0.089 HD
ATOM     24  H   UNL     1      35.708 -12.826 -23.172  0.00  0.00    -0.089 HD
ENDBRANCH  20  21
BRANCH  20  25
ATOM     25  C   UNL     1      34.368 -11.461 -24.715  0.00  0.00    +0.008 C 
BRANCH  25  27
ATOM     26 BR   UNL     1      32.768  -6.147 -22.017  0.00  0.00    -0.049 Br
ATOM     27  C   UNL     1      33.977 -10.160 -24.056  0.00  0.00    -0.024 C 
ATOM     28  C   UNL     1      34.843  -9.080 -24.115  0.00  0.00    -0.004 C 
ATOM     29  C   UNL     1      32.759 -10.071 -23.403  0.00  0.00    -0.004 C 
ATOM     30  C   UNL     1      34.481  -7.880 -23.505  0.00  0.00    +0.006 C 
ATOM     31  C   UNL     1      32.397  -8.870 -22.793  0.00  0.00    +0.006 C 
ATOM     32  C   UNL     1      33.258  -7.775 -22.844  0.00  0.00    +0.035 C 
ENDBRANCH  25  27
ENDBRANCH  20  25
ENDBRANCH  19  20
ENDBRANCH  18  19
ENDBRANCH   3  18
TORSDOF 7
ENDMDL
MODEL 6
REMARK VINA RESULT:     -11.0      5.047     11.009
REMARK  Name = 16122642
REMARK  7 active torsions:
REMARK  status: ('A' for Active; 'I' for Inactive)
REMARK    1  A    between atoms: C_2  and  C_10
REMARK    2  A    between atoms: C_3  and  O_18
REMARK    3  A    between atoms: O_18  and  C_19
REMARK    4  A    between atoms: C_19  and  C_20
REMARK    5  A    between atoms: C_20  and  N_21
REMARK    6  A    between atoms: C_20  and  C_25
REMARK    7  A    between atoms: C_25  and  C_27
REMARK                            x       y       z     vdW  Elec       q    Type
REMARK                         _______ _______ _______ _____ _____    ______ ____
ROOT
ATOM      1  N   UNL     1      37.154 -22.110 -17.442  0.00  0.00    -0.239 NA
ATOM      2  C   UNL     1      34.848 -22.791 -17.254  0.00  0.00    +0.022 C 
ATOM      3  C   UNL     1      35.642 -21.840 -19.309  0.00  0.00    +0.158 C 
ATOM      4  C   UNL     1      34.607 -22.386 -18.558  0.00  0.00    +0.040 C 
ATOM      5  C   UNL     1      36.123 -22.637 -16.743  0.00  0.00    +0.099 C 
ATOM      6  C   UNL     1      36.886 -21.725 -18.709  0.00  0.00    +0.136 C 
ENDROOT
BRANCH   2  10
ATOM      7  N   UNL     1      29.768 -24.414 -14.976  0.00  0.00    -0.280 N 
ATOM      8  N   UNL     1      30.748 -24.946 -14.220  0.00  0.00    -0.173 NA
ATOM      9  C   UNL     1      31.565 -23.721 -15.950  0.00  0.00    +0.032 A 
ATOM     10  C   UNL     1      33.788 -23.365 -16.446  0.00  0.00    +0.002 C 
ATOM     11  C   UNL     1      31.888 -24.533 -14.801  0.00  0.00    +0.102 A 
ATOM     12  C   UNL     1      32.455 -23.104 -16.820  0.00  0.00    +0.003 C 
ATOM     13  C   UNL     1      30.203 -23.667 -16.032  0.00  0.00    +0.053 A 
ATOM     14  C   UNL     1      34.159 -24.162 -15.318  0.00  0.00    +0.002 C 
ATOM     15  C   UNL     1      33.229 -24.777 -14.452  0.00  0.00    +0.021 C 
ATOM     16  C   UNL     1      29.268 -23.012 -16.963  0.00  0.00    +0.051 C 
ATOM     17  H   UNL     1      28.813 -24.553 -14.782  0.00  0.00    +0.189 HD
ENDBRANCH   2  10
BRANCH   3  18
ATOM     18  O   UNL     1      35.441 -21.434 -20.586  0.00  0.00    -0.476 OA
BRANCH  18  19
ATOM     19  C   UNL     1      34.662 -20.252 -20.783  0.00  0.00    +0.184 C 
BRANCH  19  20
ATOM     20  C   UNL     1      35.492 -19.182 -21.503  0.00  0.00    -0.017 C 
BRANCH  20  21
ATOM     21  N   UNL     1      36.851 -19.205 -20.953  0.00  0.00    +0.384 N 
ATOM     22  H   UNL     1      36.902 -18.585 -20.146  0.00  0.00    -0.089 HD
ATOM     23  H   UNL     1      37.511 -18.891 -21.665  0.00  0.00    -0.089 HD
ATOM     24  H   UNL     1      37.086 -20.156 -20.668  0.00  0.00    -0.089 HD
ENDBRANCH  20  21
BRANCH  20  25
ATOM     25  C   UNL     1      35.583 -19.407 -23.027  0.00  0.00    +0.008 C 
BRANCH  25  27
ATOM     26 BR   UNL     1      33.699 -14.633 -26.452  0.00  0.00    -0.049 Br
ATOM     27  C   UNL     1      35.121 -18.240 -23.865  0.00  0.00    -0.024 C 
ATOM     28  C   UNL     1      34.410 -18.479 -25.030  0.00  0.00    -0.004 C 
ATOM     29  C   UNL     1      35.418 -16.951 -23.453  0.00  0.00    -0.004 C 
ATOM     30  C   UNL     1      33.984 -17.399 -25.804  0.00  0.00    +0.006 C 
ATOM     31  C   UNL     1      34.992 -15.872 -24.227  0.00  0.00    +0.006 C 
ATOM     32  C   UNL     1      34.275 -16.096 -25.402  0.00  0.00    +0.035 C 
ENDBRANCH  25  27
ENDBRANCH  20  25
ENDBRANCH  19  20
ENDBRANCH  18  19
ENDBRANCH   3  18
TORSDOF 7
ENDMDL
MODEL 7
REMARK VINA RESULT:     -10.8      3.582      6.691
REMARK  Name = 16122642
REMARK  7 active torsions:
REMARK  status: ('A' for Active; 'I' for Inactive)
REMARK    1  A    between atoms: C_2  and  C_10
REMARK    2  A    between atoms: C_3  and  O_18
REMARK    3  A    between atoms: O_18  and  C_19
REMARK    4  A    between atoms: C_19  and  C_20
REMARK    5  A    between atoms: C_20  and  N_21
REMARK    6  A    between atoms: C_20  and  C_25
REMARK    7  A    between atoms: C_25  and  C_27
REMARK                            x       y       z     vdW  Elec       q    Type
REMARK                         _______ _______ _______ _____ _____    ______ ____
ROOT
ATOM      1  N   UNL     1      36.742 -21.292 -19.568  0.00  0.00    -0.239 NA
ATOM      2  C   UNL     1      35.388 -19.995 -21.084  0.00  0.00    +0.022 C 
ATOM      3  C   UNL     1      34.372 -21.724 -19.766  0.00  0.00    +0.158 C 
ATOM      4  C   UNL     1      34.260 -20.712 -20.713  0.00  0.00    +0.040 C 
ATOM      5  C   UNL     1      36.594 -20.315 -20.491  0.00  0.00    +0.099 C 
ATOM      6  C   UNL     1      35.625 -21.972 -19.228  0.00  0.00    +0.136 C 
ENDROOT
BRANCH   2  10
ATOM      7  N   UNL     1      34.954 -14.919 -23.855  0.00  0.00    -0.280 N 
ATOM      8  N   UNL     1      35.054 -15.889 -24.784  0.00  0.00    -0.173 NA
ATOM      9  C   UNL     1      35.104 -16.716 -22.669  0.00  0.00    +0.032 A 
ATOM     10  C   UNL     1      35.302 -18.933 -22.069  0.00  0.00    +0.002 C 
ATOM     11  C   UNL     1      35.151 -17.029 -24.077  0.00  0.00    +0.102 A 
ATOM     12  C   UNL     1      35.174 -17.608 -21.607  0.00  0.00    +0.003 C 
ATOM     13  C   UNL     1      34.978 -15.360 -22.564  0.00  0.00    +0.053 A 
ATOM     14  C   UNL     1      35.353 -19.294 -23.452  0.00  0.00    +0.002 C 
ATOM     15  C   UNL     1      35.280 -18.362 -24.510  0.00  0.00    +0.021 C 
ATOM     16  C   UNL     1      34.880 -14.436 -21.421  0.00  0.00    +0.051 C 
ATOM     17  H   UNL     1      34.868 -13.967 -24.088  0.00  0.00    +0.189 HD
ENDBRANCH   2  10
BRANCH   3  18
ATOM     18  O   UNL     1      33.290 -22.443 -19.381  0.00  0.00    -0.476 OA
BRANCH  18  19
ATOM     19  C   UNL     1      33.447 -23.313 -18.258  0.00  0.00    +0.184 C 
BRANCH  19  20
ATOM     20  C   UNL     1      32.785 -22.703 -17.016  0.00  0.00    -0.017 C 
BRANCH  20  21
ATOM     21  N   UNL     1      31.332 -22.727 -17.208  0.00  0.00    +0.384 N 
ATOM     22  H   UNL     1      31.121 -23.029 -18.159  0.00  0.00    -0.089 HD
ATOM     23  H   UNL     1      30.954 -21.793 -17.056  0.00  0.00    -0.089 HD
ATOM     24  H   UNL     1      30.912 -23.377 -16.544  0.00  0.00    -0.089 HD
ENDBRANCH  20  21
BRANCH  20  25
ATOM     25  C   UNL     1      33.114 -23.467 -15.716  0.00  0.00    +0.008 C 
BRANCH  25  27
ATOM     26 BR   UNL     1      39.076 -24.891 -15.005  0.00  0.00    -0.049 Br
ATOM     27  C   UNL     1      34.573 -23.814 -15.541  0.00  0.00    -0.024 C 
ATOM     28  C   UNL     1      35.522 -22.806 -15.591  0.00  0.00    -0.004 C 
ATOM     29  C   UNL     1      34.934 -25.135 -15.335  0.00  0.00    -0.004 C 
ATOM     30  C   UNL     1      36.870 -23.128 -15.430  0.00  0.00    +0.006 C 
ATOM     31  C   UNL     1      36.282 -25.457 -15.175  0.00  0.00    +0.006 C 
ATOM     32  C   UNL     1      37.249 -24.454 -15.222  0.00  0.00    +0.035 C 
ENDBRANCH  25  27
ENDBRANCH  20  25
ENDBRANCH  19  20
ENDBRANCH  18  19
ENDBRANCH   3  18
TORSDOF 7
ENDMDL
MODEL 8
REMARK VINA RESULT:     -10.8      3.735      9.818
REMARK  Name = 16122642
REMARK  7 active torsions:
REMARK  status: ('A' for Active; 'I' for Inactive)
REMARK    1  A    between atoms: C_2  and  C_10
REMARK    2  A    between atoms: C_3  and  O_18
REMARK    3  A    between atoms: O_18  and  C_19
REMARK    4  A    between atoms: C_19  and  C_20
REMARK    5  A    between atoms: C_20  and  N_21
REMARK    6  A    between atoms: C_20  and  C_25
REMARK    7  A    between atoms: C_25  and  C_27
REMARK                            x       y       z     vdW  Elec       q    Type
REMARK                         _______ _______ _______ _____ _____    ______ ____
ROOT
ATOM      1  N   UNL     1      37.765 -18.744 -22.070  0.00  0.00    -0.239 NA
ATOM      2  C   UNL     1      35.953 -19.984 -21.072  0.00  0.00    +0.022 C 
ATOM      3  C   UNL     1      35.533 -18.602 -22.988  0.00  0.00    +0.158 C 
ATOM      4  C   UNL     1      35.069 -19.479 -22.013  0.00  0.00    +0.040 C 
ATOM      5  C   UNL     1      37.277 -19.594 -21.138  0.00  0.00    +0.099 C 
ATOM      6  C   UNL     1      36.878 -18.270 -22.973  0.00  0.00    +0.136 C 
ENDROOT
BRANCH   2  10
ATOM      7  N   UNL     1      35.474 -23.470 -16.462  0.00  0.00    -0.280 N 
ATOM      8  N   UNL     1      34.294 -23.479 -17.111  0.00  0.00    -0.173 NA
ATOM      9  C   UNL     1      35.823 -22.141 -18.127  0.00  0.00    +0.032 A 
ATOM     10  C   UNL     1      35.499 -20.901 -20.042  0.00  0.00    +0.002 C 
ATOM     11  C   UNL     1      34.475 -22.657 -18.159  0.00  0.00    +0.102 A 
ATOM     12  C   UNL     1      36.408 -21.262 -19.028  0.00  0.00    +0.003 C 
ATOM     13  C   UNL     1      36.432 -22.681 -17.030  0.00  0.00    +0.053 A 
ATOM     14  C   UNL     1      34.155 -21.384 -20.119  0.00  0.00    +0.002 C 
ATOM     15  C   UNL     1      33.589 -22.279 -19.185  0.00  0.00    +0.021 C 
ATOM     16  C   UNL     1      37.780 -22.552 -16.453  0.00  0.00    +0.051 C 
ATOM     17  H   UNL     1      35.634 -23.992 -15.643  0.00  0.00    +0.189 HD
ENDBRANCH   2  10
BRANCH   3  18
ATOM     18  O   UNL     1      34.696 -18.090 -23.922  0.00  0.00    -0.476 OA
BRANCH  18  19
ATOM     19  C   UNL     1      35.276 -17.290 -24.955  0.00  0.00    +0.184 C 
BRANCH  19  20
ATOM     20  C   UNL     1      34.741 -15.855 -24.879  0.00  0.00    -0.017 C 
BRANCH  20  21
ATOM     21  N   UNL     1      33.432 -15.815 -25.537  0.00  0.00    +0.384 N 
ATOM     22  H   UNL     1      33.337 -14.941 -26.053  0.00  0.00    -0.089 HD
ATOM     23  H   UNL     1      32.696 -15.876 -24.833  0.00  0.00    -0.089 HD
ATOM     24  H   UNL     1      33.351 -16.602 -26.182  0.00  0.00    -0.089 HD
ENDBRANCH  20  21
BRANCH  20  25
ATOM     25  C   UNL     1      34.571 -15.346 -23.432  0.00  0.00    +0.008 C 
BRANCH  25  27
ATOM     26 BR   UNL     1      32.268  -9.640 -22.968  0.00  0.00    -0.049 Br
ATOM     27  C   UNL     1      34.008 -13.950 -23.317  0.00  0.00    -0.024 C 
ATOM     28  C   UNL     1      33.047 -13.682 -22.355  0.00  0.00    -0.004 C 
ATOM     29  C   UNL     1      34.461 -12.964 -24.178  0.00  0.00    -0.004 C 
ATOM     30  C   UNL     1      32.527 -12.392 -22.251  0.00  0.00    +0.006 C 
ATOM     31  C   UNL     1      33.941 -11.674 -24.073  0.00  0.00    +0.006 C 
ATOM     32  C   UNL     1      32.974 -11.388 -23.110  0.00  0.00    +0.035 C 
ENDBRANCH  25  27
ENDBRANCH  20  25
ENDBRANCH  19  20
ENDBRANCH  18  19
ENDBRANCH   3  18
TORSDOF 7
ENDMDL
MODEL 9
REMARK VINA RESULT:     -10.7      5.494     11.306
REMARK  Name = 16122642
REMARK  7 active torsions:
REMARK  status: ('A' for Active; 'I' for Inactive)
REMARK    1  A    between atoms: C_2  and  C_10
REMARK    2  A    between atoms: C_3  and  O_18
REMARK    3  A    between atoms: O_18  and  C_19
REMARK    4  A    between atoms: C_19  and  C_20
REMARK    5  A    between atoms: C_20  and  N_21
REMARK    6  A    between atoms: C_20  and  C_25
REMARK    7  A    between atoms: C_25  and  C_27
REMARK                            x       y       z     vdW  Elec       q    Type
REMARK                         _______ _______ _______ _____ _____    ______ ____
ROOT
ATOM      1  N   UNL     1      31.852 -12.051 -20.739  0.00  0.00    -0.239 NA
ATOM      2  C   UNL     1      32.914 -12.727 -22.796  0.00  0.00    +0.022 C 
ATOM      3  C   UNL     1      32.378 -10.415 -22.440  0.00  0.00    +0.158 C 
ATOM      4  C   UNL     1      32.911 -11.415 -23.246  0.00  0.00    +0.040 C 
ATOM      5  C   UNL     1      32.380 -12.995 -21.550  0.00  0.00    +0.099 C 
ATOM      6  C   UNL     1      31.865 -10.783 -21.206  0.00  0.00    +0.136 C 
ENDROOT
BRANCH   2  10
ATOM      7  N   UNL     1      35.591 -17.465 -24.800  0.00  0.00    -0.280 N 
ATOM      8  N   UNL     1      35.047 -16.822 -25.852  0.00  0.00    -0.173 NA
ATOM      9  C   UNL     1      34.648 -15.750 -23.889  0.00  0.00    +0.032 A 
ATOM     10  C   UNL     1      33.464 -13.791 -23.615  0.00  0.00    +0.002 C 
ATOM     11  C   UNL     1      34.447 -15.744 -25.318  0.00  0.00    +0.102 A 
ATOM     12  C   UNL     1      34.190 -14.813 -22.971  0.00  0.00    +0.003 C 
ATOM     13  C   UNL     1      35.383 -16.863 -23.593  0.00  0.00    +0.053 A 
ATOM     14  C   UNL     1      33.238 -13.739 -25.026  0.00  0.00    +0.002 C 
ATOM     15  C   UNL     1      33.717 -14.709 -25.933  0.00  0.00    +0.021 C 
ATOM     16  C   UNL     1      35.906 -17.428 -22.338  0.00  0.00    +0.051 C 
ATOM     17  H   UNL     1      36.101 -18.301 -24.895  0.00  0.00    +0.189 HD
ENDBRANCH   2  10
BRANCH   3  18
ATOM     18  O   UNL     1      32.360  -9.123 -22.848  0.00  0.00    -0.476 OA
BRANCH  18  19
ATOM     19  C   UNL     1      31.890  -8.147 -21.916  0.00  0.00    +0.184 C 
BRANCH  19  20
ATOM     20  C   UNL     1      32.994  -7.127 -21.612  0.00  0.00    -0.017 C 
BRANCH  20  21
ATOM     21  N   UNL     1      33.605  -7.476 -20.327  0.00  0.00    +0.384 N 
ATOM     22  H   UNL     1      34.107  -8.358 -20.418  0.00  0.00    -0.089 HD
ATOM     23  H   UNL     1      32.877  -7.571 -19.619  0.00  0.00    -0.089 HD
ATOM     24  H   UNL     1      34.256  -6.741 -20.048  0.00  0.00    -0.089 HD
ENDBRANCH  20  21
BRANCH  20  25
ATOM     25  C   UNL     1      34.105  -7.098 -22.684  0.00  0.00    +0.008 C 
BRANCH  25  27
ATOM     26 BR   UNL     1      33.139  -3.109 -27.291  0.00  0.00    -0.049 Br
ATOM     27  C   UNL     1      33.868  -6.121 -23.810  0.00  0.00    -0.024 C 
ATOM     28  C   UNL     1      32.781  -5.263 -23.749  0.00  0.00    -0.004 C 
ATOM     29  C   UNL     1      34.742  -6.102 -24.885  0.00  0.00    -0.004 C 
ATOM     30  C   UNL     1      32.563  -4.362 -24.791  0.00  0.00    +0.006 C 
ATOM     31  C   UNL     1      34.524  -5.200 -25.926  0.00  0.00    +0.006 C 
ATOM     32  C   UNL     1      33.435  -4.330 -25.879  0.00  0.00    +0.035 C 
ENDBRANCH  25  27
ENDBRANCH  20  25
ENDBRANCH  19  20
ENDBRANCH  18  19
ENDBRANCH   3  18
TORSDOF 7
ENDMDL
