MODEL 1
REMARK VINA RESULT:     -11.8      0.000      0.000
REMARK  Name = 23586146
REMARK  5 active torsions:
REMARK  status: ('A' for Active; 'I' for Inactive)
REMARK    1  A    between atoms: N_1  and  C_12
REMARK    2  A    between atoms: C_8  and  N_18
REMARK    3  A    between atoms: N_18  and  C_20
REMARK    4  A    between atoms: C_23  and  S_26
REMARK    5  A    between atoms: S_26  and  N_29
REMARK                            x       y       z     vdW  Elec       q    Type
REMARK                         _______ _______ _______ _____ _____    ______ ____
ROOT
ATOM      1  N   UNL     1      35.604 -24.351 -14.901  0.00  0.00    -0.309 N 
ATOM      2  N   UNL     1      33.355 -23.917 -14.753  0.00  0.00    -0.321 NA
ATOM      3  N   UNL     1      32.184 -23.183 -16.719  0.00  0.00    -0.106 N 
ATOM      4  N   UNL     1      30.918 -22.831 -17.069  0.00  0.00    -0.139 NA
ATOM      5  N   UNL     1      30.992 -23.393 -14.864  0.00  0.00    -0.145 NA
ATOM      6  C   UNL     1      34.451 -23.968 -15.473  0.00  0.00    +0.196 C 
ATOM      7  C   UNL     1      34.483 -23.611 -16.935  0.00  0.00    +0.081 C 
ATOM      8  C   UNL     1      33.334 -23.228 -17.510  0.00  0.00    +0.140 C 
ATOM      9  C   UNL     1      32.205 -23.524 -15.365  0.00  0.00    +0.176 C 
ATOM     10  C   UNL     1      30.256 -22.976 -15.925  0.00  0.00    +0.230 C 
ATOM     11  H   UNL     1      36.420 -24.369 -15.451  0.00  0.00    +0.149 HD
ENDROOT
BRANCH   1  12
ATOM     12  C   UNL     1      35.699 -24.740 -13.506  0.00  0.00    +0.071 C 
ATOM     13  C   UNL     1      36.626 -25.950 -13.359  0.00  0.00    +0.020 C 
ATOM     14  C   UNL     1      36.181 -23.556 -12.662  0.00  0.00    +0.020 C 
ATOM     15  C   UNL     1      38.096 -25.602 -13.599  0.00  0.00    +0.002 C 
ATOM     16  C   UNL     1      37.651 -23.217 -12.904  0.00  0.00    +0.002 C 
ATOM     17  C   UNL     1      38.549 -24.438 -12.725  0.00  0.00    +0.000 C 
ENDBRANCH   1  12
BRANCH   8  18
ATOM     18  N   UNL     1      33.213 -22.875 -18.824  0.00  0.00    -0.299 N 
ATOM     19  H   UNL     1      32.511 -23.342 -19.331  0.00  0.00    +0.153 HD
BRANCH  18  20
ATOM     20  C   UNL     1      33.960 -21.935 -19.542  0.00  0.00    +0.049 C 
ATOM     21  C   UNL     1      33.310 -20.960 -20.300  0.00  0.00    +0.016 C 
ATOM     22  C   UNL     1      35.354 -21.971 -19.501  0.00  0.00    +0.016 C 
ATOM     23  C   UNL     1      35.449 -20.059 -20.974  0.00  0.00    +0.122 C 
ATOM     24  C   UNL     1      34.055 -20.021 -21.015  0.00  0.00    +0.021 C 
ATOM     25  C   UNL     1      36.098 -21.033 -20.216  0.00  0.00    +0.021 C 
BRANCH  23  26
ATOM     26  S   UNL     1      36.380 -18.885 -21.869  0.00  0.00    +0.057 S 
ATOM     27  O   UNL     1      37.754 -18.926 -21.390  0.00  0.00    -0.153 OA
ATOM     28  O   UNL     1      36.103 -19.059 -23.288  0.00  0.00    -0.153 OA
BRANCH  26  29
ATOM     29  N   UNL     1      35.657 -17.427 -21.345  0.00  0.00    -0.203 NA
ATOM     30  H   UNL     1      34.647 -17.485 -21.465  0.00  0.00    +0.144 HD
ATOM     31  H   UNL     1      36.022 -16.650 -21.896  0.00  0.00    +0.144 HD
ENDBRANCH  26  29
ENDBRANCH  23  26
ENDBRANCH  18  20
ENDBRANCH   8  18
TORSDOF 5
ENDMDL
MODEL 2
REMARK VINA RESULT:     -10.2      1.886      4.722
REMARK  Name = 23586146
REMARK  5 active torsions:
REMARK  status: ('A' for Active; 'I' for Inactive)
REMARK    1  A    between atoms: N_1  and  C_12
REMARK    2  A    between atoms: C_8  and  N_18
REMARK    3  A    between atoms: N_18  and  C_20
REMARK    4  A    between atoms: C_23  and  S_26
REMARK    5  A    between atoms: S_26  and  N_29
REMARK                            x       y       z     vdW  Elec       q    Type
REMARK                         _______ _______ _______ _____ _____    ______ ____
ROOT
ATOM      1  N   UNL     1      31.443 -23.040 -16.184  0.00  0.00    -0.309 N 
ATOM      2  N   UNL     1      33.551 -23.124 -15.278  0.00  0.00    -0.321 NA
ATOM      3  N   UNL     1      35.449 -22.972 -16.743  0.00  0.00    -0.106 N 
ATOM      4  N   UNL     1      36.806 -22.978 -16.644  0.00  0.00    -0.139 NA
ATOM      5  N   UNL     1      35.870 -23.188 -14.579  0.00  0.00    -0.145 NA
ATOM      6  C   UNL     1      32.778 -23.020 -16.334  0.00  0.00    +0.196 C 
ATOM      7  C   UNL     1      33.320 -22.879 -17.730  0.00  0.00    +0.081 C 
ATOM      8  C   UNL     1      34.653 -22.860 -17.885  0.00  0.00    +0.140 C 
ATOM      9  C   UNL     1      34.898 -23.101 -15.466  0.00  0.00    +0.176 C 
ATOM     10  C   UNL     1      36.994 -23.109 -15.334  0.00  0.00    +0.230 C 
ATOM     11  H   UNL     1      30.878 -22.977 -16.987  0.00  0.00    +0.149 HD
ENDROOT
BRANCH   1  12
ATOM     12  C   UNL     1      30.799 -23.149 -14.888  0.00  0.00    +0.071 C 
ATOM     13  C   UNL     1      29.292 -22.913 -15.029  0.00  0.00    +0.020 C 
ATOM     14  C   UNL     1      31.098 -24.517 -14.268  0.00  0.00    +0.020 C 
ATOM     15  C   UNL     1      28.576 -24.063 -15.738  0.00  0.00    +0.002 C 
ATOM     16  C   UNL     1      30.375 -25.661 -14.979  0.00  0.00    +0.002 C 
ATOM     17  C   UNL     1      28.875 -25.405 -15.078  0.00  0.00    +0.000 C 
ENDBRANCH   1  12
BRANCH   8  18
ATOM     18  N   UNL     1      35.284 -22.738 -19.089  0.00  0.00    -0.299 N 
ATOM     19  H   UNL     1      35.730 -23.549 -19.424  0.00  0.00    +0.153 HD
BRANCH  18  20
ATOM     20  C   UNL     1      35.379 -21.608 -19.909  0.00  0.00    +0.049 C 
ATOM     21  C   UNL     1      36.621 -21.015 -20.140  0.00  0.00    +0.016 C 
ATOM     22  C   UNL     1      34.232 -21.072 -20.494  0.00  0.00    +0.016 C 
ATOM     23  C   UNL     1      35.568 -19.354 -21.543  0.00  0.00    +0.122 C 
ATOM     24  C   UNL     1      36.716 -19.889 -20.957  0.00  0.00    +0.021 C 
ATOM     25  C   UNL     1      34.327 -19.946 -21.311  0.00  0.00    +0.021 C 
BRANCH  23  26
ATOM     26  S   UNL     1      35.687 -17.945 -22.565  0.00  0.00    +0.057 S 
ATOM     27  O   UNL     1      34.902 -18.183 -23.769  0.00  0.00    -0.153 OA
ATOM     28  O   UNL     1      35.429 -16.762 -21.756  0.00  0.00    -0.153 OA
BRANCH  26  29
ATOM     29  N   UNL     1      37.346 -17.978 -22.975  0.00  0.00    -0.203 NA
ATOM     30  H   UNL     1      37.829 -18.652 -22.383  0.00  0.00    +0.144 HD
ATOM     31  H   UNL     1      37.749 -17.052 -22.835  0.00  0.00    +0.144 HD
ENDBRANCH  26  29
ENDBRANCH  23  26
ENDBRANCH  18  20
ENDBRANCH   8  18
TORSDOF 5
ENDMDL
MODEL 3
REMARK VINA RESULT:      -9.9      1.686      4.925
REMARK  Name = 23586146
REMARK  5 active torsions:
REMARK  status: ('A' for Active; 'I' for Inactive)
REMARK    1  A    between atoms: N_1  and  C_12
REMARK    2  A    between atoms: C_8  and  N_18
REMARK    3  A    between atoms: N_18  and  C_20
REMARK    4  A    between atoms: C_23  and  S_26
REMARK    5  A    between atoms: S_26  and  N_29
REMARK                            x       y       z     vdW  Elec       q    Type
REMARK                         _______ _______ _______ _____ _____    ______ ____
ROOT
ATOM      1  N   UNL     1      31.838 -23.662 -16.438  0.00  0.00    -0.309 N 
ATOM      2  N   UNL     1      33.678 -23.668 -15.065  0.00  0.00    -0.321 NA
ATOM      3  N   UNL     1      35.826 -23.139 -16.002  0.00  0.00    -0.106 N 
ATOM      4  N   UNL     1      37.114 -23.029 -15.580  0.00  0.00    -0.139 NA
ATOM      5  N   UNL     1      35.766 -23.605 -13.838  0.00  0.00    -0.145 NA
ATOM      6  C   UNL     1      33.159 -23.496 -16.258  0.00  0.00    +0.196 C 
ATOM      7  C   UNL     1      33.983 -23.116 -17.458  0.00  0.00    +0.081 C 
ATOM      8  C   UNL     1      35.302 -22.949 -17.283  0.00  0.00    +0.140 C 
ATOM      9  C   UNL     1      35.019 -23.492 -14.918  0.00  0.00    +0.176 C 
ATOM     10  C   UNL     1      37.014 -23.317 -14.286  0.00  0.00    +0.230 C 
ATOM     11  H   UNL     1      31.467 -23.545 -17.341  0.00  0.00    +0.149 HD
ENDROOT
BRANCH   1  12
ATOM     12  C   UNL     1      30.935 -24.007 -15.356  0.00  0.00    +0.071 C 
ATOM     13  C   UNL     1      30.132 -22.775 -14.927  0.00  0.00    +0.020 C 
ATOM     14  C   UNL     1      30.015 -25.155 -15.786  0.00  0.00    +0.020 C 
ATOM     15  C   UNL     1      29.093 -22.354 -15.967  0.00  0.00    +0.002 C 
ATOM     16  C   UNL     1      28.977 -24.726 -16.822  0.00  0.00    +0.002 C 
ATOM     17  C   UNL     1      28.180 -23.512 -16.352  0.00  0.00    +0.000 C 
ENDBRANCH   1  12
BRANCH   8  18
ATOM     18  N   UNL     1      36.171 -22.606 -18.279  0.00  0.00    -0.299 N 
ATOM     19  H   UNL     1      37.017 -23.108 -18.302  0.00  0.00    +0.153 HD
BRANCH  18  20
ATOM     20  C   UNL     1      36.013 -21.631 -19.271  0.00  0.00    +0.049 C 
ATOM     21  C   UNL     1      34.773 -21.458 -19.887  0.00  0.00    +0.016 C 
ATOM     22  C   UNL     1      37.094 -20.833 -19.644  0.00  0.00    +0.016 C 
ATOM     23  C   UNL     1      35.698 -19.689 -21.248  0.00  0.00    +0.122 C 
ATOM     24  C   UNL     1      34.615 -20.486 -20.875  0.00  0.00    +0.021 C 
ATOM     25  C   UNL     1      36.936 -19.862 -20.632  0.00  0.00    +0.021 C 
BRANCH  23  26
ATOM     26  S   UNL     1      35.500 -18.473 -22.485  0.00  0.00    +0.057 S 
ATOM     27  O   UNL     1      34.554 -18.973 -23.473  0.00  0.00    -0.153 OA
ATOM     28  O   UNL     1      35.261 -17.189 -21.840  0.00  0.00    -0.153 OA
BRANCH  26  29
ATOM     29  N   UNL     1      37.062 -18.456 -23.179  0.00  0.00    -0.203 NA
ATOM     30  H   UNL     1      37.188 -17.597 -23.712  0.00  0.00    +0.144 HD
ATOM     31  H   UNL     1      37.167 -19.259 -23.798  0.00  0.00    +0.144 HD
ENDBRANCH  26  29
ENDBRANCH  23  26
ENDBRANCH  18  20
ENDBRANCH   8  18
TORSDOF 5
ENDMDL
MODEL 4
REMARK VINA RESULT:      -9.4      5.689      8.950
REMARK  Name = 23586146
REMARK  5 active torsions:
REMARK  status: ('A' for Active; 'I' for Inactive)
REMARK    1  A    between atoms: N_1  and  C_12
REMARK    2  A    between atoms: C_8  and  N_18
REMARK    3  A    between atoms: N_18  and  C_20
REMARK    4  A    between atoms: C_23  and  S_26
REMARK    5  A    between atoms: S_26  and  N_29
REMARK                            x       y       z     vdW  Elec       q    Type
REMARK                         _______ _______ _______ _____ _____    ______ ____
ROOT
ATOM      1  N   UNL     1      35.315 -19.812 -20.808  0.00  0.00    -0.309 N 
ATOM      2  N   UNL     1      34.889 -19.358 -23.018  0.00  0.00    -0.321 NA
ATOM      3  N   UNL     1      34.967 -17.077 -23.769  0.00  0.00    -0.106 N 
ATOM      4  N   UNL     1      34.791 -16.387 -24.928  0.00  0.00    -0.139 NA
ATOM      5  N   UNL     1      34.479 -18.614 -25.287  0.00  0.00    -0.145 NA
ATOM      6  C   UNL     1      35.193 -18.931 -21.815  0.00  0.00    +0.196 C 
ATOM      7  C   UNL     1      35.413 -17.476 -21.497  0.00  0.00    +0.081 C 
ATOM      8  C   UNL     1      35.291 -16.592 -22.499  0.00  0.00    +0.140 C 
ATOM      9  C   UNL     1      34.772 -18.438 -24.013  0.00  0.00    +0.176 C 
ATOM     10  C   UNL     1      34.504 -17.355 -25.793  0.00  0.00    +0.230 C 
ATOM     11  H   UNL     1      35.528 -19.474 -19.909  0.00  0.00    +0.149 HD
ENDROOT
BRANCH   1  12
ATOM     12  C   UNL     1      35.149 -21.242 -20.991  0.00  0.00    +0.071 C 
ATOM     13  C   UNL     1      36.235 -22.001 -20.222  0.00  0.00    +0.020 C 
ATOM     14  C   UNL     1      33.745 -21.667 -20.548  0.00  0.00    +0.020 C 
ATOM     15  C   UNL     1      36.040 -21.939 -18.707  0.00  0.00    +0.002 C 
ATOM     16  C   UNL     1      33.560 -21.608 -19.031  0.00  0.00    +0.002 C 
ATOM     17  C   UNL     1      34.643 -22.394 -18.300  0.00  0.00    +0.000 C 
ENDBRANCH   1  12
BRANCH   8  18
ATOM     18  N   UNL     1      35.462 -15.245 -22.359  0.00  0.00    -0.299 N 
ATOM     19  H   UNL     1      36.389 -14.921 -22.424  0.00  0.00    +0.153 HD
BRANCH  18  20
ATOM     20  C   UNL     1      34.487 -14.266 -22.137  0.00  0.00    +0.049 C 
ATOM     21  C   UNL     1      33.806 -14.222 -20.920  0.00  0.00    +0.016 C 
ATOM     22  C   UNL     1      34.195 -13.333 -23.133  0.00  0.00    +0.016 C 
ATOM     23  C   UNL     1      32.544 -12.312 -21.695  0.00  0.00    +0.122 C 
ATOM     24  C   UNL     1      32.836 -13.245 -20.698  0.00  0.00    +0.021 C 
ATOM     25  C   UNL     1      33.224 -12.357 -22.911  0.00  0.00    +0.021 C 
BRANCH  23  26
ATOM     26  S   UNL     1      31.329 -11.091 -21.417  0.00  0.00    +0.057 S 
ATOM     27  O   UNL     1      31.149 -10.334 -22.648  0.00  0.00    -0.153 OA
ATOM     28  O   UNL     1      30.180 -11.717 -20.778  0.00  0.00    -0.153 OA
BRANCH  26  29
ATOM     29  N   UNL     1      32.120 -10.098 -20.272  0.00  0.00    -0.203 NA
ATOM     30  H   UNL     1      31.727  -9.159 -20.307  0.00  0.00    +0.144 HD
ATOM     31  H   UNL     1      33.116 -10.059 -20.487  0.00  0.00    +0.144 HD
ENDBRANCH  26  29
ENDBRANCH  23  26
ENDBRANCH  18  20
ENDBRANCH   8  18
TORSDOF 5
ENDMDL
MODEL 5
REMARK VINA RESULT:      -9.4      8.143     11.655
REMARK  Name = 23586146
REMARK  5 active torsions:
REMARK  status: ('A' for Active; 'I' for Inactive)
REMARK    1  A    between atoms: N_1  and  C_12
REMARK    2  A    between atoms: C_8  and  N_18
REMARK    3  A    between atoms: N_18  and  C_20
REMARK    4  A    between atoms: C_23  and  S_26
REMARK    5  A    between atoms: S_26  and  N_29
REMARK                            x       y       z     vdW  Elec       q    Type
REMARK                         _______ _______ _______ _____ _____    ______ ____
ROOT
ATOM      1  N   UNL     1      35.613 -17.044 -22.639  0.00  0.00    -0.309 N 
ATOM      2  N   UNL     1      34.942 -16.369 -24.728  0.00  0.00    -0.321 NA
ATOM      3  N   UNL     1      33.589 -14.395 -24.930  0.00  0.00    -0.106 N 
ATOM      4  N   UNL     1      32.998 -13.670 -25.917  0.00  0.00    -0.139 NA
ATOM      5  N   UNL     1      34.106 -15.450 -26.807  0.00  0.00    -0.145 NA
ATOM      6  C   UNL     1      34.951 -16.183 -23.429  0.00  0.00    +0.196 C 
ATOM      7  C   UNL     1      34.243 -15.032 -22.766  0.00  0.00    +0.081 C 
ATOM      8  C   UNL     1      33.580 -14.170 -23.551  0.00  0.00    +0.140 C 
ATOM      9  C   UNL     1      34.261 -15.478 -25.498  0.00  0.00    +0.176 C 
ATOM     10  C   UNL     1      33.341 -14.347 -27.009  0.00  0.00    +0.230 C 
ATOM     11  H   UNL     1      35.597 -16.898 -21.666  0.00  0.00    +0.149 HD
ENDROOT
BRANCH   1  12
ATOM     12  C   UNL     1      36.352 -18.179 -23.159  0.00  0.00    +0.071 C 
ATOM     13  C   UNL     1      37.580 -18.453 -22.284  0.00  0.00    +0.020 C 
ATOM     14  C   UNL     1      35.438 -19.405 -23.245  0.00  0.00    +0.020 C 
ATOM     15  C   UNL     1      37.215 -19.026 -20.914  0.00  0.00    +0.002 C 
ATOM     16  C   UNL     1      35.081 -19.975 -21.872  0.00  0.00    +0.002 C 
ATOM     17  C   UNL     1      36.327 -20.260 -21.038  0.00  0.00    +0.000 C 
ENDBRANCH   1  12
BRANCH   8  18
ATOM     18  N   UNL     1      32.894 -13.084 -23.090  0.00  0.00    -0.299 N 
ATOM     19  H   UNL     1      32.089 -13.278 -22.558  0.00  0.00    +0.153 HD
BRANCH  18  20
ATOM     20  C   UNL     1      33.188 -11.728 -23.276  0.00  0.00    +0.049 C 
ATOM     21  C   UNL     1      32.387 -10.752 -22.683  0.00  0.00    +0.016 C 
ATOM     22  C   UNL     1      34.282 -11.352 -24.055  0.00  0.00    +0.016 C 
ATOM     23  C   UNL     1      33.776  -9.026 -23.648  0.00  0.00    +0.122 C 
ATOM     24  C   UNL     1      32.681  -9.401 -22.868  0.00  0.00    +0.021 C 
ATOM     25  C   UNL     1      34.576 -10.002 -24.241  0.00  0.00    +0.021 C 
BRANCH  23  26
ATOM     26  S   UNL     1      34.142  -7.336 -23.879  0.00  0.00    +0.057 S 
ATOM     27  O   UNL     1      34.446  -6.749 -22.581  0.00  0.00    -0.153 OA
ATOM     28  O   UNL     1      35.101  -7.214 -24.970  0.00  0.00    -0.153 OA
BRANCH  26  29
ATOM     29  N   UNL     1      32.630  -6.743 -24.411  0.00  0.00    -0.203 NA
ATOM     30  H   UNL     1      32.163  -7.455 -24.970  0.00  0.00    +0.144 HD
ATOM     31  H   UNL     1      32.772  -5.906 -24.976  0.00  0.00    +0.144 HD
ENDBRANCH  26  29
ENDBRANCH  23  26
ENDBRANCH  18  20
ENDBRANCH   8  18
TORSDOF 5
ENDMDL
MODEL 6
REMARK VINA RESULT:      -9.4      7.844     11.229
REMARK  Name = 23586146
REMARK  5 active torsions:
REMARK  status: ('A' for Active; 'I' for Inactive)
REMARK    1  A    between atoms: N_1  and  C_12
REMARK    2  A    between atoms: C_8  and  N_18
REMARK    3  A    between atoms: N_18  and  C_20
REMARK    4  A    between atoms: C_23  and  S_26
REMARK    5  A    between atoms: S_26  and  N_29
REMARK                            x       y       z     vdW  Elec       q    Type
REMARK                         _______ _______ _______ _____ _____    ______ ____
ROOT
ATOM      1  N   UNL     1      35.757 -17.129 -22.930  0.00  0.00    -0.309 N 
ATOM      2  N   UNL     1      34.851 -16.633 -24.981  0.00  0.00    -0.321 NA
ATOM      3  N   UNL     1      33.987 -14.424 -25.362  0.00  0.00    -0.106 N 
ATOM      4  N   UNL     1      33.394 -13.731 -26.371  0.00  0.00    -0.139 NA
ATOM      5  N   UNL     1      33.848 -15.858 -27.045  0.00  0.00    -0.145 NA
ATOM      6  C   UNL     1      35.169 -16.256 -23.764  0.00  0.00    +0.196 C 
ATOM      7  C   UNL     1      34.901 -14.869 -23.245  0.00  0.00    +0.081 C 
ATOM      8  C   UNL     1      34.313 -13.994 -24.074  0.00  0.00    +0.140 C 
ATOM      9  C   UNL     1      34.256 -15.723 -25.798  0.00  0.00    +0.176 C 
ATOM     10  C   UNL     1      33.339 -14.636 -27.343  0.00  0.00    +0.230 C 
ATOM     11  H   UNL     1      35.974 -16.835 -22.017  0.00  0.00    +0.149 HD
ENDROOT
BRANCH   1  12
ATOM     12  C   UNL     1      36.087 -18.488 -23.319  0.00  0.00    +0.071 C 
ATOM     13  C   UNL     1      37.414 -18.910 -22.681  0.00  0.00    +0.020 C 
ATOM     14  C   UNL     1      34.949 -19.436 -22.930  0.00  0.00    +0.020 C 
ATOM     15  C   UNL     1      37.302 -19.126 -21.171  0.00  0.00    +0.002 C 
ATOM     16  C   UNL     1      34.846 -19.650 -21.420  0.00  0.00    +0.002 C 
ATOM     17  C   UNL     1      36.178 -20.094 -20.822  0.00  0.00    +0.000 C 
ENDBRANCH   1  12
BRANCH   8  18
ATOM     18  N   UNL     1      34.009 -12.705 -23.740  0.00  0.00    -0.299 N 
ATOM     19  H   UNL     1      34.303 -12.016 -24.379  0.00  0.00    +0.153 HD
BRANCH  18  20
ATOM     20  C   UNL     1      33.334 -12.238 -22.607  0.00  0.00    +0.049 C 
ATOM     21  C   UNL     1      33.165 -13.074 -21.502  0.00  0.00    +0.016 C 
ATOM     22  C   UNL     1      32.828 -10.939 -22.582  0.00  0.00    +0.016 C 
ATOM     23  C   UNL     1      31.986 -11.308 -20.348  0.00  0.00    +0.122 C 
ATOM     24  C   UNL     1      32.492 -12.608 -20.372  0.00  0.00    +0.021 C 
ATOM     25  C   UNL     1      32.155 -10.474 -21.452  0.00  0.00    +0.021 C 
BRANCH  23  26
ATOM     26  S   UNL     1      31.144 -10.726 -18.934  0.00  0.00    +0.057 S 
ATOM     27  O   UNL     1      29.715 -10.736 -19.214  0.00  0.00    -0.153 OA
ATOM     28  O   UNL     1      31.657 -11.430 -17.767  0.00  0.00    -0.153 OA
BRANCH  26  29
ATOM     29  N   UNL     1      31.683  -9.105 -18.877  0.00  0.00    -0.203 NA
ATOM     30  H   UNL     1      31.163  -8.599 -18.162  0.00  0.00    +0.144 HD
ATOM     31  H   UNL     1      31.531  -8.665 -19.785  0.00  0.00    +0.144 HD
ENDBRANCH  26  29
ENDBRANCH  23  26
ENDBRANCH  18  20
ENDBRANCH   8  18
TORSDOF 5
ENDMDL
MODEL 7
REMARK VINA RESULT:      -9.0      8.687     13.785
REMARK  Name = 23586146
REMARK  5 active torsions:
REMARK  status: ('A' for Active; 'I' for Inactive)
REMARK    1  A    between atoms: N_1  and  C_12
REMARK    2  A    between atoms: C_8  and  N_18
REMARK    3  A    between atoms: N_18  and  C_20
REMARK    4  A    between atoms: C_23  and  S_26
REMARK    5  A    between atoms: S_26  and  N_29
REMARK                            x       y       z     vdW  Elec       q    Type
REMARK                         _______ _______ _______ _____ _____    ______ ____
ROOT
ATOM      1  N   UNL     1      33.724  -8.839 -23.928  0.00  0.00    -0.309 N 
ATOM      2  N   UNL     1      32.828 -10.298 -22.400  0.00  0.00    -0.321 NA
ATOM      3  N   UNL     1      32.895 -12.653 -22.868  0.00  0.00    -0.106 N 
ATOM      4  N   UNL     1      32.503 -13.813 -22.275  0.00  0.00    -0.139 NA
ATOM      5  N   UNL     1      31.954 -12.039 -20.959  0.00  0.00    -0.145 NA
ATOM      6  C   UNL     1      33.435 -10.093 -23.545  0.00  0.00    +0.196 C 
ATOM      7  C   UNL     1      33.829 -11.213 -24.470  0.00  0.00    +0.081 C 
ATOM      8  C   UNL     1      33.541 -12.467 -24.092  0.00  0.00    +0.140 C 
ATOM      9  C   UNL     1      32.548 -11.581 -22.043  0.00  0.00    +0.176 C 
ATOM     10  C   UNL     1      31.952 -13.383 -21.145  0.00  0.00    +0.230 C 
ATOM     11  H   UNL     1      34.165  -8.702 -24.797  0.00  0.00    +0.149 HD
ENDROOT
BRANCH   1  12
ATOM     12  C   UNL     1      33.416  -7.677 -23.115  0.00  0.00    +0.071 C 
ATOM     13  C   UNL     1      34.474  -6.590 -23.327  0.00  0.00    +0.020 C 
ATOM     14  C   UNL     1      32.010  -7.165 -23.445  0.00  0.00    +0.020 C 
ATOM     15  C   UNL     1      34.383  -5.935 -24.706  0.00  0.00    +0.002 C 
ATOM     16  C   UNL     1      31.927  -6.507 -24.822  0.00  0.00    +0.002 C 
ATOM     17  C   UNL     1      32.978  -5.414 -24.989  0.00  0.00    +0.000 C 
ENDBRANCH   1  12
BRANCH   8  18
ATOM     18  N   UNL     1      33.837 -13.578 -24.828  0.00  0.00    -0.299 N 
ATOM     19  H   UNL     1      33.658 -13.514 -25.793  0.00  0.00    +0.153 HD
BRANCH  18  20
ATOM     20  C   UNL     1      34.365 -14.796 -24.385  0.00  0.00    +0.049 C 
ATOM     21  C   UNL     1      34.900 -14.899 -23.100  0.00  0.00    +0.016 C 
ATOM     22  C   UNL     1      34.356 -15.908 -25.227  0.00  0.00    +0.016 C 
ATOM     23  C   UNL     1      35.416 -17.225 -23.503  0.00  0.00    +0.122 C 
ATOM     24  C   UNL     1      35.425 -16.114 -22.659  0.00  0.00    +0.021 C 
ATOM     25  C   UNL     1      34.882 -17.122 -24.786  0.00  0.00    +0.021 C 
BRANCH  23  26
ATOM     26  S   UNL     1      36.074 -18.745 -22.950  0.00  0.00    +0.057 S 
ATOM     27  O   UNL     1      35.448 -19.819 -23.708  0.00  0.00    -0.153 OA
ATOM     28  O   UNL     1      37.526 -18.635 -22.913  0.00  0.00    -0.153 OA
BRANCH  26  29
ATOM     29  N   UNL     1      35.486 -18.789 -21.345  0.00  0.00    -0.203 NA
ATOM     30  H   UNL     1      35.870 -19.602 -20.865  0.00  0.00    +0.144 HD
ATOM     31  H   UNL     1      34.468 -18.851 -21.357  0.00  0.00    +0.144 HD
ENDBRANCH  26  29
ENDBRANCH  23  26
ENDBRANCH  18  20
ENDBRANCH   8  18
TORSDOF 5
ENDMDL
MODEL 8
REMARK VINA RESULT:      -9.0      5.378     11.080
REMARK  Name = 23586146
REMARK  5 active torsions:
REMARK  status: ('A' for Active; 'I' for Inactive)
REMARK    1  A    between atoms: N_1  and  C_12
REMARK    2  A    between atoms: C_8  and  N_18
REMARK    3  A    between atoms: N_18  and  C_20
REMARK    4  A    between atoms: C_23  and  S_26
REMARK    5  A    between atoms: S_26  and  N_29
REMARK                            x       y       z     vdW  Elec       q    Type
REMARK                         _______ _______ _______ _____ _____    ______ ____
ROOT
ATOM      1  N   UNL     1      34.492 -13.886 -23.736  0.00  0.00    -0.309 N 
ATOM      2  N   UNL     1      34.073 -15.811 -24.915  0.00  0.00    -0.321 NA
ATOM      3  N   UNL     1      34.974 -17.885 -24.104  0.00  0.00    -0.106 N 
ATOM      4  N   UNL     1      34.975 -19.196 -24.465  0.00  0.00    -0.139 NA
ATOM      5  N   UNL     1      33.780 -17.973 -25.968  0.00  0.00    -0.145 NA
ATOM      6  C   UNL     1      34.631 -15.213 -23.889  0.00  0.00    +0.196 C 
ATOM      7  C   UNL     1      35.437 -15.951 -22.854  0.00  0.00    +0.081 C 
ATOM      8  C   UNL     1      35.579 -17.277 -23.002  0.00  0.00    +0.140 C 
ATOM      9  C   UNL     1      34.236 -17.156 -25.039  0.00  0.00    +0.176 C 
ATOM     10  C   UNL     1      34.250 -19.185 -25.579  0.00  0.00    +0.230 C 
ATOM     11  H   UNL     1      34.930 -13.450 -22.970  0.00  0.00    +0.149 HD
ENDROOT
BRANCH   1  12
ATOM     12  C   UNL     1      33.722 -13.066 -24.654  0.00  0.00    +0.071 C 
ATOM     13  C   UNL     1      32.405 -12.637 -23.999  0.00  0.00    +0.020 C 
ATOM     14  C   UNL     1      34.550 -11.855 -25.096  0.00  0.00    +0.020 C 
ATOM     15  C   UNL     1      32.605 -11.609 -22.885  0.00  0.00    +0.002 C 
ATOM     16  C   UNL     1      34.741 -10.829 -23.980  0.00  0.00    +0.002 C 
ATOM     17  C   UNL     1      33.409 -10.406 -23.367  0.00  0.00    +0.000 C 
ENDBRANCH   1  12
BRANCH   8  18
ATOM     18  N   UNL     1      36.281 -18.074 -22.144  0.00  0.00    -0.299 N 
ATOM     19  H   UNL     1      37.229 -17.841 -22.019  0.00  0.00    +0.153 HD
BRANCH  18  20
ATOM     20  C   UNL     1      35.825 -19.180 -21.418  0.00  0.00    +0.049 C 
ATOM     21  C   UNL     1      36.737 -20.017 -20.774  0.00  0.00    +0.016 C 
ATOM     22  C   UNL     1      34.458 -19.447 -21.339  0.00  0.00    +0.016 C 
ATOM     23  C   UNL     1      34.914 -21.386 -19.972  0.00  0.00    +0.122 C 
ATOM     24  C   UNL     1      36.282 -21.119 -20.050  0.00  0.00    +0.021 C 
ATOM     25  C   UNL     1      34.004 -20.549 -20.616  0.00  0.00    +0.021 C 
BRANCH  23  26
ATOM     26  S   UNL     1      34.346 -22.765 -19.066  0.00  0.00    +0.057 S 
ATOM     27  O   UNL     1      34.266 -23.906 -19.968  0.00  0.00    -0.153 OA
ATOM     28  O   UNL     1      35.124 -22.867 -17.839  0.00  0.00    -0.153 OA
BRANCH  26  29
ATOM     29  N   UNL     1      32.761 -22.265 -18.670  0.00  0.00    -0.203 NA
ATOM     30  H   UNL     1      32.749 -21.885 -17.725  0.00  0.00    +0.144 HD
ATOM     31  H   UNL     1      32.129 -23.064 -18.723  0.00  0.00    +0.144 HD
ENDBRANCH  26  29
ENDBRANCH  23  26
ENDBRANCH  18  20
ENDBRANCH   8  18
TORSDOF 5
ENDMDL
