MODEL 1
REMARK VINA RESULT:     -12.1      0.000      0.000
REMARK  Name = 24755471
REMARK  13 active torsions:
REMARK  status: ('A' for Active; 'I' for Inactive)
REMARK    1  A    between atoms: C_1  and  S_11
REMARK    2  A    between atoms: C_9  and  O_27
REMARK    3  A    between atoms: S_11  and  N_14
REMARK    4  A    between atoms: N_14  and  C_16
REMARK    5  A    between atoms: C_16  and  C_18
REMARK    6  A    between atoms: C_16  and  C_21
REMARK    7  A    between atoms: C_18  and  O_19
REMARK    8  A    between atoms: C_21  and  C_22
REMARK    9  A    between atoms: C_22  and  C_24
REMARK   10  A    between atoms: C_24  and  O_25
REMARK   11  A    between atoms: O_27  and  C_28
REMARK   12  A    between atoms: C_28  and  C_29
REMARK   13  A    between atoms: C_34  and  C_36
REMARK                            x       y       z     vdW  Elec       q    Type
REMARK                         _______ _______ _______ _____ _____    ______ ____
ROOT
ATOM      1  C   UNL     1      36.091 -23.382 -15.805  0.00  0.00    +0.122 C 
ATOM      2  C   UNL     1      34.907 -22.636 -17.795  0.00  0.00    +0.002 C 
ATOM      3  C   UNL     1      34.928 -23.330 -16.575  0.00  0.00    +0.020 C 
ATOM      4  C   UNL     1      36.081 -21.985 -18.242  0.00  0.00    +0.003 C 
ATOM      5  C   UNL     1      37.246 -22.742 -16.245  0.00  0.00    +0.020 C 
ATOM      6  C   UNL     1      37.243 -22.048 -17.455  0.00  0.00    +0.001 C 
ATOM      7  C   UNL     1      36.060 -21.292 -19.463  0.00  0.00    +0.037 C 
ATOM      8  C   UNL     1      33.745 -22.574 -18.583  0.00  0.00    +0.003 C 
ATOM      9  C   UNL     1      34.897 -21.240 -20.232  0.00  0.00    +0.139 C 
ATOM     10  C   UNL     1      33.742 -21.880 -19.794  0.00  0.00    +0.037 C 
ENDROOT
BRANCH   1  11
ATOM     11  S   UNL     1      36.096 -24.260 -14.271  0.00  0.00    +0.061 S 
ATOM     12  O   UNL     1      34.904 -23.884 -13.537  0.00  0.00    -0.153 OA
ATOM     13  O   UNL     1      36.352 -25.653 -14.583  0.00  0.00    -0.153 OA
BRANCH  11  14
ATOM     14  N   UNL     1      37.464 -23.608 -13.499  0.00  0.00    -0.170 NA
ATOM     15  H   UNL     1      37.157 -22.759 -13.026  0.00  0.00    +0.149 HD
BRANCH  14  16
ATOM     16  C   UNL     1      38.202 -24.413 -12.501  0.00  0.00    +0.174 C 
BRANCH  16  18
ATOM     17  O   UNL     1      36.697 -24.346 -10.591  0.00  0.00    -0.249 OA
ATOM     18  C   UNL     1      37.200 -24.970 -11.517  0.00  0.00    +0.330 C 
BRANCH  18  19
ATOM     19  O   UNL     1      36.890 -26.265 -11.782  0.00  0.00    -0.479 OA
ATOM     20  H   UNL     1      35.999 -26.511 -11.936  0.00  0.00    +0.295 HD
ENDBRANCH  18  19
ENDBRANCH  16  18
BRANCH  16  21
ATOM     21  C   UNL     1      39.067 -25.469 -13.199  0.00  0.00    +0.040 C 
BRANCH  21  22
ATOM     22  C   UNL     1      39.712 -25.053 -14.524  0.00  0.00    +0.111 C 
BRANCH  22  24
ATOM     23  O   UNL     1      41.384 -26.791 -14.380  0.00  0.00    -0.250 OA
ATOM     24  C   UNL     1      40.682 -26.068 -15.075  0.00  0.00    +0.314 C 
BRANCH  24  25
ATOM     25  O   UNL     1      40.710 -26.085 -16.432  0.00  0.00    -0.480 OA
ATOM     26  H   UNL     1      41.149 -26.780 -16.882  0.00  0.00    +0.295 HD
ENDBRANCH  24  25
ENDBRANCH  22  24
ENDBRANCH  21  22
ENDBRANCH  16  21
ENDBRANCH  14  16
ENDBRANCH  11  14
ENDBRANCH   1  11
BRANCH   9  27
ATOM     27  O   UNL     1      34.892 -20.562 -21.413  0.00  0.00    -0.471 OA
BRANCH  27  28
ATOM     28  C   UNL     1      35.884 -19.552 -21.585  0.00  0.00    +0.232 C 
BRANCH  28  29
ATOM     29  C   UNL     1      35.481 -18.657 -22.720  0.00  0.00    +0.021 C 
ATOM     30  C   UNL     1      35.665 -17.278 -22.620  0.00  0.00    -0.000 C 
ATOM     31  C   UNL     1      34.921 -19.205 -23.875  0.00  0.00    -0.000 C 
ATOM     32  C   UNL     1      35.289 -16.447 -23.675  0.00  0.00    +0.010 C 
ATOM     33  C   UNL     1      34.546 -18.373 -24.929  0.00  0.00    +0.010 C 
ATOM     34  C   UNL     1      34.729 -16.994 -24.829  0.00  0.00    +0.068 C 
BRANCH  34  36
ATOM     35  N   UNL     1      34.033 -15.449 -26.788  0.00  0.00    -0.191 NA
ATOM     36  C   UNL     1      34.345 -16.141 -25.910  0.00  0.00    +0.100 C 
ENDBRANCH  34  36
ENDBRANCH  28  29
ENDBRANCH  27  28
ENDBRANCH   9  27
TORSDOF 13
ENDMDL
MODEL 2
REMARK VINA RESULT:     -12.1      1.288      3.085
REMARK  Name = 24755471
REMARK  13 active torsions:
REMARK  status: ('A' for Active; 'I' for Inactive)
REMARK    1  A    between atoms: C_1  and  S_11
REMARK    2  A    between atoms: C_9  and  O_27
REMARK    3  A    between atoms: S_11  and  N_14
REMARK    4  A    between atoms: N_14  and  C_16
REMARK    5  A    between atoms: C_16  and  C_18
REMARK    6  A    between atoms: C_16  and  C_21
REMARK    7  A    between atoms: C_18  and  O_19
REMARK    8  A    between atoms: C_21  and  C_22
REMARK    9  A    between atoms: C_22  and  C_24
REMARK   10  A    between atoms: C_24  and  O_25
REMARK   11  A    between atoms: O_27  and  C_28
REMARK   12  A    between atoms: C_28  and  C_29
REMARK   13  A    between atoms: C_34  and  C_36
REMARK                            x       y       z     vdW  Elec       q    Type
REMARK                         _______ _______ _______ _____ _____    ______ ____
ROOT
ATOM      1  C   UNL     1      34.885 -23.555 -16.714  0.00  0.00    +0.122 C 
ATOM      2  C   UNL     1      35.750 -22.078 -18.444  0.00  0.00    +0.002 C 
ATOM      3  C   UNL     1      35.945 -22.850 -17.287  0.00  0.00    +0.020 C 
ATOM      4  C   UNL     1      34.462 -22.020 -19.029  0.00  0.00    +0.003 C 
ATOM      5  C   UNL     1      33.620 -23.498 -17.289  0.00  0.00    +0.020 C 
ATOM      6  C   UNL     1      33.408 -22.736 -18.439  0.00  0.00    +0.001 C 
ATOM      7  C   UNL     1      34.267 -21.249 -20.185  0.00  0.00    +0.037 C 
ATOM      8  C   UNL     1      36.805 -21.361 -19.033  0.00  0.00    +0.003 C 
ATOM      9  C   UNL     1      35.327 -20.544 -20.758  0.00  0.00    +0.139 C 
ATOM     10  C   UNL     1      36.593 -20.600 -20.183  0.00  0.00    +0.037 C 
ENDROOT
BRANCH   1  11
ATOM     11  S   UNL     1      35.153 -24.521 -15.258  0.00  0.00    +0.061 S 
ATOM     12  O   UNL     1      34.133 -24.162 -14.291  0.00  0.00    -0.153 OA
ATOM     13  O   UNL     1      35.301 -25.898 -15.686  0.00  0.00    -0.153 OA
BRANCH  11  14
ATOM     14  N   UNL     1      36.661 -23.943 -14.728  0.00  0.00    -0.170 NA
ATOM     15  H   UNL     1      36.474 -23.148 -14.118  0.00  0.00    +0.149 HD
BRANCH  14  16
ATOM     16  C   UNL     1      37.578 -24.841 -13.991  0.00  0.00    +0.174 C 
BRANCH  16  18
ATOM     17  O   UNL     1      39.832 -24.626 -14.880  0.00  0.00    -0.249 OA
ATOM     18  C   UNL     1      38.737 -25.174 -14.901  0.00  0.00    +0.330 C 
BRANCH  18  19
ATOM     19  O   UNL     1      38.441 -26.187 -15.756  0.00  0.00    -0.479 OA
ATOM     20  H   UNL     1      39.040 -26.899 -15.864  0.00  0.00    +0.295 HD
ENDBRANCH  18  19
ENDBRANCH  16  18
BRANCH  16  21
ATOM     21  C   UNL     1      37.978 -24.214 -12.651  0.00  0.00    +0.040 C 
BRANCH  21  22
ATOM     22  C   UNL     1      36.871 -23.489 -11.880  0.00  0.00    +0.111 C 
BRANCH  22  24
ATOM     23  O   UNL     1      36.179 -24.469  -9.784  0.00  0.00    -0.250 OA
ATOM     24  C   UNL     1      36.048 -24.393 -10.999  0.00  0.00    +0.314 C 
BRANCH  24  25
ATOM     25  O   UNL     1      35.150 -25.133 -11.698  0.00  0.00    -0.480 OA
ATOM     26  H   UNL     1      34.556 -24.713 -12.288  0.00  0.00    +0.295 HD
ENDBRANCH  24  25
ENDBRANCH  22  24
ENDBRANCH  21  22
ENDBRANCH  16  21
ENDBRANCH  14  16
ENDBRANCH  11  14
ENDBRANCH   1  11
BRANCH   9  27
ATOM     27  O   UNL     1      35.122 -19.802 -21.880  0.00  0.00    -0.471 OA
BRANCH  27  28
ATOM     28  C   UNL     1      36.048 -18.748 -22.140  0.00  0.00    +0.232 C 
BRANCH  28  29
ATOM     29  C   UNL     1      35.506 -17.879 -23.237  0.00  0.00    +0.021 C 
ATOM     30  C   UNL     1      35.584 -16.490 -23.128  0.00  0.00    -0.000 C 
ATOM     31  C   UNL     1      34.924 -18.458 -24.364  0.00  0.00    -0.000 C 
ATOM     32  C   UNL     1      35.080 -15.682 -24.146  0.00  0.00    +0.010 C 
ATOM     33  C   UNL     1      34.420 -17.650 -25.382  0.00  0.00    +0.010 C 
ATOM     34  C   UNL     1      34.497 -16.262 -25.273  0.00  0.00    +0.068 C 
BRANCH  34  36
ATOM     35  N   UNL     1      33.563 -14.760 -27.165  0.00  0.00    -0.191 NA
ATOM     36  C   UNL     1      33.982 -15.433 -26.317  0.00  0.00    +0.100 C 
ENDBRANCH  34  36
ENDBRANCH  28  29
ENDBRANCH  27  28
ENDBRANCH   9  27
TORSDOF 13
ENDMDL
MODEL 3
REMARK VINA RESULT:     -12.0      0.948      2.710
REMARK  Name = 24755471
REMARK  13 active torsions:
REMARK  status: ('A' for Active; 'I' for Inactive)
REMARK    1  A    between atoms: C_1  and  S_11
REMARK    2  A    between atoms: C_9  and  O_27
REMARK    3  A    between atoms: S_11  and  N_14
REMARK    4  A    between atoms: N_14  and  C_16
REMARK    5  A    between atoms: C_16  and  C_18
REMARK    6  A    between atoms: C_16  and  C_21
REMARK    7  A    between atoms: C_18  and  O_19
REMARK    8  A    between atoms: C_21  and  C_22
REMARK    9  A    between atoms: C_22  and  C_24
REMARK   10  A    between atoms: C_24  and  O_25
REMARK   11  A    between atoms: O_27  and  C_28
REMARK   12  A    between atoms: C_28  and  C_29
REMARK   13  A    between atoms: C_34  and  C_36
REMARK                            x       y       z     vdW  Elec       q    Type
REMARK                         _______ _______ _______ _____ _____    ______ ____
ROOT
ATOM      1  C   UNL     1      36.234 -23.049 -16.771  0.00  0.00    +0.122 C 
ATOM      2  C   UNL     1      34.889 -22.149 -18.588  0.00  0.00    +0.002 C 
ATOM      3  C   UNL     1      35.008 -22.930 -17.427  0.00  0.00    +0.020 C 
ATOM      4  C   UNL     1      36.030 -21.480 -19.092  0.00  0.00    +0.003 C 
ATOM      5  C   UNL     1      37.355 -22.391 -17.266  0.00  0.00    +0.020 C 
ATOM      6  C   UNL     1      37.256 -21.611 -18.419  0.00  0.00    +0.001 C 
ATOM      7  C   UNL     1      35.911 -20.700 -20.253  0.00  0.00    +0.037 C 
ATOM      8  C   UNL     1      33.663 -22.019 -19.261  0.00  0.00    +0.003 C 
ATOM      9  C   UNL     1      34.685 -20.581 -20.909  0.00  0.00    +0.139 C 
ATOM     10  C   UNL     1      33.563 -21.239 -20.414  0.00  0.00    +0.037 C 
ENDROOT
BRANCH   1  11
ATOM     11  S   UNL     1      36.361 -24.036 -15.310  0.00  0.00    +0.061 S 
ATOM     12  O   UNL     1      35.817 -23.271 -14.205  0.00  0.00    -0.153 OA
ATOM     13  O   UNL     1      35.816 -25.340 -15.633  0.00  0.00    -0.153 OA
BRANCH  11  14
ATOM     14  N   UNL     1      38.046 -24.173 -15.127  0.00  0.00    -0.170 NA
ATOM     15  H   UNL     1      38.315 -23.523 -14.389  0.00  0.00    +0.149 HD
BRANCH  14  16
ATOM     16  C   UNL     1      38.647 -25.481 -14.786  0.00  0.00    +0.174 C 
BRANCH  16  18
ATOM     17  O   UNL     1      40.977 -25.005 -14.273  0.00  0.00    -0.249 OA
ATOM     18  C   UNL     1      40.129 -25.402 -15.064  0.00  0.00    +0.330 C 
BRANCH  18  19
ATOM     19  O   UNL     1      40.441 -25.846 -16.309  0.00  0.00    -0.479 OA
ATOM     20  H   UNL     1      40.531 -25.237 -17.015  0.00  0.00    +0.295 HD
ENDBRANCH  18  19
ENDBRANCH  16  18
BRANCH  16  21
ATOM     21  C   UNL     1      38.288 -25.876 -13.348  0.00  0.00    +0.040 C 
BRANCH  21  22
ATOM     22  C   UNL     1      38.228 -24.739 -12.324  0.00  0.00    +0.111 C 
BRANCH  22  24
ATOM     23  O   UNL     1      36.876 -24.167 -10.406  0.00  0.00    -0.250 OA
ATOM     24  C   UNL     1      36.977 -24.741 -11.483  0.00  0.00    +0.314 C 
BRANCH  24  25
ATOM     25  O   UNL     1      35.971 -25.462 -12.039  0.00  0.00    -0.480 OA
ATOM     26  H   UNL     1      35.221 -25.692 -11.526  0.00  0.00    +0.295 HD
ENDBRANCH  24  25
ENDBRANCH  22  24
ENDBRANCH  21  22
ENDBRANCH  16  21
ENDBRANCH  14  16
ENDBRANCH  11  14
ENDBRANCH   1  11
BRANCH   9  27
ATOM     27  O   UNL     1      34.586 -19.819 -22.033  0.00  0.00    -0.471 OA
BRANCH  27  28
ATOM     28  C   UNL     1      35.666 -18.929 -22.311  0.00  0.00    +0.232 C 
BRANCH  28  29
ATOM     29  C   UNL     1      35.247 -17.973 -23.389  0.00  0.00    +0.021 C 
ATOM     30  C   UNL     1      35.440 -16.602 -23.219  0.00  0.00    -0.000 C 
ATOM     31  C   UNL     1      34.665 -18.455 -24.561  0.00  0.00    -0.000 C 
ATOM     32  C   UNL     1      35.051 -15.714 -24.221  0.00  0.00    +0.010 C 
ATOM     33  C   UNL     1      34.276 -17.567 -25.563  0.00  0.00    +0.010 C 
ATOM     34  C   UNL     1      34.468 -16.196 -25.393  0.00  0.00    +0.068 C 
BRANCH  34  36
ATOM     35  N   UNL     1      33.746 -14.546 -27.254  0.00  0.00    -0.191 NA
ATOM     36  C   UNL     1      34.070 -15.285 -26.420  0.00  0.00    +0.100 C 
ENDBRANCH  34  36
ENDBRANCH  28  29
ENDBRANCH  27  28
ENDBRANCH   9  27
TORSDOF 13
ENDMDL
MODEL 4
REMARK VINA RESULT:     -11.9      1.144      2.037
REMARK  Name = 24755471
REMARK  13 active torsions:
REMARK  status: ('A' for Active; 'I' for Inactive)
REMARK    1  A    between atoms: C_1  and  S_11
REMARK    2  A    between atoms: C_9  and  O_27
REMARK    3  A    between atoms: S_11  and  N_14
REMARK    4  A    between atoms: N_14  and  C_16
REMARK    5  A    between atoms: C_16  and  C_18
REMARK    6  A    between atoms: C_16  and  C_21
REMARK    7  A    between atoms: C_18  and  O_19
REMARK    8  A    between atoms: C_21  and  C_22
REMARK    9  A    between atoms: C_22  and  C_24
REMARK   10  A    between atoms: C_24  and  O_25
REMARK   11  A    between atoms: O_27  and  C_28
REMARK   12  A    between atoms: C_28  and  C_29
REMARK   13  A    between atoms: C_34  and  C_36
REMARK                            x       y       z     vdW  Elec       q    Type
REMARK                         _______ _______ _______ _____ _____    ______ ____
ROOT
ATOM      1  C   UNL     1      34.420 -23.704 -15.900  0.00  0.00    +0.122 C 
ATOM      2  C   UNL     1      35.547 -22.472 -17.670  0.00  0.00    +0.002 C 
ATOM      3  C   UNL     1      35.574 -23.121 -16.425  0.00  0.00    +0.020 C 
ATOM      4  C   UNL     1      34.333 -22.415 -18.395  0.00  0.00    +0.003 C 
ATOM      5  C   UNL     1      33.226 -23.647 -16.613  0.00  0.00    +0.020 C 
ATOM      6  C   UNL     1      33.180 -23.007 -17.852  0.00  0.00    +0.001 C 
ATOM      7  C   UNL     1      34.306 -21.766 -19.640  0.00  0.00    +0.037 C 
ATOM      8  C   UNL     1      36.699 -21.879 -18.213  0.00  0.00    +0.003 C 
ATOM      9  C   UNL     1      35.460 -21.183 -20.164  0.00  0.00    +0.139 C 
ATOM     10  C   UNL     1      36.654 -21.239 -19.452  0.00  0.00    +0.037 C 
ENDROOT
BRANCH   1  11
ATOM     11  S   UNL     1      34.475 -24.516 -14.331  0.00  0.00    +0.061 S 
ATOM     12  O   UNL     1      34.880 -23.540 -13.338  0.00  0.00    -0.153 OA
ATOM     13  O   UNL     1      33.224 -25.233 -14.182  0.00  0.00    -0.153 OA
BRANCH  11  14
ATOM     14  N   UNL     1      35.730 -25.639 -14.563  0.00  0.00    -0.170 NA
ATOM     15  H   UNL     1      35.800 -25.798 -15.567  0.00  0.00    +0.149 HD
BRANCH  14  16
ATOM     16  C   UNL     1      37.095 -25.331 -14.082  0.00  0.00    +0.174 C 
BRANCH  16  18
ATOM     17  O   UNL     1      37.004 -26.687 -12.065  0.00  0.00    -0.249 OA
ATOM     18  C   UNL     1      37.136 -25.591 -12.595  0.00  0.00    +0.330 C 
BRANCH  18  19
ATOM     19  O   UNL     1      37.361 -24.456 -11.883  0.00  0.00    -0.479 OA
ATOM     20  H   UNL     1      38.028 -23.858 -12.154  0.00  0.00    +0.295 HD
ENDBRANCH  18  19
ENDBRANCH  16  18
BRANCH  16  21
ATOM     21  C   UNL     1      38.137 -26.107 -14.895  0.00  0.00    +0.040 C 
BRANCH  21  22
ATOM     22  C   UNL     1      39.549 -26.174 -14.306  0.00  0.00    +0.111 C 
BRANCH  22  24
ATOM     23  O   UNL     1      41.362 -24.656 -14.803  0.00  0.00    -0.250 OA
ATOM     24  C   UNL     1      40.605 -25.542 -15.178  0.00  0.00    +0.314 C 
BRANCH  24  25
ATOM     25  O   UNL     1      40.618 -26.049 -16.437  0.00  0.00    -0.480 OA
ATOM     26  H   UNL     1      41.350 -26.554 -16.731  0.00  0.00    +0.295 HD
ENDBRANCH  24  25
ENDBRANCH  22  24
ENDBRANCH  21  22
ENDBRANCH  16  21
ENDBRANCH  14  16
ENDBRANCH  11  14
ENDBRANCH   1  11
BRANCH   9  27
ATOM     27  O   UNL     1      35.418 -20.560 -21.373  0.00  0.00    -0.471 OA
BRANCH  27  28
ATOM     28  C   UNL     1      36.221 -19.391 -21.530  0.00  0.00    +0.232 C 
BRANCH  28  29
ATOM     29  C   UNL     1      35.690 -18.581 -22.676  0.00  0.00    +0.021 C 
ATOM     30  C   UNL     1      35.097 -19.220 -23.765  0.00  0.00    -0.000 C 
ATOM     31  C   UNL     1      35.791 -17.190 -22.653  0.00  0.00    -0.000 C 
ATOM     32  C   UNL     1      34.604 -18.468 -24.830  0.00  0.00    +0.010 C 
ATOM     33  C   UNL     1      35.299 -16.438 -23.718  0.00  0.00    +0.010 C 
ATOM     34  C   UNL     1      34.705 -17.076 -24.807  0.00  0.00    +0.068 C 
BRANCH  34  36
ATOM     35  N   UNL     1      33.789 -15.679 -26.786  0.00  0.00    -0.191 NA
ATOM     36  C   UNL     1      34.199 -16.305 -25.900  0.00  0.00    +0.100 C 
ENDBRANCH  34  36
ENDBRANCH  28  29
ENDBRANCH  27  28
ENDBRANCH   9  27
TORSDOF 13
ENDMDL
MODEL 5
REMARK VINA RESULT:     -11.6      4.092      6.351
REMARK  Name = 24755471
REMARK  13 active torsions:
REMARK  status: ('A' for Active; 'I' for Inactive)
REMARK    1  A    between atoms: C_1  and  S_11
REMARK    2  A    between atoms: C_9  and  O_27
REMARK    3  A    between atoms: S_11  and  N_14
REMARK    4  A    between atoms: N_14  and  C_16
REMARK    5  A    between atoms: C_16  and  C_18
REMARK    6  A    between atoms: C_16  and  C_21
REMARK    7  A    between atoms: C_18  and  O_19
REMARK    8  A    between atoms: C_21  and  C_22
REMARK    9  A    between atoms: C_22  and  C_24
REMARK   10  A    between atoms: C_24  and  O_25
REMARK   11  A    between atoms: O_27  and  C_28
REMARK   12  A    between atoms: C_28  and  C_29
REMARK   13  A    between atoms: C_34  and  C_36
REMARK                            x       y       z     vdW  Elec       q    Type
REMARK                         _______ _______ _______ _____ _____    ______ ____
ROOT
ATOM      1  C   UNL     1      34.273 -22.106 -19.077  0.00  0.00    +0.122 C 
ATOM      2  C   UNL     1      35.735 -20.649 -20.365  0.00  0.00    +0.002 C 
ATOM      3  C   UNL     1      35.550 -21.633 -19.381  0.00  0.00    +0.020 C 
ATOM      4  C   UNL     1      34.609 -20.137 -21.053  0.00  0.00    +0.003 C 
ATOM      5  C   UNL     1      33.166 -21.602 -19.753  0.00  0.00    +0.020 C 
ATOM      6  C   UNL     1      33.331 -20.624 -20.735  0.00  0.00    +0.001 C 
ATOM      7  C   UNL     1      34.794 -19.154 -22.038  0.00  0.00    +0.037 C 
ATOM      8  C   UNL     1      37.014 -20.162 -20.683  0.00  0.00    +0.003 C 
ATOM      9  C   UNL     1      36.072 -18.681 -22.340  0.00  0.00    +0.139 C 
ATOM     10  C   UNL     1      37.179 -19.184 -21.665  0.00  0.00    +0.037 C 
ENDROOT
BRANCH   1  11
ATOM     11  S   UNL     1      34.062 -23.345 -17.834  0.00  0.00    +0.061 S 
ATOM     12  O   UNL     1      33.680 -24.578 -18.494  0.00  0.00    -0.153 OA
ATOM     13  O   UNL     1      35.241 -23.302 -16.991  0.00  0.00    -0.153 OA
BRANCH  11  14
ATOM     14  N   UNL     1      32.737 -22.739 -16.958  0.00  0.00    -0.170 NA
ATOM     15  H   UNL     1      32.129 -22.272 -17.630  0.00  0.00    +0.149 HD
BRANCH  14  16
ATOM     16  C   UNL     1      31.884 -23.661 -16.177  0.00  0.00    +0.174 C 
BRANCH  16  18
ATOM     17  O   UNL     1      32.577 -25.154 -14.386  0.00  0.00    -0.249 OA
ATOM     18  C   UNL     1      32.643 -24.060 -14.934  0.00  0.00    +0.330 C 
BRANCH  18  19
ATOM     19  O   UNL     1      33.445 -23.062 -14.482  0.00  0.00    -0.479 OA
ATOM     20  H   UNL     1      33.655 -22.341 -15.040  0.00  0.00    +0.295 HD
ENDBRANCH  18  19
ENDBRANCH  16  18
BRANCH  16  21
ATOM     21  C   UNL     1      30.513 -23.028 -15.913  0.00  0.00    +0.040 C 
BRANCH  21  22
ATOM     22  C   UNL     1      29.290 -23.892 -16.234  0.00  0.00    +0.111 C 
BRANCH  22  24
ATOM     23  O   UNL     1      28.045 -22.024 -17.126  0.00  0.00    -0.250 OA
ATOM     24  C   UNL     1      28.292 -23.223 -17.146  0.00  0.00    +0.314 C 
BRANCH  24  25
ATOM     25  O   UNL     1      27.679 -24.095 -17.985  0.00  0.00    -0.480 OA
ATOM     26  H   UNL     1      27.936 -24.137 -18.885  0.00  0.00    +0.295 HD
ENDBRANCH  24  25
ENDBRANCH  22  24
ENDBRANCH  21  22
ENDBRANCH  16  21
ENDBRANCH  14  16
ENDBRANCH  11  14
ENDBRANCH   1  11
BRANCH   9  27
ATOM     27  O   UNL     1      36.235 -17.729 -23.299  0.00  0.00    -0.471 OA
BRANCH  27  28
ATOM     28  C   UNL     1      35.130 -17.488 -24.170  0.00  0.00    +0.232 C 
BRANCH  28  29
ATOM     29  C   UNL     1      34.800 -16.025 -24.149  0.00  0.00    +0.021 C 
ATOM     30  C   UNL     1      34.228 -15.423 -25.270  0.00  0.00    -0.000 C 
ATOM     31  C   UNL     1      35.065 -15.265 -23.009  0.00  0.00    -0.000 C 
ATOM     32  C   UNL     1      33.921 -14.063 -25.251  0.00  0.00    +0.010 C 
ATOM     33  C   UNL     1      34.758 -13.905 -22.990  0.00  0.00    +0.010 C 
ATOM     34  C   UNL     1      34.186 -13.304 -24.111  0.00  0.00    +0.068 C 
BRANCH  34  36
ATOM     35  N   UNL     1      33.615 -10.778 -24.076  0.00  0.00    -0.191 NA
ATOM     36  C   UNL     1      33.871 -11.910 -24.092  0.00  0.00    +0.100 C 
ENDBRANCH  34  36
ENDBRANCH  28  29
ENDBRANCH  27  28
ENDBRANCH   9  27
TORSDOF 13
ENDMDL
MODEL 6
REMARK VINA RESULT:     -11.4      2.551      4.306
REMARK  Name = 24755471
REMARK  13 active torsions:
REMARK  status: ('A' for Active; 'I' for Inactive)
REMARK    1  A    between atoms: C_1  and  S_11
REMARK    2  A    between atoms: C_9  and  O_27
REMARK    3  A    between atoms: S_11  and  N_14
REMARK    4  A    between atoms: N_14  and  C_16
REMARK    5  A    between atoms: C_16  and  C_18
REMARK    6  A    between atoms: C_16  and  C_21
REMARK    7  A    between atoms: C_18  and  O_19
REMARK    8  A    between atoms: C_21  and  C_22
REMARK    9  A    between atoms: C_22  and  C_24
REMARK   10  A    between atoms: C_24  and  O_25
REMARK   11  A    between atoms: O_27  and  C_28
REMARK   12  A    between atoms: C_28  and  C_29
REMARK   13  A    between atoms: C_34  and  C_36
REMARK                            x       y       z     vdW  Elec       q    Type
REMARK                         _______ _______ _______ _____ _____    ______ ____
ROOT
ATOM      1  C   UNL     1      34.214 -22.064 -19.089  0.00  0.00    +0.122 C 
ATOM      2  C   UNL     1      35.692 -20.627 -20.382  0.00  0.00    +0.002 C 
ATOM      3  C   UNL     1      35.497 -21.607 -19.396  0.00  0.00    +0.020 C 
ATOM      4  C   UNL     1      34.571 -20.102 -21.068  0.00  0.00    +0.003 C 
ATOM      5  C   UNL     1      33.112 -21.547 -19.763  0.00  0.00    +0.020 C 
ATOM      6  C   UNL     1      33.287 -20.572 -20.746  0.00  0.00    +0.001 C 
ATOM      7  C   UNL     1      34.766 -19.121 -22.054  0.00  0.00    +0.037 C 
ATOM      8  C   UNL     1      36.976 -20.156 -20.704  0.00  0.00    +0.003 C 
ATOM      9  C   UNL     1      36.048 -18.665 -22.360  0.00  0.00    +0.139 C 
ATOM     10  C   UNL     1      37.151 -19.181 -21.687  0.00  0.00    +0.037 C 
ENDROOT
BRANCH   1  11
ATOM     11  S   UNL     1      33.991 -23.299 -17.844  0.00  0.00    +0.061 S 
ATOM     12  O   UNL     1      33.005 -22.808 -16.901  0.00  0.00    -0.153 OA
ATOM     13  O   UNL     1      33.781 -24.558 -18.531  0.00  0.00    -0.153 OA
BRANCH  11  14
ATOM     14  N   UNL     1      35.520 -23.325 -17.100  0.00  0.00    -0.170 NA
ATOM     15  H   UNL     1      35.966 -22.434 -17.313  0.00  0.00    +0.149 HD
BRANCH  14  16
ATOM     16  C   UNL     1      35.626 -23.519 -15.638  0.00  0.00    +0.174 C 
BRANCH  16  18
ATOM     17  O   UNL     1      35.890 -25.922 -15.907  0.00  0.00    -0.249 OA
ATOM     18  C   UNL     1      35.360 -24.975 -15.338  0.00  0.00    +0.330 C 
BRANCH  18  19
ATOM     19  O   UNL     1      34.463 -25.135 -14.331  0.00  0.00    -0.479 OA
ATOM     20  H   UNL     1      34.145 -24.389 -13.864  0.00  0.00    +0.295 HD
ENDBRANCH  18  19
ENDBRANCH  16  18
BRANCH  16  21
ATOM     21  C   UNL     1      36.973 -22.998 -15.125  0.00  0.00    +0.040 C 
BRANCH  21  22
ATOM     22  C   UNL     1      37.603 -23.767 -13.960  0.00  0.00    +0.111 C 
BRANCH  22  24
ATOM     23  O   UNL     1      38.124 -22.576 -11.925  0.00  0.00    -0.250 OA
ATOM     24  C   UNL     1      37.303 -23.177 -12.606  0.00  0.00    +0.314 C 
BRANCH  24  25
ATOM     25  O   UNL     1      36.024 -23.398 -12.208  0.00  0.00    -0.480 OA
ATOM     26  H   UNL     1      35.823 -24.139 -11.671  0.00  0.00    +0.295 HD
ENDBRANCH  24  25
ENDBRANCH  22  24
ENDBRANCH  21  22
ENDBRANCH  16  21
ENDBRANCH  14  16
ENDBRANCH  11  14
ENDBRANCH   1  11
BRANCH   9  27
ATOM     27  O   UNL     1      36.221 -17.716 -23.320  0.00  0.00    -0.471 OA
BRANCH  27  28
ATOM     28  C   UNL     1      35.123 -17.473 -24.198  0.00  0.00    +0.232 C 
BRANCH  28  29
ATOM     29  C   UNL     1      34.791 -16.010 -24.175  0.00  0.00    +0.021 C 
ATOM     30  C   UNL     1      35.035 -15.258 -23.026  0.00  0.00    -0.000 C 
ATOM     31  C   UNL     1      34.236 -15.402 -25.301  0.00  0.00    -0.000 C 
ATOM     32  C   UNL     1      34.726 -13.899 -23.004  0.00  0.00    +0.010 C 
ATOM     33  C   UNL     1      33.927 -14.043 -25.279  0.00  0.00    +0.010 C 
ATOM     34  C   UNL     1      34.171 -13.291 -24.130  0.00  0.00    +0.068 C 
BRANCH  34  36
ATOM     35  N   UNL     1      33.599 -10.765 -24.089  0.00  0.00    -0.191 NA
ATOM     36  C   UNL     1      33.855 -11.897 -24.108  0.00  0.00    +0.100 C 
ENDBRANCH  34  36
ENDBRANCH  28  29
ENDBRANCH  27  28
ENDBRANCH   9  27
TORSDOF 13
ENDMDL
MODEL 7
REMARK VINA RESULT:     -11.1      3.014      5.169
REMARK  Name = 24755471
REMARK  13 active torsions:
REMARK  status: ('A' for Active; 'I' for Inactive)
REMARK    1  A    between atoms: C_1  and  S_11
REMARK    2  A    between atoms: C_9  and  O_27
REMARK    3  A    between atoms: S_11  and  N_14
REMARK    4  A    between atoms: N_14  and  C_16
REMARK    5  A    between atoms: C_16  and  C_18
REMARK    6  A    between atoms: C_16  and  C_21
REMARK    7  A    between atoms: C_18  and  O_19
REMARK    8  A    between atoms: C_21  and  C_22
REMARK    9  A    between atoms: C_22  and  C_24
REMARK   10  A    between atoms: C_24  and  O_25
REMARK   11  A    between atoms: O_27  and  C_28
REMARK   12  A    between atoms: C_28  and  C_29
REMARK   13  A    between atoms: C_34  and  C_36
REMARK                            x       y       z     vdW  Elec       q    Type
REMARK                         _______ _______ _______ _____ _____    ______ ____
ROOT
ATOM      1  C   UNL     1      35.112 -22.772 -17.508  0.00  0.00    +0.122 C 
ATOM      2  C   UNL     1      35.895 -21.327 -19.303  0.00  0.00    +0.002 C 
ATOM      3  C   UNL     1      36.136 -22.050 -18.123  0.00  0.00    +0.020 C 
ATOM      4  C   UNL     1      34.597 -21.336 -19.867  0.00  0.00    +0.003 C 
ATOM      5  C   UNL     1      33.836 -22.780 -18.063  0.00  0.00    +0.020 C 
ATOM      6  C   UNL     1      33.578 -22.068 -19.234  0.00  0.00    +0.001 C 
ATOM      7  C   UNL     1      34.356 -20.613 -21.046  0.00  0.00    +0.037 C 
ATOM      8  C   UNL     1      36.914 -20.595 -19.935  0.00  0.00    +0.003 C 
ATOM      9  C   UNL     1      35.380 -19.892 -21.661  0.00  0.00    +0.139 C 
ATOM     10  C   UNL     1      36.656 -19.883 -21.106  0.00  0.00    +0.037 C 
ENDROOT
BRANCH   1  11
ATOM     11  S   UNL     1      35.437 -23.676 -16.024  0.00  0.00    +0.061 S 
ATOM     12  O   UNL     1      35.181 -25.078 -16.290  0.00  0.00    -0.153 OA
ATOM     13  O   UNL     1      36.737 -23.248 -15.545  0.00  0.00    -0.153 OA
BRANCH  11  14
ATOM     14  N   UNL     1      34.240 -23.072 -14.978  0.00  0.00    -0.170 NA
ATOM     15  H   UNL     1      33.956 -22.165 -15.348  0.00  0.00    +0.149 HD
BRANCH  14  16
ATOM     16  C   UNL     1      33.001 -23.847 -14.749  0.00  0.00    +0.174 C 
BRANCH  16  18
ATOM     17  O   UNL     1      34.048 -24.417 -12.628  0.00  0.00    -0.249 OA
ATOM     18  C   UNL     1      33.150 -24.592 -13.444  0.00  0.00    +0.330 C 
BRANCH  18  19
ATOM     19  O   UNL     1      32.149 -25.489 -13.248  0.00  0.00    -0.479 OA
ATOM     20  H   UNL     1      31.439 -25.280 -12.675  0.00  0.00    +0.295 HD
ENDBRANCH  18  19
ENDBRANCH  16  18
BRANCH  16  21
ATOM     21  C   UNL     1      31.774 -22.931 -14.824  0.00  0.00    +0.040 C 
BRANCH  21  22
ATOM     22  C   UNL     1      30.455 -23.591 -15.235  0.00  0.00    +0.111 C 
BRANCH  22  24
ATOM     23  O   UNL     1      28.531 -22.173 -15.586  0.00  0.00    -0.250 OA
ATOM     24  C   UNL     1      29.546 -22.692 -16.034  0.00  0.00    +0.314 C 
BRANCH  24  25
ATOM     25  O   UNL     1      29.961 -22.529 -17.316  0.00  0.00    -0.480 OA
ATOM     26  H   UNL     1      29.332 -22.411 -18.000  0.00  0.00    +0.295 HD
ENDBRANCH  24  25
ENDBRANCH  22  24
ENDBRANCH  21  22
ENDBRANCH  16  21
ENDBRANCH  14  16
ENDBRANCH  11  14
ENDBRANCH   1  11
BRANCH   9  27
ATOM     27  O   UNL     1      35.130 -19.198 -22.805  0.00  0.00    -0.471 OA
BRANCH  27  28
ATOM     28  C   UNL     1      36.056 -18.170 -23.156  0.00  0.00    +0.232 C 
BRANCH  28  29
ATOM     29  C   UNL     1      35.361 -17.159 -24.020  0.00  0.00    +0.021 C 
ATOM     30  C   UNL     1      34.742 -17.561 -25.203  0.00  0.00    -0.000 C 
ATOM     31  C   UNL     1      35.337 -15.817 -23.640  0.00  0.00    -0.000 C 
ATOM     32  C   UNL     1      34.097 -16.621 -26.006  0.00  0.00    +0.010 C 
ATOM     33  C   UNL     1      34.692 -14.877 -24.443  0.00  0.00    +0.010 C 
ATOM     34  C   UNL     1      34.073 -15.279 -25.627  0.00  0.00    +0.068 C 
BRANCH  34  36
ATOM     35  N   UNL     1      32.874 -13.534 -27.119  0.00  0.00    -0.191 NA
ATOM     36  C   UNL     1      33.411 -14.316 -26.450  0.00  0.00    +0.100 C 
ENDBRANCH  34  36
ENDBRANCH  28  29
ENDBRANCH  27  28
ENDBRANCH   9  27
TORSDOF 13
ENDMDL
MODEL 8
REMARK VINA RESULT:     -11.0      2.038      3.407
REMARK  Name = 24755471
REMARK  13 active torsions:
REMARK  status: ('A' for Active; 'I' for Inactive)
REMARK    1  A    between atoms: C_1  and  S_11
REMARK    2  A    between atoms: C_9  and  O_27
REMARK    3  A    between atoms: S_11  and  N_14
REMARK    4  A    between atoms: N_14  and  C_16
REMARK    5  A    between atoms: C_16  and  C_18
REMARK    6  A    between atoms: C_16  and  C_21
REMARK    7  A    between atoms: C_18  and  O_19
REMARK    8  A    between atoms: C_21  and  C_22
REMARK    9  A    between atoms: C_22  and  C_24
REMARK   10  A    between atoms: C_24  and  O_25
REMARK   11  A    between atoms: O_27  and  C_28
REMARK   12  A    between atoms: C_28  and  C_29
REMARK   13  A    between atoms: C_34  and  C_36
REMARK                            x       y       z     vdW  Elec       q    Type
REMARK                         _______ _______ _______ _____ _____    ______ ____
ROOT
ATOM      1  C   UNL     1      34.948 -22.699 -17.547  0.00  0.00    +0.122 C 
ATOM      2  C   UNL     1      34.640 -21.401 -19.581  0.00  0.00    +0.002 C 
ATOM      3  C   UNL     1      34.115 -22.186 -18.542  0.00  0.00    +0.020 C 
ATOM      4  C   UNL     1      36.028 -21.131 -19.612  0.00  0.00    +0.003 C 
ATOM      5  C   UNL     1      36.314 -22.434 -17.577  0.00  0.00    +0.020 C 
ATOM      6  C   UNL     1      36.852 -21.655 -18.602  0.00  0.00    +0.001 C 
ATOM      7  C   UNL     1      36.553 -20.345 -20.651  0.00  0.00    +0.037 C 
ATOM      8  C   UNL     1      33.815 -20.877 -20.592  0.00  0.00    +0.003 C 
ATOM      9  C   UNL     1      35.719 -19.833 -21.646  0.00  0.00    +0.139 C 
ATOM     10  C   UNL     1      34.354 -20.098 -21.616  0.00  0.00    +0.037 C 
ENDROOT
BRANCH   1  11
ATOM     11  S   UNL     1      34.268 -23.686 -16.247  0.00  0.00    +0.061 S 
ATOM     12  O   UNL     1      34.315 -22.908 -15.025  0.00  0.00    -0.153 OA
ATOM     13  O   UNL     1      33.005 -24.209 -16.732  0.00  0.00    -0.153 OA
BRANCH  11  14
ATOM     14  N   UNL     1      35.390 -24.959 -16.151  0.00  0.00    -0.170 NA
ATOM     15  H   UNL     1      36.135 -24.745 -16.813  0.00  0.00    +0.149 HD
BRANCH  14  16
ATOM     16  C   UNL     1      36.041 -25.273 -14.860  0.00  0.00    +0.174 C 
BRANCH  16  18
ATOM     17  O   UNL     1      37.051 -27.135 -16.055  0.00  0.00    -0.249 OA
ATOM     18  C   UNL     1      36.730 -26.610 -14.996  0.00  0.00    +0.330 C 
BRANCH  18  19
ATOM     19  O   UNL     1      36.984 -27.180 -13.790  0.00  0.00    -0.479 OA
ATOM     20  H   UNL     1      36.453 -26.965 -13.049  0.00  0.00    +0.295 HD
ENDBRANCH  18  19
ENDBRANCH  16  18
BRANCH  16  21
ATOM     21  C   UNL     1      36.959 -24.122 -14.431  0.00  0.00    +0.040 C 
BRANCH  21  22
ATOM     22  C   UNL     1      37.079 -23.872 -12.925  0.00  0.00    +0.111 C 
BRANCH  22  24
ATOM     23  O   UNL     1      36.039 -25.464 -11.436  0.00  0.00    -0.250 OA
ATOM     24  C   UNL     1      35.945 -24.452 -12.118  0.00  0.00    +0.314 C 
BRANCH  24  25
ATOM     25  O   UNL     1      34.795 -23.741 -12.240  0.00  0.00    -0.480 OA
ATOM     26  H   UNL     1      33.983 -24.112 -11.955  0.00  0.00    +0.295 HD
ENDBRANCH  24  25
ENDBRANCH  22  24
ENDBRANCH  21  22
ENDBRANCH  16  21
ENDBRANCH  14  16
ENDBRANCH  11  14
ENDBRANCH   1  11
BRANCH   9  27
ATOM     27  O   UNL     1      36.243 -19.072 -22.645  0.00  0.00    -0.471 OA
BRANCH  27  28
ATOM     28  C   UNL     1      35.442 -18.892 -23.812  0.00  0.00    +0.232 C 
BRANCH  28  29
ATOM     29  C   UNL     1      35.137 -17.433 -23.978  0.00  0.00    +0.021 C 
ATOM     30  C   UNL     1      34.670 -16.953 -25.202  0.00  0.00    -0.000 C 
ATOM     31  C   UNL     1      35.322 -16.555 -22.909  0.00  0.00    -0.000 C 
ATOM     32  C   UNL     1      34.387 -15.596 -25.356  0.00  0.00    +0.010 C 
ATOM     33  C   UNL     1      35.039 -15.199 -23.064  0.00  0.00    +0.010 C 
ATOM     34  C   UNL     1      34.572 -14.719 -24.287  0.00  0.00    +0.068 C 
BRANCH  34  36
ATOM     35  N   UNL     1      34.045 -12.199 -24.574  0.00  0.00    -0.191 NA
ATOM     36  C   UNL     1      34.281 -13.328 -24.446  0.00  0.00    +0.100 C 
ENDBRANCH  34  36
ENDBRANCH  28  29
ENDBRANCH  27  28
ENDBRANCH   9  27
TORSDOF 13
ENDMDL
MODEL 9
REMARK VINA RESULT:     -10.9      3.569     11.425
REMARK  Name = 24755471
REMARK  13 active torsions:
REMARK  status: ('A' for Active; 'I' for Inactive)
REMARK    1  A    between atoms: C_1  and  S_11
REMARK    2  A    between atoms: C_9  and  O_27
REMARK    3  A    between atoms: S_11  and  N_14
REMARK    4  A    between atoms: N_14  and  C_16
REMARK    5  A    between atoms: C_16  and  C_18
REMARK    6  A    between atoms: C_16  and  C_21
REMARK    7  A    between atoms: C_18  and  O_19
REMARK    8  A    between atoms: C_21  and  C_22
REMARK    9  A    between atoms: C_22  and  C_24
REMARK   10  A    between atoms: C_24  and  O_25
REMARK   11  A    between atoms: O_27  and  C_28
REMARK   12  A    between atoms: C_28  and  C_29
REMARK   13  A    between atoms: C_34  and  C_36
REMARK                            x       y       z     vdW  Elec       q    Type
REMARK                         _______ _______ _______ _____ _____    ______ ____
ROOT
ATOM      1  C   UNL     1      35.729 -19.799 -21.458  0.00  0.00    +0.122 C 
ATOM      2  C   UNL     1      34.506 -21.259 -19.944  0.00  0.00    +0.002 C 
ATOM      3  C   UNL     1      34.532 -20.385 -21.042  0.00  0.00    +0.020 C 
ATOM      4  C   UNL     1      35.710 -21.545 -19.258  0.00  0.00    +0.003 C 
ATOM      5  C   UNL     1      36.913 -20.079 -20.783  0.00  0.00    +0.020 C 
ATOM      6  C   UNL     1      36.906 -20.946 -19.690  0.00  0.00    +0.001 C 
ATOM      7  C   UNL     1      35.684 -22.420 -18.160  0.00  0.00    +0.037 C 
ATOM      8  C   UNL     1      33.311 -21.858 -19.512  0.00  0.00    +0.003 C 
ATOM      9  C   UNL     1      34.488 -23.005 -17.744  0.00  0.00    +0.139 C 
ATOM     10  C   UNL     1      33.303 -22.725 -18.419  0.00  0.00    +0.037 C 
ENDROOT
BRANCH   1  11
ATOM     11  S   UNL     1      35.740 -18.700 -22.843  0.00  0.00    +0.061 S 
ATOM     12  O   UNL     1      37.068 -18.728 -23.424  0.00  0.00    -0.153 OA
ATOM     13  O   UNL     1      34.582 -19.029 -23.651  0.00  0.00    -0.153 OA
BRANCH  11  14
ATOM     14  N   UNL     1      35.481 -17.195 -22.097  0.00  0.00    -0.170 NA
ATOM     15  H   UNL     1      36.400 -16.825 -21.854  0.00  0.00    +0.149 HD
BRANCH  14  16
ATOM     16  C   UNL     1      34.767 -16.123 -22.824  0.00  0.00    +0.174 C 
BRANCH  16  18
ATOM     17  O   UNL     1      34.649 -14.939 -20.703  0.00  0.00    -0.249 OA
ATOM     18  C   UNL     1      34.702 -14.911 -21.927  0.00  0.00    +0.330 C 
BRANCH  18  19
ATOM     19  O   UNL     1      34.729 -13.750 -22.631  0.00  0.00    -0.479 OA
ATOM     20  H   UNL     1      34.491 -12.945 -22.217  0.00  0.00    +0.295 HD
ENDBRANCH  18  19
ENDBRANCH  16  18
BRANCH  16  21
ATOM     21  C   UNL     1      35.422 -15.874 -24.188  0.00  0.00    +0.040 C 
BRANCH  21  22
ATOM     22  C   UNL     1      34.640 -16.349 -25.416  0.00  0.00    +0.111 C 
BRANCH  22  24
ATOM     23  O   UNL     1      33.829 -15.082 -27.306  0.00  0.00    -0.250 OA
ATOM     24  C   UNL     1      33.850 -15.259 -26.095  0.00  0.00    +0.314 C 
BRANCH  24  25
ATOM     25  O   UNL     1      33.171 -14.477 -25.217  0.00  0.00    -0.480 OA
ATOM     26  H   UNL     1      32.698 -14.870 -24.511  0.00  0.00    +0.295 HD
ENDBRANCH  24  25
ENDBRANCH  22  24
ENDBRANCH  21  22
ENDBRANCH  16  21
ENDBRANCH  14  16
ENDBRANCH  11  14
ENDBRANCH   1  11
BRANCH   9  27
ATOM     27  O   UNL     1      34.479 -23.852 -16.679  0.00  0.00    -0.471 OA
BRANCH  27  28
ATOM     28  C   UNL     1      35.121 -23.403 -15.487  0.00  0.00    +0.232 C 
BRANCH  28  29
ATOM     29  C   UNL     1      36.428 -24.122 -15.332  0.00  0.00    +0.021 C 
ATOM     30  C   UNL     1      37.628 -23.430 -15.498  0.00  0.00    -0.000 C 
ATOM     31  C   UNL     1      36.444 -25.483 -15.024  0.00  0.00    -0.000 C 
ATOM     32  C   UNL     1      38.843 -24.099 -15.355  0.00  0.00    +0.010 C 
ATOM     33  C   UNL     1      37.659 -26.151 -14.882  0.00  0.00    +0.010 C 
ATOM     34  C   UNL     1      38.859 -25.459 -15.048  0.00  0.00    +0.068 C 
BRANCH  34  36
ATOM     35  N   UNL     1      41.118 -26.699 -14.781  0.00  0.00    -0.191 NA
ATOM     36  C   UNL     1      40.106 -26.144 -14.900  0.00  0.00    +0.100 C 
ENDBRANCH  34  36
ENDBRANCH  28  29
ENDBRANCH  27  28
ENDBRANCH   9  27
TORSDOF 13
ENDMDL
