MODEL 1
REMARK VINA RESULT:     -12.2      0.000      0.000
REMARK  Name = 10389239
REMARK  2 active torsions:
REMARK  status: ('A' for Active; 'I' for Inactive)
REMARK    1  A    between atoms: C_2  and  C_14
REMARK    2  A    between atoms: C_4  and  C_20
REMARK                            x       y       z     vdW  Elec       q    Type
REMARK                         _______ _______ _______ _____ _____    ______ ____
ROOT
ATOM      1  N   UNL     1      32.603 -22.522 -18.310  0.00  0.00    -0.244 NA
ATOM      2  C   UNL     1      34.504 -23.546 -16.536  0.00  0.00    +0.016 C 
ATOM      3  C   UNL     1      34.904 -22.749 -17.602  0.00  0.00    +0.020 C 
ATOM      4  C   UNL     1      33.923 -22.266 -18.453  0.00  0.00    +0.083 C 
ATOM      5  C   UNL     1      33.156 -23.833 -16.355  0.00  0.00    +0.022 C 
ATOM      6  C   UNL     1      32.253 -23.300 -17.262  0.00  0.00    +0.099 C 
ENDROOT
BRANCH   2  14
ATOM      7  O   UNL     1      36.284 -25.681 -11.664  0.00  0.00    -0.270 OA
ATOM      8  N   UNL     1      36.821 -24.125 -15.932  0.00  0.00    -0.316 N 
ATOM      9  N   UNL     1      38.377 -25.937 -12.610  0.00  0.00    -0.300 N 
ATOM     10  C   UNL     1      37.501 -24.666 -14.879  0.00  0.00    +0.031 C 
ATOM     11  C   UNL     1      38.967 -24.871 -14.798  0.00  0.00    +0.063 C 
ATOM     12  C   UNL     1      36.600 -24.974 -13.882  0.00  0.00    +0.064 C 
ATOM     13  C   UNL     1      39.226 -26.010 -13.805  0.00  0.00    +0.096 C 
ATOM     14  C   UNL     1      35.485 -24.075 -15.618  0.00  0.00    +0.048 C 
ATOM     15  C   UNL     1      35.320 -24.591 -14.348  0.00  0.00    +0.020 C 
ATOM     16  C   UNL     1      37.036 -25.557 -12.627  0.00  0.00    +0.247 C 
ATOM     17  H   UNL     1      37.222 -23.821 -16.778  0.00  0.00    +0.152 HD
ATOM     18  H   UNL     1      38.780 -26.172 -11.743  0.00  0.00    +0.150 HD
ENDBRANCH   2  14
BRANCH   4  20
ATOM     19  N   UNL     1      33.560 -20.265 -21.575  0.00  0.00    -0.244 NA
ATOM     20  C   UNL     1      34.263 -21.432 -19.582  0.00  0.00    +0.037 C 
ATOM     21  C   UNL     1      35.563 -20.993 -19.785  0.00  0.00    +0.005 C 
ATOM     22  C   UNL     1      35.868 -20.184 -20.889  0.00  0.00    +0.018 C 
ATOM     23  C   UNL     1      34.822 -19.840 -21.771  0.00  0.00    +0.081 C 
ATOM     24  C   UNL     1      33.307 -21.044 -20.499  0.00  0.00    +0.100 C 
ATOM     25  C   UNL     1      37.175 -19.722 -21.123  0.00  0.00    +0.001 C 
ATOM     26  C   UNL     1      35.126 -19.036 -22.866  0.00  0.00    +0.019 C 
ATOM     27  C   UNL     1      37.451 -18.920 -22.227  0.00  0.00    +0.000 C 
ATOM     28  C   UNL     1      36.425 -18.577 -23.099  0.00  0.00    +0.002 C 
ENDBRANCH   4  20
TORSDOF 2
ENDMDL
MODEL 2
REMARK VINA RESULT:     -11.9      6.484     11.919
REMARK  Name = 10389239
REMARK  2 active torsions:
REMARK  status: ('A' for Active; 'I' for Inactive)
REMARK    1  A    between atoms: C_2  and  C_14
REMARK    2  A    between atoms: C_4  and  C_20
REMARK                            x       y       z     vdW  Elec       q    Type
REMARK                         _______ _______ _______ _____ _____    ______ ____
ROOT
ATOM      1  N   UNL     1      35.271 -17.807 -24.686  0.00  0.00    -0.244 NA
ATOM      2  C   UNL     1      34.434 -15.218 -24.049  0.00  0.00    +0.016 C 
ATOM      3  C   UNL     1      34.811 -16.097 -23.040  0.00  0.00    +0.020 C 
ATOM      4  C   UNL     1      35.217 -17.369 -23.408  0.00  0.00    +0.083 C 
ATOM      5  C   UNL     1      34.474 -15.631 -25.377  0.00  0.00    +0.022 C 
ATOM      6  C   UNL     1      34.898 -16.925 -25.639  0.00  0.00    +0.099 C 
ENDROOT
BRANCH   2  14
ATOM      7  O   UNL     1      34.569  -9.618 -24.321  0.00  0.00    -0.270 OA
ATOM      8  N   UNL     1      33.027 -13.641 -22.785  0.00  0.00    -0.316 N 
ATOM      9  N   UNL     1      32.696  -9.566 -22.970  0.00  0.00    -0.300 N 
ATOM     10  C   UNL     1      32.833 -12.293 -22.686  0.00  0.00    +0.031 C 
ATOM     11  C   UNL     1      31.888 -11.611 -21.770  0.00  0.00    +0.063 C 
ATOM     12  C   UNL     1      33.683 -11.657 -23.567  0.00  0.00    +0.064 C 
ATOM     13  C   UNL     1      31.537 -10.252 -22.385  0.00  0.00    +0.096 C 
ATOM     14  C   UNL     1      34.002 -13.881 -23.722  0.00  0.00    +0.048 C 
ATOM     15  C   UNL     1      34.431 -12.666 -24.219  0.00  0.00    +0.020 C 
ATOM     16  C   UNL     1      33.710 -10.211 -23.676  0.00  0.00    +0.247 C 
ATOM     17  H   UNL     1      32.546 -14.328 -22.271  0.00  0.00    +0.152 HD
ATOM     18  H   UNL     1      32.760  -8.590 -22.856  0.00  0.00    +0.150 HD
ENDBRANCH   2  14
BRANCH   4  20
ATOM     19  N   UNL     1      37.372 -19.283 -21.045  0.00  0.00    -0.244 NA
ATOM     20  C   UNL     1      35.623 -18.336 -22.415  0.00  0.00    +0.037 C 
ATOM     21  C   UNL     1      34.715 -19.233 -21.873  0.00  0.00    +0.005 C 
ATOM     22  C   UNL     1      35.133 -20.163 -20.910  0.00  0.00    +0.018 C 
ATOM     23  C   UNL     1      36.489 -20.153 -20.521  0.00  0.00    +0.081 C 
ATOM     24  C   UNL     1      36.929 -18.402 -21.972  0.00  0.00    +0.100 C 
ATOM     25  C   UNL     1      34.238 -21.085 -20.341  0.00  0.00    +0.001 C 
ATOM     26  C   UNL     1      36.902 -21.076 -19.565  0.00  0.00    +0.019 C 
ATOM     27  C   UNL     1      34.679 -21.998 -19.386  0.00  0.00    +0.000 C 
ATOM     28  C   UNL     1      36.013 -21.993 -18.998  0.00  0.00    +0.002 C 
ENDBRANCH   4  20
TORSDOF 2
ENDMDL
MODEL 3
REMARK VINA RESULT:     -11.8      6.303     11.770
REMARK  Name = 10389239
REMARK  2 active torsions:
REMARK  status: ('A' for Active; 'I' for Inactive)
REMARK    1  A    between atoms: C_2  and  C_14
REMARK    2  A    between atoms: C_4  and  C_20
REMARK                            x       y       z     vdW  Elec       q    Type
REMARK                         _______ _______ _______ _____ _____    ______ ____
ROOT
ATOM      1  N   UNL     1      35.510 -17.410 -24.621  0.00  0.00    -0.244 NA
ATOM      2  C   UNL     1      34.373 -14.975 -23.857  0.00  0.00    +0.016 C 
ATOM      3  C   UNL     1      34.708 -15.920 -22.894  0.00  0.00    +0.020 C 
ATOM      4  C   UNL     1      35.269 -17.112 -23.324  0.00  0.00    +0.083 C 
ATOM      5  C   UNL     1      34.605 -15.245 -25.201  0.00  0.00    +0.022 C 
ATOM      6  C   UNL     1      35.172 -16.467 -25.527  0.00  0.00    +0.099 C 
ENDROOT
BRANCH   2  14
ATOM      7  O   UNL     1      30.861 -11.673 -20.991  0.00  0.00    -0.270 OA
ATOM      8  N   UNL     1      34.139 -12.531 -24.062  0.00  0.00    -0.316 N 
ATOM      9  N   UNL     1      31.901  -9.841 -21.941  0.00  0.00    -0.300 N 
ATOM     10  C   UNL     1      33.423 -11.518 -23.492  0.00  0.00    +0.031 C 
ATOM     11  C   UNL     1      33.484 -10.086 -23.867  0.00  0.00    +0.063 C 
ATOM     12  C   UNL     1      32.607 -12.049 -22.515  0.00  0.00    +0.064 C 
ATOM     13  C   UNL     1      33.051  -9.264 -22.648  0.00  0.00    +0.096 C 
ATOM     14  C   UNL     1      33.786 -13.716 -23.464  0.00  0.00    +0.048 C 
ATOM     15  C   UNL     1      32.831 -13.446 -22.504  0.00  0.00    +0.020 C 
ATOM     16  C   UNL     1      31.715 -11.208 -21.740  0.00  0.00    +0.247 C 
ATOM     17  H   UNL     1      34.801 -12.429 -24.784  0.00  0.00    +0.152 HD
ATOM     18  H   UNL     1      31.220  -9.225 -21.588  0.00  0.00    +0.150 HD
ENDBRANCH   2  14
BRANCH   4  20
ATOM     19  N   UNL     1      37.349 -19.185 -21.032  0.00  0.00    -0.244 NA
ATOM     20  C   UNL     1      35.642 -18.140 -22.383  0.00  0.00    +0.037 C 
ATOM     21  C   UNL     1      34.714 -19.059 -21.917  0.00  0.00    +0.005 C 
ATOM     22  C   UNL     1      35.100 -20.049 -21.002  0.00  0.00    +0.018 C 
ATOM     23  C   UNL     1      36.447 -20.076 -20.581  0.00  0.00    +0.081 C 
ATOM     24  C   UNL     1      36.936 -18.246 -21.914  0.00  0.00    +0.100 C 
ATOM     25  C   UNL     1      34.184 -20.995 -20.510  0.00  0.00    +0.001 C 
ATOM     26  C   UNL     1      36.829 -21.058 -19.673  0.00  0.00    +0.019 C 
ATOM     27  C   UNL     1      34.595 -21.967 -19.602  0.00  0.00    +0.000 C 
ATOM     28  C   UNL     1      35.919 -21.999 -19.184  0.00  0.00    +0.002 C 
ENDBRANCH   4  20
TORSDOF 2
ENDMDL
MODEL 4
REMARK VINA RESULT:     -11.6      1.368      1.959
REMARK  Name = 10389239
REMARK  2 active torsions:
REMARK  status: ('A' for Active; 'I' for Inactive)
REMARK    1  A    between atoms: C_2  and  C_14
REMARK    2  A    between atoms: C_4  and  C_20
REMARK                            x       y       z     vdW  Elec       q    Type
REMARK                         _______ _______ _______ _____ _____    ______ ____
ROOT
ATOM      1  N   UNL     1      33.321 -22.348 -18.870  0.00  0.00    -0.244 NA
ATOM      2  C   UNL     1      34.772 -23.339 -16.697  0.00  0.00    +0.016 C 
ATOM      3  C   UNL     1      35.392 -22.519 -17.632  0.00  0.00    +0.020 C 
ATOM      4  C   UNL     1      34.629 -22.054 -18.692  0.00  0.00    +0.083 C 
ATOM      5  C   UNL     1      33.429 -23.666 -16.845  0.00  0.00    +0.022 C 
ATOM      6  C   UNL     1      32.754 -23.148 -17.940  0.00  0.00    +0.099 C 
ENDROOT
BRANCH   2  14
ATOM      7  O   UNL     1      37.479 -27.271 -13.754  0.00  0.00    -0.270 OA
ATOM      8  N   UNL     1      35.783 -23.084 -14.465  0.00  0.00    -0.316 N 
ATOM      9  N   UNL     1      38.040 -25.646 -12.209  0.00  0.00    -0.300 N 
ATOM     10  C   UNL     1      36.499 -23.829 -13.572  0.00  0.00    +0.031 C 
ATOM     11  C   UNL     1      36.962 -23.386 -12.236  0.00  0.00    +0.063 C 
ATOM     12  C   UNL     1      36.705 -25.083 -14.108  0.00  0.00    +0.064 C 
ATOM     13  C   UNL     1      38.186 -24.228 -11.861  0.00  0.00    +0.096 C 
ATOM     14  C   UNL     1      35.520 -23.851 -15.573  0.00  0.00    +0.048 C 
ATOM     15  C   UNL     1      36.075 -25.100 -15.375  0.00  0.00    +0.020 C 
ATOM     16  C   UNL     1      37.430 -26.104 -13.377  0.00  0.00    +0.247 C 
ATOM     17  H   UNL     1      35.503 -22.149 -14.336  0.00  0.00    +0.152 HD
ATOM     18  H   UNL     1      38.394 -26.315 -11.580  0.00  0.00    +0.150 HD
ENDBRANCH   2  14
BRANCH   4  20
ATOM     19  N   UNL     1      37.111 -19.970 -20.530  0.00  0.00    -0.244 NA
ATOM     20  C   UNL     1      35.204 -21.198 -19.702  0.00  0.00    +0.037 C 
ATOM     21  C   UNL     1      34.459 -20.772 -20.792  0.00  0.00    +0.005 C 
ATOM     22  C   UNL     1      35.040 -19.941 -21.760  0.00  0.00    +0.018 C 
ATOM     23  C   UNL     1      36.387 -19.559 -21.587  0.00  0.00    +0.081 C 
ATOM     24  C   UNL     1      36.514 -20.771 -19.618  0.00  0.00    +0.100 C 
ATOM     25  C   UNL     1      34.313 -19.493 -22.877  0.00  0.00    +0.001 C 
ATOM     26  C   UNL     1      36.962 -18.734 -22.549  0.00  0.00    +0.019 C 
ATOM     27  C   UNL     1      34.914 -18.668 -23.824  0.00  0.00    +0.000 C 
ATOM     28  C   UNL     1      36.240 -18.288 -23.659  0.00  0.00    +0.002 C 
ENDBRANCH   4  20
TORSDOF 2
ENDMDL
MODEL 5
REMARK VINA RESULT:     -11.4      3.381      8.584
REMARK  Name = 10389239
REMARK  2 active torsions:
REMARK  status: ('A' for Active; 'I' for Inactive)
REMARK    1  A    between atoms: C_2  and  C_14
REMARK    2  A    between atoms: C_4  and  C_20
REMARK                            x       y       z     vdW  Elec       q    Type
REMARK                         _______ _______ _______ _____ _____    ______ ____
ROOT
ATOM      1  N   UNL     1      36.251 -23.280 -16.036  0.00  0.00    -0.244 NA
ATOM      2  C   UNL     1      36.222 -21.769 -18.386  0.00  0.00    +0.016 C 
ATOM      3  C   UNL     1      35.036 -22.280 -17.872  0.00  0.00    +0.020 C 
ATOM      4  C   UNL     1      35.104 -23.022 -16.704  0.00  0.00    +0.083 C 
ATOM      5  C   UNL     1      37.423 -22.013 -17.729  0.00  0.00    +0.022 C 
ATOM      6  C   UNL     1      37.383 -22.767 -16.567  0.00  0.00    +0.099 C 
ENDROOT
BRANCH   2  14
ATOM      7  O   UNL     1      38.416 -18.387 -22.285  0.00  0.00    -0.270 OA
ATOM      8  N   UNL     1      35.069 -20.833 -20.352  0.00  0.00    -0.316 N 
ATOM      9  N   UNL     1      36.453 -18.596 -23.487  0.00  0.00    -0.300 N 
ATOM     10  C   UNL     1      35.357 -20.047 -21.431  0.00  0.00    +0.031 C 
ATOM     11  C   UNL     1      34.400 -19.613 -22.476  0.00  0.00    +0.063 C 
ATOM     12  C   UNL     1      36.690 -19.697 -21.381  0.00  0.00    +0.064 C 
ATOM     13  C   UNL     1      35.199 -19.313 -23.748  0.00  0.00    +0.096 C 
ATOM     14  C   UNL     1      36.209 -20.988 -19.600  0.00  0.00    +0.048 C 
ATOM     15  C   UNL     1      37.229 -20.288 -20.213  0.00  0.00    +0.020 C 
ATOM     16  C   UNL     1      37.285 -18.850 -22.397  0.00  0.00    +0.247 C 
ATOM     17  H   UNL     1      34.190 -21.224 -20.146  0.00  0.00    +0.152 HD
ATOM     18  H   UNL     1      36.723 -17.893 -24.121  0.00  0.00    +0.150 HD
ENDBRANCH   2  14
BRANCH   4  20
ATOM     19  N   UNL     1      32.909 -24.959 -14.398  0.00  0.00    -0.244 NA
ATOM     20  C   UNL     1      33.914 -23.584 -16.110  0.00  0.00    +0.037 C 
ATOM     21  C   UNL     1      32.657 -23.322 -16.634  0.00  0.00    +0.005 C 
ATOM     22  C   UNL     1      31.516 -23.879 -16.040  0.00  0.00    +0.018 C 
ATOM     23  C   UNL     1      31.690 -24.703 -14.909  0.00  0.00    +0.081 C 
ATOM     24  C   UNL     1      33.985 -24.403 -15.001  0.00  0.00    +0.100 C 
ATOM     25  C   UNL     1      30.228 -23.633 -16.546  0.00  0.00    +0.001 C 
ATOM     26  C   UNL     1      30.557 -25.256 -14.319  0.00  0.00    +0.019 C 
ATOM     27  C   UNL     1      29.111 -24.199 -15.937  0.00  0.00    +0.000 C 
ATOM     28  C   UNL     1      29.276 -25.011 -14.822  0.00  0.00    +0.002 C 
ENDBRANCH   4  20
TORSDOF 2
ENDMDL
MODEL 6
REMARK VINA RESULT:     -11.2      9.731     13.725
REMARK  Name = 10389239
REMARK  2 active torsions:
REMARK  status: ('A' for Active; 'I' for Inactive)
REMARK    1  A    between atoms: C_2  and  C_14
REMARK    2  A    between atoms: C_4  and  C_20
REMARK                            x       y       z     vdW  Elec       q    Type
REMARK                         _______ _______ _______ _____ _____    ______ ____
ROOT
ATOM      1  N   UNL     1      31.605 -10.085 -21.276  0.00  0.00    -0.244 NA
ATOM      2  C   UNL     1      32.843 -12.344 -22.361  0.00  0.00    +0.016 C 
ATOM      3  C   UNL     1      32.947 -11.116 -23.004  0.00  0.00    +0.020 C 
ATOM      4  C   UNL     1      32.315 -10.027 -22.426  0.00  0.00    +0.083 C 
ATOM      5  C   UNL     1      32.120 -12.446 -21.178  0.00  0.00    +0.022 C 
ATOM      6  C   UNL     1      31.527 -11.296 -20.681  0.00  0.00    +0.099 C 
ENDROOT
BRANCH   2  14
ATOM      7  O   UNL     1      36.063 -16.935 -22.234  0.00  0.00    -0.270 OA
ATOM      8  N   UNL     1      33.399 -13.815 -24.257  0.00  0.00    -0.316 N 
ATOM      9  N   UNL     1      35.460 -17.346 -24.426  0.00  0.00    -0.300 N 
ATOM     10  C   UNL     1      34.099 -14.964 -24.493  0.00  0.00    +0.031 C 
ATOM     11  C   UNL     1      34.284 -15.620 -25.808  0.00  0.00    +0.063 C 
ATOM     12  C   UNL     1      34.631 -15.410 -23.301  0.00  0.00    +0.064 C 
ATOM     13  C   UNL     1      34.555 -17.107 -25.557  0.00  0.00    +0.096 C 
ATOM     14  C   UNL     1      33.482 -13.512 -22.920  0.00  0.00    +0.048 C 
ATOM     15  C   UNL     1      34.246 -14.482 -22.304  0.00  0.00    +0.020 C 
ATOM     16  C   UNL     1      35.440 -16.613 -23.241  0.00  0.00    +0.247 C 
ATOM     17  H   UNL     1      32.915 -13.290 -24.935  0.00  0.00    +0.152 HD
ATOM     18  H   UNL     1      36.123 -18.069 -24.511  0.00  0.00    +0.150 HD
ENDBRANCH   2  14
BRANCH   4  20
ATOM     19  N   UNL     1      31.280  -6.645 -23.599  0.00  0.00    -0.244 NA
ATOM     20  C   UNL     1      32.380  -8.720 -23.036  0.00  0.00    +0.037 C 
ATOM     21  C   UNL     1      33.544  -8.264 -23.636  0.00  0.00    +0.005 C 
ATOM     22  C   UNL     1      33.582  -6.991 -24.222  0.00  0.00    +0.018 C 
ATOM     23  C   UNL     1      32.411  -6.204 -24.181  0.00  0.00    +0.081 C 
ATOM     24  C   UNL     1      31.284  -7.879 -23.045  0.00  0.00    +0.100 C 
ATOM     25  C   UNL     1      34.746  -6.499 -24.838  0.00  0.00    +0.001 C 
ATOM     26  C   UNL     1      32.450  -4.941 -24.762  0.00  0.00    +0.019 C 
ATOM     27  C   UNL     1      34.756  -5.230 -25.413  0.00  0.00    +0.000 C 
ATOM     28  C   UNL     1      33.606  -4.451 -25.375  0.00  0.00    +0.002 C 
ENDBRANCH   4  20
TORSDOF 2
ENDMDL
MODEL 7
REMARK VINA RESULT:     -11.0      8.002     12.209
REMARK  Name = 10389239
REMARK  2 active torsions:
REMARK  status: ('A' for Active; 'I' for Inactive)
REMARK    1  A    between atoms: C_2  and  C_14
REMARK    2  A    between atoms: C_4  and  C_20
REMARK                            x       y       z     vdW  Elec       q    Type
REMARK                         _______ _______ _______ _____ _____    ______ ____
ROOT
ATOM      1  N   UNL     1      33.600 -12.247 -26.500  0.00  0.00    -0.244 NA
ATOM      2  C   UNL     1      34.324 -14.597 -25.174  0.00  0.00    +0.016 C 
ATOM      3  C   UNL     1      34.403 -13.375 -24.518  0.00  0.00    +0.020 C 
ATOM      4  C   UNL     1      34.033 -12.238 -25.220  0.00  0.00    +0.083 C 
ATOM      5  C   UNL     1      33.885 -14.648 -26.492  0.00  0.00    +0.022 C 
ATOM      6  C   UNL     1      33.537 -13.454 -27.104  0.00  0.00    +0.099 C 
ENDROOT
BRANCH   2  14
ATOM      7  O   UNL     1      35.117 -20.129 -24.694  0.00  0.00    -0.270 OA
ATOM      8  N   UNL     1      35.056 -15.819 -23.164  0.00  0.00    -0.316 N 
ATOM      9  N   UNL     1      35.987 -19.762 -22.585  0.00  0.00    -0.300 N 
ATOM     10  C   UNL     1      35.350 -17.099 -22.793  0.00  0.00    +0.031 C 
ATOM     11  C   UNL     1      35.755 -17.546 -21.439  0.00  0.00    +0.063 C 
ATOM     12  C   UNL     1      35.187 -17.925 -23.885  0.00  0.00    +0.064 C 
ATOM     13  C   UNL     1      36.559 -18.842 -21.594  0.00  0.00    +0.096 C 
ATOM     14  C   UNL     1      34.697 -15.812 -24.489  0.00  0.00    +0.048 C 
ATOM     15  C   UNL     1      34.763 -17.109 -24.961  0.00  0.00    +0.020 C 
ATOM     16  C   UNL     1      35.418 -19.354 -23.791  0.00  0.00    +0.247 C 
ATOM     17  H   UNL     1      35.096 -15.029 -22.577  0.00  0.00    +0.152 HD
ATOM     18  H   UNL     1      36.006 -20.725 -22.385  0.00  0.00    +0.150 HD
ENDBRANCH   2  14
BRANCH   4  20
ATOM     19  N   UNL     1      35.327  -8.909 -24.161  0.00  0.00    -0.244 NA
ATOM     20  C   UNL     1      34.089 -10.934 -24.604  0.00  0.00    +0.037 C 
ATOM     21  C   UNL     1      33.016 -10.434 -23.881  0.00  0.00    +0.005 C 
ATOM     22  C   UNL     1      33.094  -9.164 -23.292  0.00  0.00    +0.018 C 
ATOM     23  C   UNL     1      34.284  -8.426 -23.459  0.00  0.00    +0.081 C 
ATOM     24  C   UNL     1      35.212 -10.138 -24.712  0.00  0.00    +0.100 C 
ATOM     25  C   UNL     1      32.024  -8.628 -22.554  0.00  0.00    +0.001 C 
ATOM     26  C   UNL     1      34.361  -7.165 -22.875  0.00  0.00    +0.019 C 
ATOM     27  C   UNL     1      32.129  -7.364 -21.979  0.00  0.00    +0.000 C 
ATOM     28  C   UNL     1      33.298  -6.632 -22.140  0.00  0.00    +0.002 C 
ENDBRANCH   4  20
TORSDOF 2
ENDMDL
MODEL 8
REMARK VINA RESULT:     -10.9      4.765     10.453
REMARK  Name = 10389239
REMARK  2 active torsions:
REMARK  status: ('A' for Active; 'I' for Inactive)
REMARK    1  A    between atoms: C_2  and  C_14
REMARK    2  A    between atoms: C_4  and  C_20
REMARK                            x       y       z     vdW  Elec       q    Type
REMARK                         _______ _______ _______ _____ _____    ______ ____
ROOT
ATOM      1  N   UNL     1      37.041 -20.353 -20.959  0.00  0.00    -0.244 NA
ATOM      2  C   UNL     1      35.960 -18.246 -22.442  0.00  0.00    +0.016 C 
ATOM      3  C   UNL     1      35.141 -19.010 -21.619  0.00  0.00    +0.020 C 
ATOM      4  C   UNL     1      35.726 -20.044 -20.905  0.00  0.00    +0.083 C 
ATOM      5  C   UNL     1      37.317 -18.532 -22.526  0.00  0.00    +0.022 C 
ATOM      6  C   UNL     1      37.804 -19.587 -21.770  0.00  0.00    +0.099 C 
ENDROOT
BRANCH   2  14
ATOM      7  O   UNL     1      33.794 -15.827 -27.015  0.00  0.00    -0.270 OA
ATOM      8  N   UNL     1      35.305 -15.885 -22.699  0.00  0.00    -0.316 N 
ATOM      9  N   UNL     1      33.460 -13.908 -25.770  0.00  0.00    -0.300 N 
ATOM     10  C   UNL     1      34.747 -15.072 -23.643  0.00  0.00    +0.031 C 
ATOM     11  C   UNL     1      34.493 -13.619 -23.507  0.00  0.00    +0.063 C 
ATOM     12  C   UNL     1      34.476 -15.823 -24.768  0.00  0.00    +0.064 C 
ATOM     13  C   UNL     1      33.352 -13.251 -24.462  0.00  0.00    +0.096 C 
ATOM     14  C   UNL     1      35.402 -17.157 -23.208  0.00  0.00    +0.048 C 
ATOM     15  C   UNL     1      34.900 -17.145 -24.494  0.00  0.00    +0.020 C 
ATOM     16  C   UNL     1      33.886 -15.224 -25.950  0.00  0.00    +0.247 C 
ATOM     17  H   UNL     1      35.591 -15.605 -21.799  0.00  0.00    +0.152 HD
ATOM     18  H   UNL     1      33.217 -13.388 -26.570  0.00  0.00    +0.150 HD
ENDBRANCH   2  14
BRANCH   4  20
ATOM     19  N   UNL     1      32.792 -21.820 -19.447  0.00  0.00    -0.244 NA
ATOM     20  C   UNL     1      34.939 -20.881 -20.030  0.00  0.00    +0.037 C 
ATOM     21  C   UNL     1      35.518 -21.543 -18.957  0.00  0.00    +0.005 C 
ATOM     22  C   UNL     1      34.733 -22.350 -18.121  0.00  0.00    +0.018 C 
ATOM     23  C   UNL     1      33.356 -22.461 -18.406  0.00  0.00    +0.081 C 
ATOM     24  C   UNL     1      33.583 -21.050 -20.229  0.00  0.00    +0.100 C 
ATOM     25  C   UNL     1      35.289 -23.035 -17.026  0.00  0.00    +0.001 C 
ATOM     26  C   UNL     1      32.578 -23.263 -17.576  0.00  0.00    +0.019 C 
ATOM     27  C   UNL     1      34.486 -23.830 -16.212  0.00  0.00    +0.000 C 
ATOM     28  C   UNL     1      33.129 -23.943 -16.488  0.00  0.00    +0.002 C 
ENDBRANCH   4  20
TORSDOF 2
ENDMDL
MODEL 9
REMARK VINA RESULT:     -10.7      2.939      8.781
REMARK  Name = 10389239
REMARK  2 active torsions:
REMARK  status: ('A' for Active; 'I' for Inactive)
REMARK    1  A    between atoms: C_2  and  C_14
REMARK    2  A    between atoms: C_4  and  C_20
REMARK                            x       y       z     vdW  Elec       q    Type
REMARK                         _______ _______ _______ _____ _____    ______ ____
ROOT
ATOM      1  N   UNL     1      34.085 -23.864 -17.145  0.00  0.00    -0.244 NA
ATOM      2  C   UNL     1      34.839 -22.042 -19.126  0.00  0.00    +0.016 C 
ATOM      3  C   UNL     1      35.583 -22.147 -17.956  0.00  0.00    +0.020 C 
ATOM      4  C   UNL     1      35.167 -23.065 -17.005  0.00  0.00    +0.083 C 
ATOM      5  C   UNL     1      33.718 -22.845 -19.307  0.00  0.00    +0.022 C 
ATOM      6  C   UNL     1      33.388 -23.732 -18.296  0.00  0.00    +0.099 C 
ENDROOT
BRANCH   2  14
ATOM      7  O   UNL     1      38.329 -18.508 -21.731  0.00  0.00    -0.270 OA
ATOM      8  N   UNL     1      34.345 -20.666 -21.109  0.00  0.00    -0.316 N 
ATOM      9  N   UNL     1      36.732 -18.239 -23.379  0.00  0.00    -0.300 N 
ATOM     10  C   UNL     1      34.987 -19.787 -21.932  0.00  0.00    +0.031 C 
ATOM     11  C   UNL     1      34.387 -19.066 -23.079  0.00  0.00    +0.063 C 
ATOM     12  C   UNL     1      36.292 -19.655 -21.507  0.00  0.00    +0.064 C 
ATOM     13  C   UNL     1      35.516 -18.711 -24.053  0.00  0.00    +0.096 C 
ATOM     14  C   UNL     1      35.227 -21.101 -20.150  0.00  0.00    +0.048 C 
ATOM     15  C   UNL     1      36.442 -20.484 -20.370  0.00  0.00    +0.020 C 
ATOM     16  C   UNL     1      37.220 -18.771 -22.187  0.00  0.00    +0.247 C 
ATOM     17  H   UNL     1      33.404 -20.945 -21.190  0.00  0.00    +0.152 HD
ATOM     18  H   UNL     1      37.233 -17.501 -23.796  0.00  0.00    +0.150 HD
ENDBRANCH   2  14
BRANCH   4  20
ATOM     19  N   UNL     1      37.976 -23.100 -14.557  0.00  0.00    -0.244 NA
ATOM     20  C   UNL     1      35.890 -23.230 -15.767  0.00  0.00    +0.037 C 
ATOM     21  C   UNL     1      35.251 -23.662 -14.614  0.00  0.00    +0.005 C 
ATOM     22  C   UNL     1      35.974 -23.814 -13.423  0.00  0.00    +0.018 C 
ATOM     23  C   UNL     1      37.354 -23.519 -13.440  0.00  0.00    +0.081 C 
ATOM     24  C   UNL     1      37.243 -22.966 -15.686  0.00  0.00    +0.100 C 
ATOM     25  C   UNL     1      35.357 -24.249 -12.237  0.00  0.00    +0.001 C 
ATOM     26  C   UNL     1      38.071 -23.671 -12.257  0.00  0.00    +0.019 C 
ATOM     27  C   UNL     1      36.099 -24.392 -11.068  0.00  0.00    +0.000 C 
ATOM     28  C   UNL     1      37.458 -24.103 -11.078  0.00  0.00    +0.002 C 
ENDBRANCH   4  20
TORSDOF 2
ENDMDL
