MODEL 1
REMARK VINA RESULT:     -10.9      0.000      0.000
REMARK  Name = 16719221
REMARK  6 active torsions:
REMARK  status: ('A' for Active; 'I' for Inactive)
REMARK    1  A    between atoms: C_3  and  C_20
REMARK    2  A    between atoms: C_11  and  O_13
REMARK    3  A    between atoms: O_13  and  C_16
REMARK    4  A    between atoms: C_20  and  C_24
REMARK    5  A    between atoms: N_22  and  S_30
REMARK    6  A    between atoms: S_30  and  N_33
REMARK                            x       y       z     vdW  Elec       q    Type
REMARK                         _______ _______ _______ _____ _____    ______ ____
ROOT
ATOM      1  O   UNL     1      37.639 -20.225 -19.697  0.00  0.00    -0.421 OA
ATOM      2  O   UNL     1      37.869 -19.057 -21.629  0.00  0.00    -0.245 OA
ATOM      3  C   UNL     1      35.767 -20.128 -21.288  0.00  0.00    +0.054 A 
ATOM      4  C   UNL     1      35.014 -20.924 -20.500  0.00  0.00    -0.016 A 
ATOM      5  C   UNL     1      35.558 -21.389 -19.208  0.00  0.00    +0.031 A 
ATOM      6  C   UNL     1      36.854 -21.025 -18.852  0.00  0.00    +0.151 A 
ATOM      7  C   UNL     1      37.159 -19.751 -20.907  0.00  0.00    +0.342 A 
ATOM      8  C   UNL     1      33.628 -21.394 -20.865  0.00  0.00    +0.031 C 
ATOM      9  C   UNL     1      34.844 -22.180 -18.294  0.00  0.00    +0.006 C 
ATOM     10  C   UNL     1      37.444 -21.422 -17.649  0.00  0.00    +0.076 C 
ATOM     11  C   UNL     1      36.719 -22.209 -16.762  0.00  0.00    +0.162 C 
ATOM     12  C   UNL     1      35.419 -22.587 -17.083  0.00  0.00    +0.039 C 
ENDROOT
BRANCH  11  13
ATOM     13  O   UNL     1      37.275 -22.606 -15.587  0.00  0.00    -0.392 OA
BRANCH  13  16
ATOM     14  N   UNL     1      38.790 -24.315 -15.155  0.00  0.00    -0.185 NA
ATOM     15  N   UNL     1      36.453 -24.778 -15.513  0.00  0.00    -0.162 NA
ATOM     16  C   UNL     1      37.517 -23.959 -15.411  0.00  0.00    +0.196 C 
ATOM     17  C   UNL     1      38.990 -25.639 -14.989  0.00  0.00    +0.167 C 
ATOM     18  C   UNL     1      36.724 -26.088 -15.337  0.00  0.00    +0.110 C 
ATOM     19  C   UNL     1      37.984 -26.581 -15.070  0.00  0.00    +0.022 C 
ENDBRANCH  13  16
ENDBRANCH  11  13
BRANCH   3  20
ATOM     20  C   UNL     1      35.313 -19.531 -22.596  0.00  0.00    +0.061 C 
BRANCH  20  24
ATOM     21  F   UNL     1      35.202 -17.869 -24.896  0.00  0.00    -0.202 F 
ATOM     22  N   UNL     1      34.977 -15.090 -24.740  0.00  0.00    -0.187 N 
ATOM     23  N   UNL     1      34.969 -15.256 -22.388  0.00  0.00    -0.226 NA
ATOM     24  C   UNL     1      35.194 -18.038 -22.526  0.00  0.00    +0.014 C 
ATOM     25  C   UNL     1      35.144 -17.282 -23.693  0.00  0.00    +0.169 C 
ATOM     26  C   UNL     1      35.131 -17.403 -21.290  0.00  0.00    +0.019 C 
ATOM     27  C   UNL     1      35.033 -15.907 -23.571  0.00  0.00    +0.175 C 
ATOM     28  C   UNL     1      35.020 -16.022 -21.276  0.00  0.00    +0.100 C 
ATOM     29  H   UNL     1      35.567 -15.260 -25.510  0.00  0.00    +0.176 HD
BRANCH  22  30
ATOM     30  S   UNL     1      33.836 -13.787 -24.753  0.00  0.00    +0.111 S 
ATOM     31  O   UNL     1      33.542 -13.460 -26.136  0.00  0.00    -0.138 OA
ATOM     32  O   UNL     1      32.751 -14.082 -23.836  0.00  0.00    -0.138 OA
BRANCH  30  33
ATOM     33  N   UNL     1      34.768 -12.505 -24.078  0.00  0.00    -0.165 NA
ATOM     34  C   UNL     1      34.361 -11.119 -24.396  0.00  0.00    +0.112 C 
ATOM     35  H   UNL     1      35.728 -12.623 -24.402  0.00  0.00    +0.150 HD
ENDBRANCH  30  33
ENDBRANCH  22  30
ENDBRANCH  20  24
ENDBRANCH   3  20
TORSDOF 6
ENDMDL
MODEL 2
REMARK VINA RESULT:     -10.7      1.781      2.322
REMARK  Name = 16719221
REMARK  6 active torsions:
REMARK  status: ('A' for Active; 'I' for Inactive)
REMARK    1  A    between atoms: C_3  and  C_20
REMARK    2  A    between atoms: C_11  and  O_13
REMARK    3  A    between atoms: O_13  and  C_16
REMARK    4  A    between atoms: C_20  and  C_24
REMARK    5  A    between atoms: N_22  and  S_30
REMARK    6  A    between atoms: S_30  and  N_33
REMARK                            x       y       z     vdW  Elec       q    Type
REMARK                         _______ _______ _______ _____ _____    ______ ____
ROOT
ATOM      1  O   UNL     1      33.496 -21.237 -20.249  0.00  0.00    -0.421 OA
ATOM      2  O   UNL     1      32.830 -20.155 -22.129  0.00  0.00    -0.245 OA
ATOM      3  C   UNL     1      35.151 -20.026 -21.605  0.00  0.00    +0.054 A 
ATOM      4  C   UNL     1      36.137 -20.344 -20.741  0.00  0.00    -0.016 A 
ATOM      5  C   UNL     1      35.831 -21.188 -19.567  0.00  0.00    +0.031 A 
ATOM      6  C   UNL     1      34.519 -21.604 -19.361  0.00  0.00    +0.151 A 
ATOM      7  C   UNL     1      33.744 -20.465 -21.372  0.00  0.00    +0.342 A 
ATOM      8  C   UNL     1      37.563 -19.871 -20.887  0.00  0.00    +0.031 C 
ATOM      9  C   UNL     1      36.790 -21.614 -18.635  0.00  0.00    +0.006 C 
ATOM     10  C   UNL     1      34.143 -22.403 -18.278  0.00  0.00    +0.076 C 
ATOM     11  C   UNL     1      35.109 -22.809 -17.364  0.00  0.00    +0.162 C 
ATOM     12  C   UNL     1      36.432 -22.416 -17.543  0.00  0.00    +0.039 C 
ENDROOT
BRANCH  11  13
ATOM     13  O   UNL     1      34.765 -23.586 -16.303  0.00  0.00    -0.392 OA
BRANCH  13  16
ATOM     14  N   UNL     1      36.125 -23.190 -14.461  0.00  0.00    -0.185 NA
ATOM     15  N   UNL     1      36.310 -25.226 -15.737  0.00  0.00    -0.162 NA
ATOM     16  C   UNL     1      35.778 -24.019 -15.464  0.00  0.00    +0.196 C 
ATOM     17  C   UNL     1      37.114 -23.643 -13.663  0.00  0.00    +0.167 C 
ATOM     18  C   UNL     1      37.294 -25.616 -14.900  0.00  0.00    +0.110 C 
ATOM     19  C   UNL     1      37.741 -24.860 -13.837  0.00  0.00    +0.022 C 
ENDBRANCH  13  16
ENDBRANCH  11  13
BRANCH   3  20
ATOM     20  C   UNL     1      35.337 -19.229 -22.871  0.00  0.00    +0.061 C 
BRANCH  20  24
ATOM     21  F   UNL     1      35.321 -17.315 -24.968  0.00  0.00    -0.202 F 
ATOM     22  N   UNL     1      35.071 -14.572 -24.505  0.00  0.00    -0.187 N 
ATOM     23  N   UNL     1      34.957 -15.006 -22.190  0.00  0.00    -0.226 NA
ATOM     24  C   UNL     1      35.205 -17.754 -22.635  0.00  0.00    +0.014 C 
ATOM     25  C   UNL     1      35.203 -16.870 -23.709  0.00  0.00    +0.169 C 
ATOM     26  C   UNL     1      35.082 -17.265 -21.339  0.00  0.00    +0.019 C 
ATOM     27  C   UNL     1      35.079 -15.518 -23.436  0.00  0.00    +0.175 C 
ATOM     28  C   UNL     1      34.961 -15.895 -21.172  0.00  0.00    +0.100 C 
ATOM     29  H   UNL     1      35.696 -14.652 -25.262  0.00  0.00    +0.176 HD
BRANCH  22  30
ATOM     30  S   UNL     1      33.923 -13.278 -24.421  0.00  0.00    +0.111 S 
ATOM     31  O   UNL     1      32.737 -13.771 -23.746  0.00  0.00    -0.138 OA
ATOM     32  O   UNL     1      34.579 -12.076 -23.939  0.00  0.00    -0.138 OA
BRANCH  30  33
ATOM     33  N   UNL     1      33.544 -13.045 -26.085  0.00  0.00    -0.165 NA
ATOM     34  C   UNL     1      33.565 -14.233 -26.967  0.00  0.00    +0.112 C 
ATOM     35  H   UNL     1      34.216 -12.375 -26.460  0.00  0.00    +0.150 HD
ENDBRANCH  30  33
ENDBRANCH  22  30
ENDBRANCH  20  24
ENDBRANCH   3  20
TORSDOF 6
ENDMDL
MODEL 3
REMARK VINA RESULT:     -10.5      4.605      7.992
REMARK  Name = 16719221
REMARK  6 active torsions:
REMARK  status: ('A' for Active; 'I' for Inactive)
REMARK    1  A    between atoms: C_3  and  C_20
REMARK    2  A    between atoms: C_11  and  O_13
REMARK    3  A    between atoms: O_13  and  C_16
REMARK    4  A    between atoms: C_20  and  C_24
REMARK    5  A    between atoms: N_22  and  S_30
REMARK    6  A    between atoms: S_30  and  N_33
REMARK                            x       y       z     vdW  Elec       q    Type
REMARK                         _______ _______ _______ _____ _____    ______ ____
ROOT
ATOM      1  O   UNL     1      33.544 -14.714 -20.477  0.00  0.00    -0.421 OA
ATOM      2  O   UNL     1      32.033 -13.260 -19.608  0.00  0.00    -0.245 OA
ATOM      3  C   UNL     1      32.414 -13.107 -21.956  0.00  0.00    +0.054 A 
ATOM      4  C   UNL     1      33.106 -13.556 -23.024  0.00  0.00    -0.016 A 
ATOM      5  C   UNL     1      34.057 -14.674 -22.856  0.00  0.00    +0.031 A 
ATOM      6  C   UNL     1      34.245 -15.213 -21.586  0.00  0.00    +0.151 A 
ATOM      7  C   UNL     1      32.629 -13.681 -20.595  0.00  0.00    +0.342 A 
ATOM      8  C   UNL     1      32.982 -12.969 -24.409  0.00  0.00    +0.031 C 
ATOM      9  C   UNL     1      34.790 -15.246 -23.907  0.00  0.00    +0.006 C 
ATOM     10  C   UNL     1      35.124 -16.270 -21.339  0.00  0.00    +0.076 C 
ATOM     11  C   UNL     1      35.844 -16.818 -22.395  0.00  0.00    +0.162 C 
ATOM     12  C   UNL     1      35.676 -16.307 -23.679  0.00  0.00    +0.039 C 
ENDROOT
BRANCH  11  13
ATOM     13  O   UNL     1      36.705 -17.846 -22.176  0.00  0.00    -0.392 OA
BRANCH  13  16
ATOM     14  N   UNL     1      37.072 -19.575 -20.667  0.00  0.00    -0.185 NA
ATOM     15  N   UNL     1      34.952 -19.320 -21.784  0.00  0.00    -0.162 NA
ATOM     16  C   UNL     1      36.222 -18.963 -21.514  0.00  0.00    +0.196 C 
ATOM     17  C   UNL     1      36.569 -20.658 -20.039  0.00  0.00    +0.167 C 
ATOM     18  C   UNL     1      34.514 -20.411 -21.122  0.00  0.00    +0.110 C 
ATOM     19  C   UNL     1      35.284 -21.127 -20.229  0.00  0.00    +0.022 C 
ENDBRANCH  13  16
ENDBRANCH  11  13
BRANCH   3  20
ATOM     20  C   UNL     1      31.369 -12.021 -21.999  0.00  0.00    +0.061 C 
BRANCH  20  24
ATOM     21  F   UNL     1      32.323 -10.184 -23.943  0.00  0.00    -0.202 F 
ATOM     22  N   UNL     1      33.373  -7.684 -23.270  0.00  0.00    -0.187 N 
ATOM     23  N   UNL     1      32.990  -8.173 -20.996  0.00  0.00    -0.226 NA
ATOM     24  C   UNL     1      31.936 -10.677 -21.651  0.00  0.00    +0.014 C 
ATOM     25  C   UNL     1      32.385  -9.824 -22.654  0.00  0.00    +0.169 C 
ATOM     26  C   UNL     1      32.013 -10.278 -20.321  0.00  0.00    +0.019 C 
ATOM     27  C   UNL     1      32.900  -8.595 -22.277  0.00  0.00    +0.175 C 
ATOM     28  C   UNL     1      32.544  -9.028 -20.048  0.00  0.00    +0.100 C 
ATOM     29  H   UNL     1      33.912  -7.997 -24.033  0.00  0.00    +0.176 HD
BRANCH  22  30
ATOM     30  S   UNL     1      32.964  -6.012 -23.084  0.00  0.00    +0.111 S 
ATOM     31  O   UNL     1      33.376  -5.592 -21.758  0.00  0.00    -0.138 OA
ATOM     32  O   UNL     1      33.413  -5.269 -24.247  0.00  0.00    -0.138 OA
BRANCH  30  33
ATOM     33  N   UNL     1      31.242  -6.072 -23.125  0.00  0.00    -0.165 NA
ATOM     34  C   UNL     1      30.505  -5.356 -22.060  0.00  0.00    +0.112 C 
ATOM     35  H   UNL     1      30.970  -7.054 -23.076  0.00  0.00    +0.150 HD
ENDBRANCH  30  33
ENDBRANCH  22  30
ENDBRANCH  20  24
ENDBRANCH   3  20
TORSDOF 6
ENDMDL
MODEL 4
REMARK VINA RESULT:     -10.4      3.929     10.883
REMARK  Name = 16719221
REMARK  6 active torsions:
REMARK  status: ('A' for Active; 'I' for Inactive)
REMARK    1  A    between atoms: C_3  and  C_20
REMARK    2  A    between atoms: C_11  and  O_13
REMARK    3  A    between atoms: O_13  and  C_16
REMARK    4  A    between atoms: C_20  and  C_24
REMARK    5  A    between atoms: N_22  and  S_30
REMARK    6  A    between atoms: S_30  and  N_33
REMARK                            x       y       z     vdW  Elec       q    Type
REMARK                         _______ _______ _______ _____ _____    ______ ____
ROOT
ATOM      1  O   UNL     1      34.095 -15.119 -25.036  0.00  0.00    -0.421 OA
ATOM      2  O   UNL     1      34.960 -16.895 -26.154  0.00  0.00    -0.245 OA
ATOM      3  C   UNL     1      35.222 -16.911 -23.786  0.00  0.00    +0.054 A 
ATOM      4  C   UNL     1      35.027 -16.262 -22.618  0.00  0.00    -0.016 A 
ATOM      5  C   UNL     1      34.295 -14.979 -22.615  0.00  0.00    +0.031 A 
ATOM      6  C   UNL     1      33.856 -14.451 -23.826  0.00  0.00    +0.151 A 
ATOM      7  C   UNL     1      34.759 -16.334 -25.081  0.00  0.00    +0.342 A 
ATOM      8  C   UNL     1      35.532 -16.762 -21.288  0.00  0.00    +0.031 C 
ATOM      9  C   UNL     1      33.998 -14.247 -21.454  0.00  0.00    +0.006 C 
ATOM     10  C   UNL     1      33.156 -13.244 -23.912  0.00  0.00    +0.076 C 
ATOM     11  C   UNL     1      32.878 -12.534 -22.749  0.00  0.00    +0.162 C 
ATOM     12  C   UNL     1      33.298 -13.035 -21.521  0.00  0.00    +0.039 C 
ENDROOT
BRANCH  11  13
ATOM     13  O   UNL     1      32.200 -11.357 -22.811  0.00  0.00    -0.392 OA
BRANCH  13  16
ATOM     14  N   UNL     1      32.604  -9.157 -22.183  0.00  0.00    -0.185 NA
ATOM     15  N   UNL     1      33.908 -10.224 -23.905  0.00  0.00    -0.162 NA
ATOM     16  C   UNL     1      32.936 -10.195 -22.974  0.00  0.00    +0.196 C 
ATOM     17  C   UNL     1      33.341  -8.042 -22.367  0.00  0.00    +0.167 C 
ATOM     18  C   UNL     1      34.605  -9.077 -24.037  0.00  0.00    +0.110 C 
ATOM     19  C   UNL     1      34.364  -7.943 -23.289  0.00  0.00    +0.022 C 
ENDBRANCH  13  16
ENDBRANCH  11  13
BRANCH   3  20
ATOM     20  C   UNL     1      35.894 -18.254 -23.924  0.00  0.00    +0.061 C 
BRANCH  20  24
ATOM     21  F   UNL     1      33.805 -19.682 -22.634  0.00  0.00    -0.202 F 
ATOM     22  N   UNL     1      34.144 -20.954 -20.171  0.00  0.00    -0.187 N 
ATOM     23  N   UNL     1      36.383 -20.218 -20.136  0.00  0.00    -0.226 NA
ATOM     24  C   UNL     1      36.062 -18.940 -22.600  0.00  0.00    +0.014 C 
ATOM     25  C   UNL     1      34.997 -19.624 -22.024  0.00  0.00    +0.169 C 
ATOM     26  C   UNL     1      37.289 -18.895 -21.946  0.00  0.00    +0.019 C 
ATOM     27  C   UNL     1      35.207 -20.239 -20.802  0.00  0.00    +0.175 C 
ATOM     28  C   UNL     1      37.396 -19.545 -20.727  0.00  0.00    +0.100 C 
ATOM     29  H   UNL     1      33.227 -20.595 -20.154  0.00  0.00    +0.176 HD
BRANCH  22  30
ATOM     30  S   UNL     1      34.526 -22.474 -19.436  0.00  0.00    +0.111 S 
ATOM     31  O   UNL     1      34.845 -23.418 -20.492  0.00  0.00    -0.138 OA
ATOM     32  O   UNL     1      35.464 -22.268 -18.349  0.00  0.00    -0.138 OA
BRANCH  30  33
ATOM     33  N   UNL     1      33.009 -22.918 -18.752  0.00  0.00    -0.165 NA
ATOM     34  C   UNL     1      32.969 -23.213 -17.302  0.00  0.00    +0.112 C 
ATOM     35  H   UNL     1      32.686 -23.753 -19.241  0.00  0.00    +0.150 HD
ENDBRANCH  30  33
ENDBRANCH  22  30
ENDBRANCH  20  24
ENDBRANCH   3  20
TORSDOF 6
ENDMDL
MODEL 5
REMARK VINA RESULT:     -10.3      4.077     10.553
REMARK  Name = 16719221
REMARK  6 active torsions:
REMARK  status: ('A' for Active; 'I' for Inactive)
REMARK    1  A    between atoms: C_3  and  C_20
REMARK    2  A    between atoms: C_11  and  O_13
REMARK    3  A    between atoms: O_13  and  C_16
REMARK    4  A    between atoms: C_20  and  C_24
REMARK    5  A    between atoms: N_22  and  S_30
REMARK    6  A    between atoms: S_30  and  N_33
REMARK                            x       y       z     vdW  Elec       q    Type
REMARK                         _______ _______ _______ _____ _____    ______ ____
ROOT
ATOM      1  O   UNL     1      33.548 -19.815 -20.789  0.00  0.00    -0.421 OA
ATOM      2  O   UNL     1      32.396 -21.368 -19.600  0.00  0.00    -0.245 OA
ATOM      3  C   UNL     1      34.739 -21.738 -19.825  0.00  0.00    +0.054 A 
ATOM      4  C   UNL     1      35.908 -21.319 -20.354  0.00  0.00    -0.016 A 
ATOM      5  C   UNL     1      35.946 -20.058 -21.122  0.00  0.00    +0.031 A 
ATOM      6  C   UNL     1      34.763 -19.350 -21.315  0.00  0.00    +0.151 A 
ATOM      7  C   UNL     1      33.472 -20.981 -20.045  0.00  0.00    +0.342 A 
ATOM      8  C   UNL     1      37.205 -22.078 -20.224  0.00  0.00    +0.031 C 
ATOM      9  C   UNL     1      37.115 -19.510 -21.674  0.00  0.00    +0.006 C 
ATOM     10  C   UNL     1      34.711 -18.150 -22.028  0.00  0.00    +0.076 C 
ATOM     11  C   UNL     1      35.881 -17.629 -22.570  0.00  0.00    +0.162 C 
ATOM     12  C   UNL     1      37.083 -18.307 -22.392  0.00  0.00    +0.039 C 
ENDROOT
BRANCH  11  13
ATOM     13  O   UNL     1      35.852 -16.462 -23.268  0.00  0.00    -0.392 OA
BRANCH  13  16
ATOM     14  N   UNL     1      34.901 -15.264 -21.519  0.00  0.00    -0.185 NA
ATOM     15  N   UNL     1      34.280 -14.839 -23.808  0.00  0.00    -0.162 NA
ATOM     16  C   UNL     1      34.972 -15.479 -22.846  0.00  0.00    +0.196 C 
ATOM     17  C   UNL     1      34.035 -14.300 -21.143  0.00  0.00    +0.167 C 
ATOM     18  C   UNL     1      33.433 -13.888 -23.362  0.00  0.00    +0.110 C 
ATOM     19  C   UNL     1      33.267 -13.572 -22.030  0.00  0.00    +0.022 C 
ENDBRANCH  13  16
ENDBRANCH  11  13
BRANCH   3  20
ATOM     20  C   UNL     1      34.571 -22.968 -18.969  0.00  0.00    +0.061 C 
BRANCH  20  24
ATOM     21  F   UNL     1      33.399 -23.918 -16.564  0.00  0.00    -0.202 F 
ATOM     22  N   UNL     1      34.618 -23.618 -14.069  0.00  0.00    -0.187 N 
ATOM     23  N   UNL     1      36.420 -22.519 -15.119  0.00  0.00    -0.226 NA
ATOM     24  C   UNL     1      35.215 -22.811 -17.623  0.00  0.00    +0.014 C 
ATOM     25  C   UNL     1      34.586 -23.302 -16.484  0.00  0.00    +0.169 C 
ATOM     26  C   UNL     1      36.447 -22.176 -17.511  0.00  0.00    +0.019 C 
ATOM     27  C   UNL     1      35.224 -23.131 -15.266  0.00  0.00    +0.175 C 
ATOM     28  C   UNL     1      37.002 -22.056 -16.248  0.00  0.00    +0.100 C 
ATOM     29  H   UNL     1      33.653 -23.505 -13.903  0.00  0.00    +0.176 HD
BRANCH  22  30
ATOM     30  S   UNL     1      35.640 -24.413 -12.920  0.00  0.00    +0.111 S 
ATOM     31  O   UNL     1      34.800 -24.945 -11.862  0.00  0.00    -0.138 OA
ATOM     32  O   UNL     1      36.564 -25.290 -13.615  0.00  0.00    -0.138 OA
BRANCH  30  33
ATOM     33  N   UNL     1      36.540 -23.089 -12.284  0.00  0.00    -0.165 NA
ATOM     34  C   UNL     1      37.957 -23.328 -11.931  0.00  0.00    +0.112 C 
ATOM     35  H   UNL     1      36.064 -22.776 -11.437  0.00  0.00    +0.150 HD
ENDBRANCH  30  33
ENDBRANCH  22  30
ENDBRANCH  20  24
ENDBRANCH   3  20
TORSDOF 6
ENDMDL
MODEL 6
REMARK VINA RESULT:     -10.3      1.516      1.958
REMARK  Name = 16719221
REMARK  6 active torsions:
REMARK  status: ('A' for Active; 'I' for Inactive)
REMARK    1  A    between atoms: C_3  and  C_20
REMARK    2  A    between atoms: C_11  and  O_13
REMARK    3  A    between atoms: O_13  and  C_16
REMARK    4  A    between atoms: C_20  and  C_24
REMARK    5  A    between atoms: N_22  and  S_30
REMARK    6  A    between atoms: S_30  and  N_33
REMARK                            x       y       z     vdW  Elec       q    Type
REMARK                         _______ _______ _______ _____ _____    ______ ____
ROOT
ATOM      1  O   UNL     1      36.819 -20.756 -19.773  0.00  0.00    -0.421 OA
ATOM      2  O   UNL     1      38.017 -19.474 -21.212  0.00  0.00    -0.245 OA
ATOM      3  C   UNL     1      35.695 -19.707 -21.692  0.00  0.00    +0.054 A 
ATOM      4  C   UNL     1      34.517 -20.272 -21.351  0.00  0.00    -0.016 A 
ATOM      5  C   UNL     1      34.438 -21.106 -20.134  0.00  0.00    +0.031 A 
ATOM      6  C   UNL     1      35.593 -21.321 -19.388  0.00  0.00    +0.151 A 
ATOM      7  C   UNL     1      36.932 -19.951 -20.895  0.00  0.00    +0.342 A 
ATOM      8  C   UNL     1      33.250 -20.118 -22.155  0.00  0.00    +0.031 C 
ATOM      9  C   UNL     1      33.255 -21.700 -19.665  0.00  0.00    +0.006 C 
ATOM     10  C   UNL     1      35.606 -22.096 -18.225  0.00  0.00    +0.076 C 
ATOM     11  C   UNL     1      34.424 -22.679 -17.783  0.00  0.00    +0.162 C 
ATOM     12  C   UNL     1      33.249 -22.480 -18.501  0.00  0.00    +0.039 C 
ENDROOT
BRANCH  11  13
ATOM     13  O   UNL     1      34.415 -23.437 -16.654  0.00  0.00    -0.392 OA
BRANCH  13  16
ATOM     14  N   UNL     1      35.949 -24.999 -15.876  0.00  0.00    -0.185 NA
ATOM     15  N   UNL     1      36.368 -22.634 -15.685  0.00  0.00    -0.162 NA
ATOM     16  C   UNL     1      35.630 -23.702 -16.044  0.00  0.00    +0.196 C 
ATOM     17  C   UNL     1      37.139 -25.221 -15.280  0.00  0.00    +0.167 C 
ATOM     18  C   UNL     1      37.544 -22.928 -15.095  0.00  0.00    +0.110 C 
ATOM     19  C   UNL     1      37.987 -24.214 -14.864  0.00  0.00    +0.022 C 
ENDBRANCH  13  16
ENDBRANCH  11  13
BRANCH   3  20
ATOM     20  C   UNL     1      35.900 -18.785 -22.867  0.00  0.00    +0.061 C 
BRANCH  20  24
ATOM     21  F   UNL     1      35.709 -16.749 -24.837  0.00  0.00    -0.202 F 
ATOM     22  N   UNL     1      34.973 -14.125 -24.228  0.00  0.00    -0.187 N 
ATOM     23  N   UNL     1      34.774 -14.742 -21.961  0.00  0.00    -0.226 NA
ATOM     24  C   UNL     1      35.508 -17.372 -22.552  0.00  0.00    +0.014 C 
ATOM     25  C   UNL     1      35.432 -16.423 -23.566  0.00  0.00    +0.169 C 
ATOM     26  C   UNL     1      35.216 -17.007 -21.243  0.00  0.00    +0.019 C 
ATOM     27  C   UNL     1      35.065 -15.133 -23.222  0.00  0.00    +0.175 C 
ATOM     28  C   UNL     1      34.857 -15.691 -21.002  0.00  0.00    +0.100 C 
ATOM     29  H   UNL     1      35.653 -14.047 -24.936  0.00  0.00    +0.176 HD
BRANCH  22  30
ATOM     30  S   UNL     1      33.622 -13.044 -24.157  0.00  0.00    +0.111 S 
ATOM     31  O   UNL     1      32.635 -13.615 -23.259  0.00  0.00    -0.138 OA
ATOM     32  O   UNL     1      34.094 -11.689 -23.939  0.00  0.00    -0.138 OA
BRANCH  30  33
ATOM     33  N   UNL     1      33.016 -13.143 -25.766  0.00  0.00    -0.165 NA
ATOM     34  C   UNL     1      33.550 -14.214 -26.636  0.00  0.00    +0.112 C 
ATOM     35  H   UNL     1      33.214 -12.252 -26.222  0.00  0.00    +0.150 HD
ENDBRANCH  30  33
ENDBRANCH  22  30
ENDBRANCH  20  24
ENDBRANCH   3  20
TORSDOF 6
ENDMDL
MODEL 7
REMARK VINA RESULT:     -10.3      2.269      2.786
REMARK  Name = 16719221
REMARK  6 active torsions:
REMARK  status: ('A' for Active; 'I' for Inactive)
REMARK    1  A    between atoms: C_3  and  C_20
REMARK    2  A    between atoms: C_11  and  O_13
REMARK    3  A    between atoms: O_13  and  C_16
REMARK    4  A    between atoms: C_20  and  C_24
REMARK    5  A    between atoms: N_22  and  S_30
REMARK    6  A    between atoms: S_30  and  N_33
REMARK                            x       y       z     vdW  Elec       q    Type
REMARK                         _______ _______ _______ _____ _____    ______ ____
ROOT
ATOM      1  O   UNL     1      37.079 -20.300 -20.047  0.00  0.00    -0.421 OA
ATOM      2  O   UNL     1      38.070 -18.767 -21.396  0.00  0.00    -0.245 OA
ATOM      3  C   UNL     1      35.782 -19.253 -21.855  0.00  0.00    +0.054 A 
ATOM      4  C   UNL     1      34.694 -19.987 -21.542  0.00  0.00    -0.016 A 
ATOM      5  C   UNL     1      34.752 -20.918 -20.396  0.00  0.00    +0.031 A 
ATOM      6  C   UNL     1      35.945 -21.044 -19.689  0.00  0.00    +0.151 A 
ATOM      7  C   UNL     1      37.062 -19.401 -21.101  0.00  0.00    +0.342 A 
ATOM      8  C   UNL     1      33.397 -19.932 -22.310  0.00  0.00    +0.031 C 
ATOM      9  C   UNL     1      33.666 -21.692 -19.957  0.00  0.00    +0.006 C 
ATOM     10  C   UNL     1      36.085 -21.900 -18.594  0.00  0.00    +0.076 C 
ATOM     11  C   UNL     1      34.997 -22.661 -18.181  0.00  0.00    +0.162 C 
ATOM     12  C   UNL     1      33.787 -22.556 -18.861  0.00  0.00    +0.039 C 
ENDROOT
BRANCH  11  13
ATOM     13  O   UNL     1      35.113 -23.501 -17.118  0.00  0.00    -0.392 OA
BRANCH  13  16
ATOM     14  N   UNL     1      34.259 -24.272 -15.099  0.00  0.00    -0.185 NA
ATOM     15  N   UNL     1      32.937 -22.896 -16.570  0.00  0.00    -0.162 NA
ATOM     16  C   UNL     1      34.056 -23.559 -16.223  0.00  0.00    +0.196 C 
ATOM     17  C   UNL     1      33.211 -24.307 -14.250  0.00  0.00    +0.167 C 
ATOM     18  C   UNL     1      31.929 -22.974 -15.677  0.00  0.00    +0.110 C 
ATOM     19  C   UNL     1      32.009 -23.671 -14.489  0.00  0.00    +0.022 C 
ENDBRANCH  13  16
ENDBRANCH  11  13
BRANCH   3  20
ATOM     20  C   UNL     1      35.840 -18.223 -22.954  0.00  0.00    +0.061 C 
BRANCH  20  24
ATOM     21  F   UNL     1      35.584 -15.983 -24.681  0.00  0.00    -0.202 F 
ATOM     22  N   UNL     1      34.758 -13.471 -23.782  0.00  0.00    -0.187 N 
ATOM     23  N   UNL     1      34.575 -14.349 -21.601  0.00  0.00    -0.226 NA
ATOM     24  C   UNL     1      35.399 -16.869 -22.483  0.00  0.00    +0.014 C 
ATOM     25  C   UNL     1      35.294 -15.814 -23.383  0.00  0.00    +0.169 C 
ATOM     26  C   UNL     1      35.092 -16.665 -21.142  0.00  0.00    +0.019 C 
ATOM     27  C   UNL     1      34.882 -14.585 -22.896  0.00  0.00    +0.175 C 
ATOM     28  C   UNL     1      34.688 -15.397 -20.756  0.00  0.00    +0.100 C 
ATOM     29  H   UNL     1      35.437 -13.290 -24.472  0.00  0.00    +0.176 HD
BRANCH  22  30
ATOM     30  S   UNL     1      33.371 -12.451 -23.597  0.00  0.00    +0.111 S 
ATOM     31  O   UNL     1      33.665 -11.174 -24.221  0.00  0.00    -0.138 OA
ATOM     32  O   UNL     1      32.176 -13.180 -23.977  0.00  0.00    -0.138 OA
BRANCH  30  33
ATOM     33  N   UNL     1      33.334 -12.225 -21.889  0.00  0.00    -0.165 NA
ATOM     34  C   UNL     1      32.026 -11.932 -21.263  0.00  0.00    +0.112 C 
ATOM     35  H   UNL     1      33.958 -11.447 -21.671  0.00  0.00    +0.150 HD
ENDBRANCH  30  33
ENDBRANCH  22  30
ENDBRANCH  20  24
ENDBRANCH   3  20
TORSDOF 6
ENDMDL
MODEL 8
REMARK VINA RESULT:     -10.2      4.084      7.206
REMARK  Name = 16719221
REMARK  6 active torsions:
REMARK  status: ('A' for Active; 'I' for Inactive)
REMARK    1  A    between atoms: C_3  and  C_20
REMARK    2  A    between atoms: C_11  and  O_13
REMARK    3  A    between atoms: O_13  and  C_16
REMARK    4  A    between atoms: C_20  and  C_24
REMARK    5  A    between atoms: N_22  and  S_30
REMARK    6  A    between atoms: S_30  and  N_33
REMARK                            x       y       z     vdW  Elec       q    Type
REMARK                         _______ _______ _______ _____ _____    ______ ____
ROOT
ATOM      1  O   UNL     1      34.289 -15.013 -21.244  0.00  0.00    -0.421 OA
ATOM      2  O   UNL     1      32.967 -13.182 -21.013  0.00  0.00    -0.245 OA
ATOM      3  C   UNL     1      33.283 -13.980 -23.236  0.00  0.00    +0.054 A 
ATOM      4  C   UNL     1      33.888 -14.876 -24.044  0.00  0.00    -0.016 A 
ATOM      5  C   UNL     1      34.723 -15.941 -23.451  0.00  0.00    +0.031 A 
ATOM      6  C   UNL     1      34.896 -15.971 -22.070  0.00  0.00    +0.151 A 
ATOM      7  C   UNL     1      33.482 -14.010 -21.758  0.00  0.00    +0.342 A 
ATOM      8  C   UNL     1      33.780 -14.853 -25.549  0.00  0.00    +0.031 C 
ATOM      9  C   UNL     1      35.357 -16.948 -24.196  0.00  0.00    +0.006 C 
ATOM     10  C   UNL     1      35.668 -16.943 -21.429  0.00  0.00    +0.076 C 
ATOM     11  C   UNL     1      36.291 -17.927 -22.188  0.00  0.00    +0.162 C 
ATOM     12  C   UNL     1      36.135 -17.931 -23.571  0.00  0.00    +0.039 C 
ENDROOT
BRANCH  11  13
ATOM     13  O   UNL     1      37.047 -18.882 -21.583  0.00  0.00    -0.392 OA
BRANCH  13  16
ATOM     14  N   UNL     1      37.106 -20.489 -19.906  0.00  0.00    -0.185 NA
ATOM     15  N   UNL     1      35.103 -20.090 -21.185  0.00  0.00    -0.162 NA
ATOM     16  C   UNL     1      36.390 -19.864 -20.860  0.00  0.00    +0.196 C 
ATOM     17  C   UNL     1      36.435 -21.439 -19.221  0.00  0.00    +0.167 C 
ATOM     18  C   UNL     1      34.494 -21.053 -20.462  0.00  0.00    +0.110 C 
ATOM     19  C   UNL     1      35.115 -21.767 -19.458  0.00  0.00    +0.022 C 
ENDBRANCH  13  16
ENDBRANCH  11  13
BRANCH   3  20
ATOM     20  C   UNL     1      32.356 -12.886 -23.702  0.00  0.00    +0.061 C 
BRANCH  20  24
ATOM     21  F   UNL     1      31.200 -10.553 -22.570  0.00  0.00    -0.202 F 
ATOM     22  N   UNL     1      32.471  -8.067 -22.610  0.00  0.00    -0.187 N 
ATOM     23  N   UNL     1      34.286  -9.050 -23.750  0.00  0.00    -0.226 NA
ATOM     24  C   UNL     1      33.028 -11.545 -23.719  0.00  0.00    +0.014 C 
ATOM     25  C   UNL     1      32.406 -10.442 -23.144  0.00  0.00    +0.169 C 
ATOM     26  C   UNL     1      34.280 -11.402 -24.308  0.00  0.00    +0.019 C 
ATOM     27  C   UNL     1      33.069  -9.228 -23.187  0.00  0.00    +0.175 C 
ATOM     28  C   UNL     1      34.861 -10.144 -24.298  0.00  0.00    +0.100 C 
ATOM     29  H   UNL     1      31.514  -7.871 -22.733  0.00  0.00    +0.176 HD
BRANCH  22  30
ATOM     30  S   UNL     1      33.491  -7.015 -21.687  0.00  0.00    +0.111 S 
ATOM     31  O   UNL     1      33.525  -7.505 -20.321  0.00  0.00    -0.138 OA
ATOM     32  O   UNL     1      34.733  -6.789 -22.402  0.00  0.00    -0.138 OA
BRANCH  30  33
ATOM     33  N   UNL     1      32.588  -5.548 -21.714  0.00  0.00    -0.165 NA
ATOM     34  C   UNL     1      31.123  -5.646 -21.897  0.00  0.00    +0.112 C 
ATOM     35  H   UNL     1      32.953  -4.979 -22.478  0.00  0.00    +0.150 HD
ENDBRANCH  30  33
ENDBRANCH  22  30
ENDBRANCH  20  24
ENDBRANCH   3  20
TORSDOF 6
ENDMDL
MODEL 9
REMARK VINA RESULT:     -10.2      3.919      6.674
REMARK  Name = 16719221
REMARK  6 active torsions:
REMARK  status: ('A' for Active; 'I' for Inactive)
REMARK    1  A    between atoms: C_3  and  C_20
REMARK    2  A    between atoms: C_11  and  O_13
REMARK    3  A    between atoms: O_13  and  C_16
REMARK    4  A    between atoms: C_20  and  C_24
REMARK    5  A    between atoms: N_22  and  S_30
REMARK    6  A    between atoms: S_30  and  N_33
REMARK                            x       y       z     vdW  Elec       q    Type
REMARK                         _______ _______ _______ _____ _____    ______ ____
ROOT
ATOM      1  O   UNL     1      34.495 -17.125 -25.233  0.00  0.00    -0.421 OA
ATOM      2  O   UNL     1      33.832 -15.667 -26.842  0.00  0.00    -0.245 OA
ATOM      3  C   UNL     1      34.448 -14.716 -24.745  0.00  0.00    +0.054 A 
ATOM      4  C   UNL     1      34.852 -14.933 -23.476  0.00  0.00    -0.016 A 
ATOM      5  C   UNL     1      35.140 -16.312 -23.032  0.00  0.00    +0.031 A 
ATOM      6  C   UNL     1      34.949 -17.361 -23.927  0.00  0.00    +0.151 A 
ATOM      7  C   UNL     1      34.233 -15.845 -25.696  0.00  0.00    +0.342 A 
ATOM      8  C   UNL     1      35.020 -13.838 -22.451  0.00  0.00    +0.031 C 
ATOM      9  C   UNL     1      35.610 -16.643 -21.751  0.00  0.00    +0.006 C 
ATOM     10  C   UNL     1      35.197 -18.694 -23.589  0.00  0.00    +0.076 C 
ATOM     11  C   UNL     1      35.657 -18.999 -22.312  0.00  0.00    +0.162 C 
ATOM     12  C   UNL     1      35.864 -17.974 -21.394  0.00  0.00    +0.039 C 
ENDROOT
BRANCH  11  13
ATOM     13  O   UNL     1      35.904 -20.289 -21.963  0.00  0.00    -0.392 OA
BRANCH  13  16
ATOM     14  N   UNL     1      33.820 -20.476 -20.951  0.00  0.00    -0.185 NA
ATOM     15  N   UNL     1      35.717 -21.724 -20.145  0.00  0.00    -0.162 NA
ATOM     16  C   UNL     1      35.112 -20.854 -20.976  0.00  0.00    +0.196 C 
ATOM     17  C   UNL     1      33.079 -21.044 -19.977  0.00  0.00    +0.167 C 
ATOM     18  C   UNL     1      34.918 -22.254 -19.196  0.00  0.00    +0.110 C 
ATOM     19  C   UNL     1      33.579 -21.950 -19.063  0.00  0.00    +0.022 C 
ENDBRANCH  13  16
ENDBRANCH  11  13
BRANCH   3  20
ATOM     20  C   UNL     1      34.183 -13.358 -25.345  0.00  0.00    +0.061 C 
BRANCH  20  24
ATOM     21  F   UNL     1      34.907 -10.621 -25.125  0.00  0.00    -0.202 F 
ATOM     22  N   UNL     1      33.719  -8.888 -23.285  0.00  0.00    -0.187 N 
ATOM     23  N   UNL     1      32.375 -10.671 -22.525  0.00  0.00    -0.226 NA
ATOM     24  C   UNL     1      33.554 -12.418 -24.360  0.00  0.00    +0.014 C 
ATOM     25  C   UNL     1      33.955 -11.087 -24.306  0.00  0.00    +0.169 C 
ATOM     26  C   UNL     1      32.563 -12.875 -23.498  0.00  0.00    +0.019 C 
ATOM     27  C   UNL     1      33.341 -10.262 -23.379  0.00  0.00    +0.175 C 
ATOM     28  C   UNL     1      32.010 -11.970 -22.607  0.00  0.00    +0.100 C 
ATOM     29  H   UNL     1      34.664  -8.615 -23.327  0.00  0.00    +0.176 HD
BRANCH  22  30
ATOM     30  S   UNL     1      32.454  -7.721 -23.096  0.00  0.00    +0.111 S 
ATOM     31  O   UNL     1      33.031  -6.400 -23.267  0.00  0.00    -0.138 OA
ATOM     32  O   UNL     1      31.306  -8.114 -23.892  0.00  0.00    -0.138 OA
BRANCH  30  33
ATOM     33  N   UNL     1      32.043  -7.923 -21.435  0.00  0.00    -0.165 NA
ATOM     34  C   UNL     1      33.123  -7.760 -20.436  0.00  0.00    +0.112 C 
ATOM     35  H   UNL     1      31.668  -8.866 -21.327  0.00  0.00    +0.150 HD
ENDBRANCH  30  33
ENDBRANCH  22  30
ENDBRANCH  20  24
ENDBRANCH   3  20
TORSDOF 6
ENDMDL
