MODEL 1
REMARK VINA RESULT:     -11.1      0.000      0.000
REMARK  Name = 5243
REMARK  7 active torsions:
REMARK  status: ('A' for Active; 'I' for Inactive)
REMARK    1  A    between atoms: C_1  and  C_3
REMARK    2  A    between atoms: C_1  and  C_8
REMARK    3  A    between atoms: C_1  and  C_19
REMARK    4  A    between atoms: C_13  and  O_14
REMARK    5  A    between atoms: O_14  and  S_15
REMARK    6  A    between atoms: C_24  and  O_25
REMARK    7  A    between atoms: O_25  and  S_26
REMARK                            x       y       z     vdW  Elec       q    Type
REMARK                         _______ _______ _______ _____ _____    ______ ____
ROOT
ATOM      1  C   UNL     1      35.113 -23.148 -15.693  0.00  0.00    +0.085 C 
ENDROOT
BRANCH   1   3
ATOM      2  N   UNL     1      33.735 -24.600 -14.331  0.00  0.00    -0.248 NA
ATOM      3  C   UNL     1      33.720 -23.684 -15.294  0.00  0.00    +0.067 C 
ATOM      4  C   UNL     1      32.642 -23.180 -15.954  0.00  0.00    +0.015 C 
ATOM      5  C   UNL     1      31.403 -23.683 -15.572  0.00  0.00    +0.003 C 
ATOM      6  C   UNL     1      32.514 -25.067 -13.987  0.00  0.00    +0.098 C 
ATOM      7  C   UNL     1      31.330 -24.645 -14.570  0.00  0.00    +0.021 C 
ENDBRANCH   1   3
BRANCH   1   8
ATOM      8  C   UNL     1      35.242 -22.673 -17.101  0.00  0.00    -0.013 C 
ATOM      9  C   UNL     1      34.193 -22.861 -18.000  0.00  0.00    -0.000 C 
ATOM     10  C   UNL     1      36.414 -22.041 -17.518  0.00  0.00    -0.000 C 
ATOM     11  C   UNL     1      34.316 -22.418 -19.316  0.00  0.00    +0.040 C 
ATOM     12  C   UNL     1      36.536 -21.597 -18.835  0.00  0.00    +0.040 C 
ATOM     13  C   UNL     1      35.487 -21.786 -19.734  0.00  0.00    +0.176 C 
BRANCH  13  14
ATOM     14  O   UNL     1      35.605 -21.354 -21.019  0.00  0.00    -0.322 OA
BRANCH  14  15
ATOM     15  S   UNL     1      35.028 -19.866 -21.416  0.00  0.00    +0.282 S 
ATOM     16  O   UNL     1      35.051 -19.861 -23.048  0.00  0.00    -0.105 OA
ATOM     17  O   UNL     1      33.646 -19.767 -20.989  0.00  0.00    -0.012 OA
ATOM     18  O   UNL     1      35.999 -18.884 -20.966  0.00  0.00    -0.105 OA
ENDBRANCH  14  15
ENDBRANCH  13  14
ENDBRANCH   1   8
BRANCH   1  19
ATOM     19  C   UNL     1      36.260 -24.052 -15.186  0.00  0.00    -0.013 C 
ATOM     20  C   UNL     1      37.129 -23.532 -14.265  0.00  0.00    -0.000 C 
ATOM     21  C   UNL     1      36.346 -25.323 -15.687  0.00  0.00    -0.000 C 
ATOM     22  C   UNL     1      38.165 -24.348 -13.809  0.00  0.00    +0.040 C 
ATOM     23  C   UNL     1      37.381 -26.138 -15.230  0.00  0.00    +0.040 C 
ATOM     24  C   UNL     1      38.291 -25.651 -14.291  0.00  0.00    +0.176 C 
BRANCH  24  25
ATOM     25  O   UNL     1      39.302 -26.446 -13.846  0.00  0.00    -0.322 OA
BRANCH  25  26
ATOM     26  S   UNL     1      40.831 -26.167 -14.383  0.00  0.00    +0.282 S 
ATOM     27  O   UNL     1      40.704 -26.298 -16.005  0.00  0.00    -0.105 OA
ATOM     28  O   UNL     1      41.197 -24.797 -14.073  0.00  0.00    -0.012 OA
ATOM     29  O   UNL     1      41.666 -27.261 -13.923  0.00  0.00    -0.105 OA
ENDBRANCH  25  26
ENDBRANCH  24  25
ENDBRANCH   1  19
TORSDOF 7
ENDMDL
MODEL 2
REMARK VINA RESULT:     -11.1      4.055      6.988
REMARK  Name = 5243
REMARK  7 active torsions:
REMARK  status: ('A' for Active; 'I' for Inactive)
REMARK    1  A    between atoms: C_1  and  C_3
REMARK    2  A    between atoms: C_1  and  C_8
REMARK    3  A    between atoms: C_1  and  C_19
REMARK    4  A    between atoms: C_13  and  O_14
REMARK    5  A    between atoms: O_14  and  S_15
REMARK    6  A    between atoms: C_24  and  O_25
REMARK    7  A    between atoms: O_25  and  S_26
REMARK                            x       y       z     vdW  Elec       q    Type
REMARK                         _______ _______ _______ _____ _____    ______ ____
ROOT
ATOM      1  C   UNL     1      34.854 -23.076 -15.808  0.00  0.00    +0.085 C 
ENDROOT
BRANCH   1   3
ATOM      2  N   UNL     1      35.726 -25.329 -15.969  0.00  0.00    -0.248 NA
ATOM      3  C   UNL     1      35.743 -24.211 -15.251  0.00  0.00    +0.067 C 
ATOM      4  C   UNL     1      36.436 -23.959 -14.108  0.00  0.00    +0.015 C 
ATOM      5  C   UNL     1      37.226 -25.001 -13.633  0.00  0.00    +0.003 C 
ATOM      6  C   UNL     1      36.504 -26.319 -15.477  0.00  0.00    +0.098 C 
ATOM      7  C   UNL     1      37.266 -26.206 -14.325  0.00  0.00    +0.021 C 
ENDBRANCH   1   3
BRANCH   1   8
ATOM      8  C   UNL     1      33.384 -23.314 -15.733  0.00  0.00    -0.013 C 
ATOM      9  C   UNL     1      32.700 -23.085 -14.539  0.00  0.00    -0.000 C 
ATOM     10  C   UNL     1      32.692 -23.765 -16.858  0.00  0.00    -0.000 C 
ATOM     11  C   UNL     1      31.325 -23.308 -14.469  0.00  0.00    +0.040 C 
ATOM     12  C   UNL     1      31.316 -23.988 -16.788  0.00  0.00    +0.040 C 
ATOM     13  C   UNL     1      30.633 -23.759 -15.593  0.00  0.00    +0.176 C 
BRANCH  13  14
ATOM     14  O   UNL     1      29.292 -23.977 -15.524  0.00  0.00    -0.322 OA
BRANCH  14  15
ATOM     15  S   UNL     1      28.316 -23.309 -16.668  0.00  0.00    +0.282 S 
ATOM     16  O   UNL     1      26.980 -22.875 -15.837  0.00  0.00    -0.105 OA
ATOM     17  O   UNL     1      28.941 -22.101 -17.173  0.00  0.00    -0.012 OA
ATOM     18  O   UNL     1      27.931 -24.365 -17.587  0.00  0.00    -0.105 OA
ENDBRANCH  14  15
ENDBRANCH  13  14
ENDBRANCH   1   8
BRANCH   1  19
ATOM     19  C   UNL     1      35.373 -22.530 -17.158  0.00  0.00    -0.013 C 
ATOM     20  C   UNL     1      34.524 -22.560 -18.232  0.00  0.00    -0.000 C 
ATOM     21  C   UNL     1      36.652 -22.047 -17.208  0.00  0.00    -0.000 C 
ATOM     22  C   UNL     1      34.992 -22.068 -19.450  0.00  0.00    +0.040 C 
ATOM     23  C   UNL     1      37.119 -21.555 -18.426  0.00  0.00    +0.040 C 
ATOM     24  C   UNL     1      36.289 -21.565 -19.548  0.00  0.00    +0.176 C 
BRANCH  24  25
ATOM     25  O   UNL     1      36.745 -21.085 -20.737  0.00  0.00    -0.322 OA
BRANCH  25  26
ATOM     26  S   UNL     1      36.671 -19.467 -21.024  0.00  0.00    +0.282 S 
ATOM     27  O   UNL     1      37.185 -19.321 -22.566  0.00  0.00    -0.105 OA
ATOM     28  O   UNL     1      35.284 -19.042 -20.974  0.00  0.00    -0.012 OA
ATOM     29  O   UNL     1      37.656 -18.824 -20.175  0.00  0.00    -0.105 OA
ENDBRANCH  25  26
ENDBRANCH  24  25
ENDBRANCH   1  19
TORSDOF 7
ENDMDL
MODEL 3
REMARK VINA RESULT:     -11.1      2.126      7.547
REMARK  Name = 5243
REMARK  7 active torsions:
REMARK  status: ('A' for Active; 'I' for Inactive)
REMARK    1  A    between atoms: C_1  and  C_3
REMARK    2  A    between atoms: C_1  and  C_8
REMARK    3  A    between atoms: C_1  and  C_19
REMARK    4  A    between atoms: C_13  and  O_14
REMARK    5  A    between atoms: O_14  and  S_15
REMARK    6  A    between atoms: C_24  and  O_25
REMARK    7  A    between atoms: O_25  and  S_26
REMARK                            x       y       z     vdW  Elec       q    Type
REMARK                         _______ _______ _______ _____ _____    ______ ____
ROOT
ATOM      1  C   UNL     1      33.963 -23.388 -17.371  0.00  0.00    +0.085 C 
ENDROOT
BRANCH   1   3
ATOM      2  N   UNL     1      31.554 -23.213 -17.540  0.00  0.00    -0.248 NA
ATOM      3  C   UNL     1      32.589 -23.145 -16.708  0.00  0.00    +0.067 C 
ATOM      4  C   UNL     1      32.575 -22.892 -15.372  0.00  0.00    +0.015 C 
ATOM      5  C   UNL     1      31.323 -22.678 -14.805  0.00  0.00    +0.003 C 
ATOM      6  C   UNL     1      30.355 -22.999 -16.954  0.00  0.00    +0.098 C 
ATOM      7  C   UNL     1      30.187 -22.731 -15.605  0.00  0.00    +0.021 C 
ENDBRANCH   1   3
BRANCH   1   8
ATOM      8  C   UNL     1      35.111 -23.556 -16.434  0.00  0.00    -0.013 C 
ATOM      9  C   UNL     1      36.036 -22.526 -16.272  0.00  0.00    -0.000 C 
ATOM     10  C   UNL     1      35.258 -24.746 -15.720  0.00  0.00    -0.000 C 
ATOM     11  C   UNL     1      37.110 -22.685 -15.396  0.00  0.00    +0.040 C 
ATOM     12  C   UNL     1      36.332 -24.904 -14.843  0.00  0.00    +0.040 C 
ATOM     13  C   UNL     1      37.258 -23.873 -14.682  0.00  0.00    +0.176 C 
BRANCH  13  14
ATOM     14  O   UNL     1      38.306 -24.028 -13.827  0.00  0.00    -0.322 OA
BRANCH  14  15
ATOM     15  S   UNL     1      38.051 -23.846 -12.213  0.00  0.00    +0.282 S 
ATOM     16  O   UNL     1      39.460 -23.232 -11.662  0.00  0.00    -0.105 OA
ATOM     17  O   UNL     1      37.019 -22.847 -12.008  0.00  0.00    -0.012 OA
ATOM     18  O   UNL     1      37.902 -25.171 -11.639  0.00  0.00    -0.105 OA
ENDBRANCH  14  15
ENDBRANCH  13  14
ENDBRANCH   1   8
BRANCH   1  19
ATOM     19  C   UNL     1      34.214 -22.443 -18.569  0.00  0.00    -0.013 C 
ATOM     20  C   UNL     1      35.488 -22.355 -19.062  0.00  0.00    -0.000 C 
ATOM     21  C   UNL     1      33.150 -21.745 -19.072  0.00  0.00    -0.000 C 
ATOM     22  C   UNL     1      35.716 -21.502 -20.142  0.00  0.00    +0.040 C 
ATOM     23  C   UNL     1      33.377 -20.893 -20.153  0.00  0.00    +0.040 C 
ATOM     24  C   UNL     1      34.660 -20.771 -20.688  0.00  0.00    +0.176 C 
BRANCH  24  25
ATOM     25  O   UNL     1      34.883 -19.939 -21.742  0.00  0.00    -0.322 OA
BRANCH  25  26
ATOM     26  S   UNL     1      36.017 -18.757 -21.598  0.00  0.00    +0.282 S 
ATOM     27  O   UNL     1      36.610 -18.599 -23.110  0.00  0.00    -0.105 OA
ATOM     28  O   UNL     1      35.360 -17.512 -21.244  0.00  0.00    -0.012 OA
ATOM     29  O   UNL     1      37.086 -19.272 -20.763  0.00  0.00    -0.105 OA
ENDBRANCH  25  26
ENDBRANCH  24  25
ENDBRANCH   1  19
TORSDOF 7
ENDMDL
MODEL 4
REMARK VINA RESULT:     -10.6      3.574      8.164
REMARK  Name = 5243
REMARK  7 active torsions:
REMARK  status: ('A' for Active; 'I' for Inactive)
REMARK    1  A    between atoms: C_1  and  C_3
REMARK    2  A    between atoms: C_1  and  C_8
REMARK    3  A    between atoms: C_1  and  C_19
REMARK    4  A    between atoms: C_13  and  O_14
REMARK    5  A    between atoms: O_14  and  S_15
REMARK    6  A    between atoms: C_24  and  O_25
REMARK    7  A    between atoms: O_25  and  S_26
REMARK                            x       y       z     vdW  Elec       q    Type
REMARK                         _______ _______ _______ _____ _____    ______ ____
ROOT
ATOM      1  C   UNL     1      35.184 -22.795 -16.331  0.00  0.00    +0.085 C 
ENDROOT
BRANCH   1   3
ATOM      2  N   UNL     1      36.664 -21.861 -18.003  0.00  0.00    -0.248 NA
ATOM      3  C   UNL     1      35.432 -22.303 -17.775  0.00  0.00    +0.067 C 
ATOM      4  C   UNL     1      34.390 -22.368 -18.646  0.00  0.00    +0.015 C 
ATOM      5  C   UNL     1      34.646 -21.917 -19.937  0.00  0.00    +0.003 C 
ATOM      6  C   UNL     1      36.876 -21.430 -19.267  0.00  0.00    +0.098 C 
ATOM      7  C   UNL     1      35.910 -21.438 -20.261  0.00  0.00    +0.021 C 
ENDBRANCH   1   3
BRANCH   1   8
ATOM      8  C   UNL     1      36.202 -23.740 -15.788  0.00  0.00    -0.013 C 
ATOM      9  C   UNL     1      35.957 -25.112 -15.799  0.00  0.00    -0.000 C 
ATOM     10  C   UNL     1      37.400 -23.249 -15.269  0.00  0.00    -0.000 C 
ATOM     11  C   UNL     1      36.909 -25.995 -15.290  0.00  0.00    +0.040 C 
ATOM     12  C   UNL     1      38.353 -24.132 -14.760  0.00  0.00    +0.040 C 
ATOM     13  C   UNL     1      38.107 -25.505 -14.771  0.00  0.00    +0.176 C 
BRANCH  13  14
ATOM     14  O   UNL     1      39.036 -26.367 -14.274  0.00  0.00    -0.322 OA
BRANCH  14  15
ATOM     15  S   UNL     1      40.608 -26.188 -14.722  0.00  0.00    +0.282 S 
ATOM     16  O   UNL     1      41.010 -24.710 -14.158  0.00  0.00    -0.105 OA
ATOM     17  O   UNL     1      41.414 -27.168 -14.017  0.00  0.00    -0.012 OA
ATOM     18  O   UNL     1      40.648 -26.125 -16.172  0.00  0.00    -0.105 OA
ENDBRANCH  14  15
ENDBRANCH  13  14
ENDBRANCH   1   8
BRANCH   1  19
ATOM     19  C   UNL     1      33.709 -23.194 -16.089  0.00  0.00    -0.013 C 
ATOM     20  C   UNL     1      33.059 -23.880 -17.079  0.00  0.00    -0.000 C 
ATOM     21  C   UNL     1      33.134 -22.838 -14.900  0.00  0.00    -0.000 C 
ATOM     22  C   UNL     1      31.729 -24.239 -16.861  0.00  0.00    +0.040 C 
ATOM     23  C   UNL     1      31.804 -23.197 -14.682  0.00  0.00    +0.040 C 
ATOM     24  C   UNL     1      31.101 -23.898 -15.663  0.00  0.00    +0.176 C 
BRANCH  24  25
ATOM     25  O   UNL     1      29.803 -24.248 -15.451  0.00  0.00    -0.322 OA
BRANCH  25  26
ATOM     26  S   UNL     1      28.634 -23.585 -16.400  0.00  0.00    +0.282 S 
ATOM     27  O   UNL     1      29.405 -22.377 -17.181  0.00  0.00    -0.105 OA
ATOM     28  O   UNL     1      28.219 -24.563 -17.389  0.00  0.00    -0.012 OA
ATOM     29  O   UNL     1      27.649 -22.978 -15.524  0.00  0.00    -0.105 OA
ENDBRANCH  25  26
ENDBRANCH  24  25
ENDBRANCH   1  19
TORSDOF 7
ENDMDL
MODEL 5
REMARK VINA RESULT:     -10.5      4.243      5.777
REMARK  Name = 5243
REMARK  7 active torsions:
REMARK  status: ('A' for Active; 'I' for Inactive)
REMARK    1  A    between atoms: C_1  and  C_3
REMARK    2  A    between atoms: C_1  and  C_8
REMARK    3  A    between atoms: C_1  and  C_19
REMARK    4  A    between atoms: C_13  and  O_14
REMARK    5  A    between atoms: O_14  and  S_15
REMARK    6  A    between atoms: C_24  and  O_25
REMARK    7  A    between atoms: O_25  and  S_26
REMARK                            x       y       z     vdW  Elec       q    Type
REMARK                         _______ _______ _______ _____ _____    ______ ____
ROOT
ATOM      1  C   UNL     1      34.158 -23.369 -17.362  0.00  0.00    +0.085 C 
ENDROOT
BRANCH   1   3
ATOM      2  N   UNL     1      35.891 -22.364 -18.721  0.00  0.00    -0.248 NA
ATOM      3  C   UNL     1      34.580 -22.436 -18.519  0.00  0.00    +0.067 C 
ATOM      4  C   UNL     1      33.591 -21.796 -19.200  0.00  0.00    +0.015 C 
ATOM      5  C   UNL     1      34.004 -20.964 -20.235  0.00  0.00    +0.003 C 
ATOM      6  C   UNL     1      36.255 -21.546 -19.734  0.00  0.00    +0.098 C 
ATOM      7  C   UNL     1      35.360 -20.831 -20.513  0.00  0.00    +0.021 C 
ENDBRANCH   1   3
BRANCH   1   8
ATOM      8  C   UNL     1      32.807 -23.110 -16.786  0.00  0.00    -0.013 C 
ATOM      9  C   UNL     1      32.653 -22.952 -15.409  0.00  0.00    -0.000 C 
ATOM     10  C   UNL     1      31.695 -23.028 -17.626  0.00  0.00    -0.000 C 
ATOM     11  C   UNL     1      31.390 -22.712 -14.871  0.00  0.00    +0.040 C 
ATOM     12  C   UNL     1      30.431 -22.787 -17.088  0.00  0.00    +0.040 C 
ATOM     13  C   UNL     1      30.278 -22.629 -15.710  0.00  0.00    +0.176 C 
BRANCH  13  14
ATOM     14  O   UNL     1      29.045 -22.395 -15.184  0.00  0.00    -0.322 OA
BRANCH  14  15
ATOM     15  S   UNL     1      27.715 -22.765 -16.078  0.00  0.00    +0.282 S 
ATOM     16  O   UNL     1      27.727 -21.656 -17.275  0.00  0.00    -0.105 OA
ATOM     17  O   UNL     1      27.899 -24.073 -16.679  0.00  0.00    -0.012 OA
ATOM     18  O   UNL     1      26.547 -22.503 -15.256  0.00  0.00    -0.105 OA
ENDBRANCH  14  15
ENDBRANCH  13  14
ENDBRANCH   1   8
BRANCH   1  19
ATOM     19  C   UNL     1      35.292 -23.581 -16.332  0.00  0.00    -0.013 C 
ATOM     20  C   UNL     1      36.166 -22.550 -16.119  0.00  0.00    -0.000 C 
ATOM     21  C   UNL     1      35.360 -24.787 -15.691  0.00  0.00    -0.000 C 
ATOM     22  C   UNL     1      37.190 -22.741 -15.191  0.00  0.00    +0.040 C 
ATOM     23  C   UNL     1      36.383 -24.979 -14.762  0.00  0.00    +0.040 C 
ATOM     24  C   UNL     1      37.298 -23.955 -14.512  0.00  0.00    +0.176 C 
BRANCH  24  25
ATOM     25  O   UNL     1      38.297 -24.142 -13.607  0.00  0.00    -0.322 OA
BRANCH  25  26
ATOM     26  S   UNL     1      38.017 -23.783 -12.026  0.00  0.00    +0.282 S 
ATOM     27  O   UNL     1      39.404 -23.078 -11.534  0.00  0.00    -0.105 OA
ATOM     28  O   UNL     1      36.960 -22.792 -11.947  0.00  0.00    -0.012 OA
ATOM     29  O   UNL     1      37.888 -25.037 -11.307  0.00  0.00    -0.105 OA
ENDBRANCH  25  26
ENDBRANCH  24  25
ENDBRANCH   1  19
TORSDOF 7
ENDMDL
MODEL 6
REMARK VINA RESULT:     -10.3      4.240      6.728
REMARK  Name = 5243
REMARK  7 active torsions:
REMARK  status: ('A' for Active; 'I' for Inactive)
REMARK    1  A    between atoms: C_1  and  C_3
REMARK    2  A    between atoms: C_1  and  C_8
REMARK    3  A    between atoms: C_1  and  C_19
REMARK    4  A    between atoms: C_13  and  O_14
REMARK    5  A    between atoms: O_14  and  S_15
REMARK    6  A    between atoms: C_24  and  O_25
REMARK    7  A    between atoms: O_25  and  S_26
REMARK                            x       y       z     vdW  Elec       q    Type
REMARK                         _______ _______ _______ _____ _____    ______ ____
ROOT
ATOM      1  C   UNL     1      34.282 -23.845 -16.849  0.00  0.00    +0.085 C 
ENDROOT
BRANCH   1   3
ATOM      2  N   UNL     1      35.750 -25.358 -15.659  0.00  0.00    -0.248 NA
ATOM      3  C   UNL     1      35.188 -24.154 -15.636  0.00  0.00    +0.067 C 
ATOM      4  C   UNL     1      35.318 -23.186 -14.689  0.00  0.00    +0.015 C 
ATOM      5  C   UNL     1      36.140 -23.496 -13.610  0.00  0.00    +0.003 C 
ATOM      6  C   UNL     1      36.540 -25.624 -14.595  0.00  0.00    +0.098 C 
ATOM      7  C   UNL     1      36.766 -24.736 -13.555  0.00  0.00    +0.021 C 
ENDBRANCH   1   3
BRANCH   1   8
ATOM      8  C   UNL     1      34.891 -22.988 -17.906  0.00  0.00    -0.013 C 
ATOM      9  C   UNL     1      36.033 -22.238 -17.626  0.00  0.00    -0.000 C 
ATOM     10  C   UNL     1      34.317 -22.936 -19.177  0.00  0.00    -0.000 C 
ATOM     11  C   UNL     1      36.600 -21.436 -18.615  0.00  0.00    +0.040 C 
ATOM     12  C   UNL     1      34.885 -22.134 -20.167  0.00  0.00    +0.040 C 
ATOM     13  C   UNL     1      36.027 -21.383 -19.886  0.00  0.00    +0.176 C 
BRANCH  13  14
ATOM     14  O   UNL     1      36.582 -20.600 -20.850  0.00  0.00    -0.322 OA
BRANCH  14  15
ATOM     15  S   UNL     1      35.721 -19.327 -21.436  0.00  0.00    +0.282 S 
ATOM     16  O   UNL     1      35.857 -19.476 -23.056  0.00  0.00    -0.105 OA
ATOM     17  O   UNL     1      34.324 -19.503 -21.087  0.00  0.00    -0.012 OA
ATOM     18  O   UNL     1      36.417 -18.112 -21.052  0.00  0.00    -0.105 OA
ENDBRANCH  14  15
ENDBRANCH  13  14
ENDBRANCH   1   8
BRANCH   1  19
ATOM     19  C   UNL     1      32.844 -23.464 -16.428  0.00  0.00    -0.013 C 
ATOM     20  C   UNL     1      32.084 -22.750 -17.315  0.00  0.00    -0.000 C 
ATOM     21  C   UNL     1      32.409 -23.860 -15.193  0.00  0.00    -0.000 C 
ATOM     22  C   UNL     1      30.786 -22.406 -16.936  0.00  0.00    +0.040 C 
ATOM     23  C   UNL     1      31.111 -23.516 -14.814  0.00  0.00    +0.040 C 
ATOM     24  C   UNL     1      30.299 -22.788 -15.685  0.00  0.00    +0.176 C 
BRANCH  24  25
ATOM     25  O   UNL     1      29.034 -22.452 -15.316  0.00  0.00    -0.322 OA
BRANCH  25  26
ATOM     26  S   UNL     1      27.794 -22.755 -16.353  0.00  0.00    +0.282 S 
ATOM     27  O   UNL     1      26.464 -22.650 -15.413  0.00  0.00    -0.105 OA
ATOM     28  O   UNL     1      27.730 -21.689 -17.336  0.00  0.00    -0.012 OA
ATOM     29  O   UNL     1      27.911 -24.134 -16.788  0.00  0.00    -0.105 OA
ENDBRANCH  25  26
ENDBRANCH  24  25
ENDBRANCH   1  19
TORSDOF 7
ENDMDL
MODEL 7
REMARK VINA RESULT:      -9.2      4.178      7.428
REMARK  Name = 5243
REMARK  7 active torsions:
REMARK  status: ('A' for Active; 'I' for Inactive)
REMARK    1  A    between atoms: C_1  and  C_3
REMARK    2  A    between atoms: C_1  and  C_8
REMARK    3  A    between atoms: C_1  and  C_19
REMARK    4  A    between atoms: C_13  and  O_14
REMARK    5  A    between atoms: O_14  and  S_15
REMARK    6  A    between atoms: C_24  and  O_25
REMARK    7  A    between atoms: O_25  and  S_26
REMARK                            x       y       z     vdW  Elec       q    Type
REMARK                         _______ _______ _______ _____ _____    ______ ____
ROOT
ATOM      1  C   UNL     1      35.724 -23.066 -15.779  0.00  0.00    +0.085 C 
ENDROOT
BRANCH   1   3
ATOM      2  N   UNL     1      37.924 -23.739 -15.026  0.00  0.00    -0.248 NA
ATOM      3  C   UNL     1      36.743 -24.179 -15.447  0.00  0.00    +0.067 C 
ATOM      4  C   UNL     1      36.340 -25.467 -15.616  0.00  0.00    +0.015 C 
ATOM      5  C   UNL     1      37.280 -26.445 -15.309  0.00  0.00    +0.003 C 
ATOM      6  C   UNL     1      38.812 -24.716 -14.738  0.00  0.00    +0.098 C 
ATOM      7  C   UNL     1      38.542 -26.070 -14.861  0.00  0.00    +0.021 C 
ENDBRANCH   1   3
BRANCH   1   8
ATOM      8  C   UNL     1      34.312 -23.348 -15.390  0.00  0.00    -0.013 C 
ATOM      9  C   UNL     1      34.038 -24.058 -14.222  0.00  0.00    -0.000 C 
ATOM     10  C   UNL     1      33.265 -22.902 -16.198  0.00  0.00    -0.000 C 
ATOM     11  C   UNL     1      32.717 -24.322 -13.860  0.00  0.00    +0.040 C 
ATOM     12  C   UNL     1      31.943 -23.166 -15.835  0.00  0.00    +0.040 C 
ATOM     13  C   UNL     1      31.670 -23.876 -14.666  0.00  0.00    +0.176 C 
BRANCH  13  14
ATOM     14  O   UNL     1      30.382 -24.135 -14.312  0.00  0.00    -0.322 OA
BRANCH  14  15
ATOM     15  S   UNL     1      29.534 -25.263 -15.158  0.00  0.00    +0.282 S 
ATOM     16  O   UNL     1      28.788 -24.398 -16.324  0.00  0.00    -0.105 OA
ATOM     17  O   UNL     1      30.467 -26.169 -15.801  0.00  0.00    -0.012 OA
ATOM     18  O   UNL     1      28.503 -25.786 -14.280  0.00  0.00    -0.105 OA
ENDBRANCH  14  15
ENDBRANCH  13  14
ENDBRANCH   1   8
BRANCH   1  19
ATOM     19  C   UNL     1      35.921 -22.490 -17.200  0.00  0.00    -0.013 C 
ATOM     20  C   UNL     1      36.979 -21.648 -17.411  0.00  0.00    -0.000 C 
ATOM     21  C   UNL     1      35.027 -22.852 -18.171  0.00  0.00    -0.000 C 
ATOM     22  C   UNL     1      37.157 -21.128 -18.693  0.00  0.00    +0.040 C 
ATOM     23  C   UNL     1      35.205 -22.332 -19.453  0.00  0.00    +0.040 C 
ATOM     24  C   UNL     1      36.271 -21.470 -19.714  0.00  0.00    +0.176 C 
BRANCH  24  25
ATOM     25  O   UNL     1      36.445 -20.962 -20.964  0.00  0.00    -0.322 OA
BRANCH  25  26
ATOM     26  S   UNL     1      35.563 -19.650 -21.421  0.00  0.00    +0.282 S 
ATOM     27  O   UNL     1      34.179 -19.795 -20.569  0.00  0.00    -0.105 OA
ATOM     28  O   UNL     1      36.240 -18.447 -20.972  0.00  0.00    -0.012 OA
ATOM     29  O   UNL     1      35.229 -19.812 -22.824  0.00  0.00    -0.105 OA
ENDBRANCH  25  26
ENDBRANCH  24  25
ENDBRANCH   1  19
TORSDOF 7
ENDMDL
MODEL 8
REMARK VINA RESULT:      -8.8      3.768      6.553
REMARK  Name = 5243
REMARK  7 active torsions:
REMARK  status: ('A' for Active; 'I' for Inactive)
REMARK    1  A    between atoms: C_1  and  C_3
REMARK    2  A    between atoms: C_1  and  C_8
REMARK    3  A    between atoms: C_1  and  C_19
REMARK    4  A    between atoms: C_13  and  O_14
REMARK    5  A    between atoms: O_14  and  S_15
REMARK    6  A    between atoms: C_24  and  O_25
REMARK    7  A    between atoms: O_25  and  S_26
REMARK                            x       y       z     vdW  Elec       q    Type
REMARK                         _______ _______ _______ _____ _____    ______ ____
ROOT
ATOM      1  C   UNL     1      34.800 -24.219 -15.777  0.00  0.00    +0.085 C 
ENDROOT
BRANCH   1   3
ATOM      2  N   UNL     1      35.076 -23.717 -13.425  0.00  0.00    -0.248 NA
ATOM      3  C   UNL     1      35.491 -24.492 -14.422  0.00  0.00    +0.067 C 
ATOM      4  C   UNL     1      36.431 -25.474 -14.385  0.00  0.00    +0.015 C 
ATOM      5  C   UNL     1      37.033 -25.695 -13.151  0.00  0.00    +0.003 C 
ATOM      6  C   UNL     1      35.684 -23.960 -12.242  0.00  0.00    +0.098 C 
ATOM      7  C   UNL     1      36.658 -24.928 -12.054  0.00  0.00    +0.021 C 
ENDBRANCH   1   3
BRANCH   1   8
ATOM      8  C   UNL     1      35.453 -23.190 -16.637  0.00  0.00    -0.013 C 
ATOM      9  C   UNL     1      34.906 -22.869 -17.878  0.00  0.00    -0.000 C 
ATOM     10  C   UNL     1      36.613 -22.549 -16.198  0.00  0.00    -0.000 C 
ATOM     11  C   UNL     1      35.518 -21.907 -18.682  0.00  0.00    +0.040 C 
ATOM     12  C   UNL     1      37.224 -21.587 -17.002  0.00  0.00    +0.040 C 
ATOM     13  C   UNL     1      36.677 -21.266 -18.245  0.00  0.00    +0.176 C 
BRANCH  13  14
ATOM     14  O   UNL     1      37.273 -20.328 -19.029  0.00  0.00    -0.322 OA
BRANCH  14  15
ATOM     15  S   UNL     1      36.850 -20.231 -20.616  0.00  0.00    +0.282 S 
ATOM     16  O   UNL     1      35.364 -19.556 -20.583  0.00  0.00    -0.105 OA
ATOM     17  O   UNL     1      37.745 -19.306 -21.287  0.00  0.00    -0.012 OA
ATOM     18  O   UNL     1      36.700 -21.586 -21.115  0.00  0.00    -0.105 OA
ENDBRANCH  14  15
ENDBRANCH  13  14
ENDBRANCH   1   8
BRANCH   1  19
ATOM     19  C   UNL     1      33.265 -24.098 -15.643  0.00  0.00    -0.013 C 
ATOM     20  C   UNL     1      32.637 -24.887 -14.717  0.00  0.00    -0.000 C 
ATOM     21  C   UNL     1      32.616 -23.210 -16.457  0.00  0.00    -0.000 C 
ATOM     22  C   UNL     1      31.251 -24.779 -14.597  0.00  0.00    +0.040 C 
ATOM     23  C   UNL     1      31.231 -23.102 -16.336  0.00  0.00    +0.040 C 
ATOM     24  C   UNL     1      30.548 -23.886 -15.406  0.00  0.00    +0.176 C 
BRANCH  24  25
ATOM     25  O   UNL     1      29.196 -23.782 -15.288  0.00  0.00    -0.322 OA
BRANCH  25  26
ATOM     26  S   UNL     1      28.320 -23.281 -16.587  0.00  0.00    +0.282 S 
ATOM     27  O   UNL     1      26.891 -22.828 -15.941  0.00  0.00    -0.105 OA
ATOM     28  O   UNL     1      28.948 -22.102 -17.154  0.00  0.00    -0.012 OA
ATOM     29  O   UNL     1      28.070 -24.441 -17.422  0.00  0.00    -0.105 OA
ENDBRANCH  25  26
ENDBRANCH  24  25
ENDBRANCH   1  19
TORSDOF 7
ENDMDL
MODEL 9
REMARK VINA RESULT:      -8.6     12.984     16.090
REMARK  Name = 5243
REMARK  7 active torsions:
REMARK  status: ('A' for Active; 'I' for Inactive)
REMARK    1  A    between atoms: C_1  and  C_3
REMARK    2  A    between atoms: C_1  and  C_8
REMARK    3  A    between atoms: C_1  and  C_19
REMARK    4  A    between atoms: C_13  and  O_14
REMARK    5  A    between atoms: O_14  and  S_15
REMARK    6  A    between atoms: C_24  and  O_25
REMARK    7  A    between atoms: O_25  and  S_26
REMARK                            x       y       z     vdW  Elec       q    Type
REMARK                         _______ _______ _______ _____ _____    ______ ____
ROOT
ATOM      1  C   UNL     1      33.169  -9.888 -22.420  0.00  0.00    +0.085 C 
ENDROOT
BRANCH   1   3
ATOM      2  N   UNL     1      31.152 -10.934 -21.583  0.00  0.00    -0.248 NA
ATOM      3  C   UNL     1      32.270 -10.305 -21.234  0.00  0.00    +0.067 C 
ATOM      4  C   UNL     1      32.702  -9.995 -19.982  0.00  0.00    +0.015 C 
ATOM      5  C   UNL     1      31.870 -10.384 -18.938  0.00  0.00    +0.003 C 
ATOM      6  C   UNL     1      30.369 -11.296 -20.542  0.00  0.00    +0.098 C 
ATOM      7  C   UNL     1      30.680 -11.047 -19.215  0.00  0.00    +0.021 C 
ENDBRANCH   1   3
BRANCH   1   8
ATOM      8  C   UNL     1      32.852  -8.567 -23.035  0.00  0.00    -0.013 C 
ATOM      9  C   UNL     1      31.644  -8.383 -23.708  0.00  0.00    -0.000 C 
ATOM     10  C   UNL     1      33.765  -7.516 -22.938  0.00  0.00    -0.000 C 
ATOM     11  C   UNL     1      31.349  -7.148 -24.284  0.00  0.00    +0.040 C 
ATOM     12  C   UNL     1      33.469  -6.280 -23.515  0.00  0.00    +0.040 C 
ATOM     13  C   UNL     1      32.260  -6.096 -24.188  0.00  0.00    +0.176 C 
BRANCH  13  14
ATOM     14  O   UNL     1      31.972  -4.891 -24.750  0.00  0.00    -0.322 OA
BRANCH  14  15
ATOM     15  S   UNL     1      31.305  -3.714 -23.815  0.00  0.00    +0.282 S 
ATOM     16  O   UNL     1      30.240  -2.980 -24.811  0.00  0.00    -0.105 OA
ATOM     17  O   UNL     1      30.555  -4.335 -22.739  0.00  0.00    -0.012 OA
ATOM     18  O   UNL     1      32.348  -2.752 -23.510  0.00  0.00    -0.105 OA
ENDBRANCH  14  15
ENDBRANCH  13  14
ENDBRANCH   1   8
BRANCH   1  19
ATOM     19  C   UNL     1      33.408 -11.047 -23.415  0.00  0.00    -0.013 C 
ATOM     20  C   UNL     1      32.960 -12.293 -23.070  0.00  0.00    -0.000 C 
ATOM     21  C   UNL     1      34.056 -10.764 -24.587  0.00  0.00    -0.000 C 
ATOM     22  C   UNL     1      33.176 -13.338 -23.967  0.00  0.00    +0.040 C 
ATOM     23  C   UNL     1      34.272 -11.810 -25.484  0.00  0.00    +0.040 C 
ATOM     24  C   UNL     1      33.832 -13.097 -25.175  0.00  0.00    +0.176 C 
BRANCH  24  25
ATOM     25  O   UNL     1      34.043 -14.118 -26.050  0.00  0.00    -0.322 OA
BRANCH  25  26
ATOM     26  S   UNL     1      34.200 -15.648 -25.467  0.00  0.00    +0.282 S 
ATOM     27  O   UNL     1      35.503 -16.234 -26.254  0.00  0.00    -0.105 OA
ATOM     28  O   UNL     1      34.523 -15.583 -24.053  0.00  0.00    -0.012 OA
ATOM     29  O   UNL     1      33.046 -16.408 -25.911  0.00  0.00    -0.105 OA
ENDBRANCH  25  26
ENDBRANCH  24  25
ENDBRANCH   1  19
TORSDOF 7
ENDMDL
