MODEL 1
REMARK VINA RESULT:     -11.4      0.000      0.000
REMARK  Name = 9909438
REMARK  10 active torsions:
REMARK  status: ('A' for Active; 'I' for Inactive)
REMARK    1  A    between atoms: C_1  and  C_2
REMARK    2  A    between atoms: C_1  and  C_18
REMARK    3  A    between atoms: C_2  and  C_7
REMARK    4  A    between atoms: N_4  and  C_10
REMARK    5  A    between atoms: C_10  and  C_11
REMARK    6  A    between atoms: C_18  and  C_19
REMARK    7  A    between atoms: C_22  and  O_25
REMARK    8  A    between atoms: O_25  and  C_26
REMARK    9  A    between atoms: C_26  and  C_30
REMARK   10  A    between atoms: C_30  and  O_31
REMARK                            x       y       z     vdW  Elec       q    Type
REMARK                         _______ _______ _______ _____ _____    ______ ____
ROOT
ATOM      1  C   UNL     1      35.631 -19.625 -22.146  0.00  0.00    +0.014 C 
ENDROOT
BRANCH   1   2
ATOM      2  C   UNL     1      35.326 -19.755 -23.636  0.00  0.00    +0.078 C 
BRANCH   2   7
ATOM      3  O   UNL     1      33.738 -16.325 -26.465  0.00  0.00    -0.191 OA
ATOM      4  N   UNL     1      34.997 -16.282 -24.509  0.00  0.00    -0.151 N 
ATOM      5  N   UNL     1      35.472 -17.258 -23.688  0.00  0.00    -0.229 N 
ATOM      6  N   UNL     1      34.338 -18.273 -25.341  0.00  0.00    -0.308 NA
ATOM      7  C   UNL     1      35.044 -18.425 -24.245  0.00  0.00    +0.187 C 
ATOM      8  C   UNL     1      34.300 -16.892 -25.537  0.00  0.00    +0.286 C 
ATOM      9  H   UNL     1      36.008 -17.145 -22.869  0.00  0.00    +0.173 HD
BRANCH   4  10
ATOM     10  C   UNL     1      35.262 -14.896 -24.242  0.00  0.00    +0.152 C 
BRANCH  10  11
ATOM     11  C   UNL     1      34.398 -14.361 -23.137  0.00  0.00    +0.000 C 
ATOM     12  C   UNL     1      34.649 -14.740 -21.824  0.00  0.00    -0.003 C 
ATOM     13  C   UNL     1      33.355 -13.494 -23.439  0.00  0.00    -0.003 C 
ATOM     14  C   UNL     1      32.798 -13.371 -21.091  0.00  0.00    -0.022 C 
ATOM     15  C   UNL     1      33.846 -14.242 -20.797  0.00  0.00    -0.005 C 
ATOM     16  C   UNL     1      32.553 -12.996 -22.412  0.00  0.00    -0.005 C 
ATOM     17  C   UNL     1      31.940 -12.840 -19.993  0.00  0.00    +0.031 C 
ENDBRANCH  10  11
ENDBRANCH   4  10
ENDBRANCH   2   7
ENDBRANCH   1   2
BRANCH   1  18
ATOM     18  C   UNL     1      34.364 -19.667 -21.284  0.00  0.00    +0.027 C 
BRANCH  18  19
ATOM     19  C   UNL     1      34.415 -20.786 -20.276  0.00  0.00    -0.022 C 
ATOM     20  C   UNL     1      35.645 -21.293 -19.884  0.00  0.00    -0.001 C 
ATOM     21  C   UNL     1      33.233 -21.289 -19.755  0.00  0.00    -0.001 C 
ATOM     22  C   UNL     1      34.511 -22.842 -18.418  0.00  0.00    +0.139 C 
ATOM     23  C   UNL     1      35.694 -22.327 -18.950  0.00  0.00    +0.037 C 
ATOM     24  C   UNL     1      33.281 -22.324 -18.821  0.00  0.00    +0.037 C 
BRANCH  22  25
ATOM     25  O   UNL     1      34.558 -23.853 -17.508  0.00  0.00    -0.472 OA
BRANCH  25  26
ATOM     26  C   UNL     1      34.664 -23.485 -16.133  0.00  0.00    +0.221 C 
ATOM     27  C   UNL     1      35.752 -22.422 -16.012  0.00  0.00    +0.055 C 
ATOM     28  C   UNL     1      33.302 -22.974 -15.674  0.00  0.00    +0.055 C 
BRANCH  26  30
ATOM     29  O   UNL     1      35.853 -25.586 -15.818  0.00  0.00    -0.246 OA
ATOM     30  C   UNL     1      35.053 -24.759 -15.396  0.00  0.00    +0.350 C 
BRANCH  30  31
ATOM     31  O   UNL     1      34.422 -24.904 -14.202  0.00  0.00    -0.478 OA
ATOM     32  H   UNL     1      34.604 -25.649 -13.664  0.00  0.00    +0.295 HD
ENDBRANCH  30  31
ENDBRANCH  26  30
ENDBRANCH  25  26
ENDBRANCH  22  25
ENDBRANCH  18  19
ENDBRANCH   1  18
TORSDOF 10
ENDMDL
MODEL 2
REMARK VINA RESULT:     -11.3      4.423     11.384
REMARK  Name = 9909438
REMARK  10 active torsions:
REMARK  status: ('A' for Active; 'I' for Inactive)
REMARK    1  A    between atoms: C_1  and  C_2
REMARK    2  A    between atoms: C_1  and  C_18
REMARK    3  A    between atoms: C_2  and  C_7
REMARK    4  A    between atoms: N_4  and  C_10
REMARK    5  A    between atoms: C_10  and  C_11
REMARK    6  A    between atoms: C_18  and  C_19
REMARK    7  A    between atoms: C_22  and  O_25
REMARK    8  A    between atoms: O_25  and  C_26
REMARK    9  A    between atoms: C_26  and  C_30
REMARK   10  A    between atoms: C_30  and  O_31
REMARK                            x       y       z     vdW  Elec       q    Type
REMARK                         _______ _______ _______ _____ _____    ______ ____
ROOT
ATOM      1  C   UNL     1      33.010 -14.284 -21.232  0.00  0.00    +0.014 C 
ENDROOT
BRANCH   1   2
ATOM      2  C   UNL     1      34.434 -14.690 -20.863  0.00  0.00    +0.078 C 
BRANCH   2   7
ATOM      3  O   UNL     1      35.515 -17.384 -24.586  0.00  0.00    -0.191 OA
ATOM      4  N   UNL     1      35.825 -17.679 -22.299  0.00  0.00    -0.151 N 
ATOM      5  N   UNL     1      35.512 -16.921 -21.213  0.00  0.00    -0.229 N 
ATOM      6  N   UNL     1      34.824 -15.795 -23.032  0.00  0.00    -0.308 NA
ATOM      7  C   UNL     1      34.913 -15.809 -21.723  0.00  0.00    +0.187 C 
ATOM      8  C   UNL     1      35.403 -17.001 -23.429  0.00  0.00    +0.286 C 
ATOM      9  H   UNL     1      35.680 -17.131 -20.266  0.00  0.00    +0.173 HD
BRANCH   4  10
ATOM     10  C   UNL     1      36.471 -18.953 -22.150  0.00  0.00    +0.152 C 
BRANCH  10  11
ATOM     11  C   UNL     1      35.684 -19.882 -21.272  0.00  0.00    +0.000 C 
ATOM     12  C   UNL     1      36.352 -20.718 -20.385  0.00  0.00    -0.003 C 
ATOM     13  C   UNL     1      34.297 -19.899 -21.356  0.00  0.00    -0.003 C 
ATOM     14  C   UNL     1      34.230 -21.604 -19.646  0.00  0.00    -0.022 C 
ATOM     15  C   UNL     1      35.621 -21.582 -19.568  0.00  0.00    -0.005 C 
ATOM     16  C   UNL     1      33.567 -20.763 -20.540  0.00  0.00    -0.005 C 
ATOM     17  C   UNL     1      33.449 -22.528 -18.773  0.00  0.00    +0.031 C 
ENDBRANCH  10  11
ENDBRANCH   4  10
ENDBRANCH   2   7
ENDBRANCH   1   2
BRANCH   1  18
ATOM     18  C   UNL     1      32.362 -13.391 -20.168  0.00  0.00    +0.027 C 
BRANCH  18  19
ATOM     19  C   UNL     1      32.202 -11.974 -20.656  0.00  0.00    -0.022 C 
ATOM     20  C   UNL     1      32.186 -11.721 -22.019  0.00  0.00    -0.001 C 
ATOM     21  C   UNL     1      32.072 -10.947 -19.733  0.00  0.00    -0.001 C 
ATOM     22  C   UNL     1      31.905  -9.367 -21.554  0.00  0.00    +0.139 C 
ATOM     23  C   UNL     1      32.037 -10.410 -22.472  0.00  0.00    +0.037 C 
ATOM     24  C   UNL     1      31.924  -9.635 -20.185  0.00  0.00    +0.037 C 
BRANCH  22  25
ATOM     25  O   UNL     1      31.761  -8.087 -21.994  0.00  0.00    -0.472 OA
BRANCH  25  26
ATOM     26  C   UNL     1      32.928  -7.266 -21.994  0.00  0.00    +0.221 C 
ATOM     27  C   UNL     1      33.476  -7.223 -20.571  0.00  0.00    +0.055 C 
ATOM     28  C   UNL     1      33.926  -7.863 -22.982  0.00  0.00    +0.055 C 
BRANCH  26  30
ATOM     29  O   UNL     1      32.792  -5.357 -23.499  0.00  0.00    -0.246 OA
ATOM     30  C   UNL     1      32.460  -5.889 -22.447  0.00  0.00    +0.350 C 
BRANCH  30  31
ATOM     31  O   UNL     1      31.622  -5.288 -21.564  0.00  0.00    -0.478 OA
ATOM     32  H   UNL     1      31.963  -4.911 -20.777  0.00  0.00    +0.295 HD
ENDBRANCH  30  31
ENDBRANCH  26  30
ENDBRANCH  25  26
ENDBRANCH  22  25
ENDBRANCH  18  19
ENDBRANCH   1  18
TORSDOF 10
ENDMDL
MODEL 3
REMARK VINA RESULT:     -11.3      2.823      4.394
REMARK  Name = 9909438
REMARK  10 active torsions:
REMARK  status: ('A' for Active; 'I' for Inactive)
REMARK    1  A    between atoms: C_1  and  C_2
REMARK    2  A    between atoms: C_1  and  C_18
REMARK    3  A    between atoms: C_2  and  C_7
REMARK    4  A    between atoms: N_4  and  C_10
REMARK    5  A    between atoms: C_10  and  C_11
REMARK    6  A    between atoms: C_18  and  C_19
REMARK    7  A    between atoms: C_22  and  O_25
REMARK    8  A    between atoms: O_25  and  C_26
REMARK    9  A    between atoms: C_26  and  C_30
REMARK   10  A    between atoms: C_30  and  O_31
REMARK                            x       y       z     vdW  Elec       q    Type
REMARK                         _______ _______ _______ _____ _____    ______ ____
ROOT
ATOM      1  C   UNL     1      34.810 -22.171 -19.501  0.00  0.00    +0.014 C 
ENDROOT
BRANCH   1   2
ATOM      2  C   UNL     1      34.096 -20.993 -20.159  0.00  0.00    +0.078 C 
BRANCH   2   7
ATOM      3  O   UNL     1      37.892 -18.679 -21.752  0.00  0.00    -0.191 OA
ATOM      4  N   UNL     1      35.822 -19.138 -22.711  0.00  0.00    -0.151 N 
ATOM      5  N   UNL     1      34.715 -19.792 -22.266  0.00  0.00    -0.229 N 
ATOM      6  N   UNL     1      36.243 -19.870 -20.620  0.00  0.00    -0.308 NA
ATOM      7  C   UNL     1      35.034 -20.203 -21.007  0.00  0.00    +0.187 C 
ATOM      8  C   UNL     1      36.772 -19.172 -21.706  0.00  0.00    +0.286 C 
ATOM      9  H   UNL     1      33.869 -19.937 -22.748  0.00  0.00    +0.173 HD
BRANCH   4  10
ATOM     10  C   UNL     1      35.856 -18.548 -24.020  0.00  0.00    +0.152 C 
BRANCH  10  11
ATOM     11  C   UNL     1      35.315 -17.148 -24.020  0.00  0.00    +0.000 C 
ATOM     12  C   UNL     1      35.355 -16.397 -22.851  0.00  0.00    -0.003 C 
ATOM     13  C   UNL     1      34.778 -16.617 -25.187  0.00  0.00    -0.003 C 
ATOM     14  C   UNL     1      34.313 -14.556 -24.017  0.00  0.00    -0.022 C 
ATOM     15  C   UNL     1      34.852 -15.095 -22.850  0.00  0.00    -0.005 C 
ATOM     16  C   UNL     1      34.276 -15.317 -25.185  0.00  0.00    -0.005 C 
ATOM     17  C   UNL     1      33.775 -13.164 -24.015  0.00  0.00    +0.031 C 
ENDBRANCH  10  11
ENDBRANCH   4  10
ENDBRANCH   2   7
ENDBRANCH   1   2
BRANCH   1  18
ATOM     18  C   UNL     1      34.264 -22.478 -18.103  0.00  0.00    +0.027 C 
BRANCH  18  19
ATOM     19  C   UNL     1      35.366 -22.859 -17.148  0.00  0.00    -0.022 C 
ATOM     20  C   UNL     1      36.658 -22.416 -17.388  0.00  0.00    -0.001 C 
ATOM     21  C   UNL     1      35.071 -23.645 -16.045  0.00  0.00    -0.001 C 
ATOM     22  C   UNL     1      37.395 -23.558 -15.390  0.00  0.00    +0.139 C 
ATOM     23  C   UNL     1      37.679 -22.767 -16.504  0.00  0.00    +0.037 C 
ATOM     24  C   UNL     1      36.091 -23.998 -15.161  0.00  0.00    +0.037 C 
BRANCH  22  25
ATOM     25  O   UNL     1      38.390 -23.902 -14.528  0.00  0.00    -0.472 OA
BRANCH  25  26
ATOM     26  C   UNL     1      38.780 -25.274 -14.502  0.00  0.00    +0.221 C 
ATOM     27  C   UNL     1      38.703 -25.760 -13.058  0.00  0.00    +0.055 C 
ATOM     28  C   UNL     1      37.844 -26.049 -15.425  0.00  0.00    +0.055 C 
BRANCH  26  30
ATOM     29  O   UNL     1      41.189 -24.943 -14.373  0.00  0.00    -0.246 OA
ATOM     30  C   UNL     1      40.212 -25.303 -15.019  0.00  0.00    +0.350 C 
BRANCH  30  31
ATOM     31  O   UNL     1      40.317 -25.774 -16.289  0.00  0.00    -0.478 OA
ATOM     32  H   UNL     1      40.846 -25.320 -16.914  0.00  0.00    +0.295 HD
ENDBRANCH  30  31
ENDBRANCH  26  30
ENDBRANCH  25  26
ENDBRANCH  22  25
ENDBRANCH  18  19
ENDBRANCH   1  18
TORSDOF 10
ENDMDL
MODEL 4
REMARK VINA RESULT:     -11.2      2.395      4.059
REMARK  Name = 9909438
REMARK  10 active torsions:
REMARK  status: ('A' for Active; 'I' for Inactive)
REMARK    1  A    between atoms: C_1  and  C_2
REMARK    2  A    between atoms: C_1  and  C_18
REMARK    3  A    between atoms: C_2  and  C_7
REMARK    4  A    between atoms: N_4  and  C_10
REMARK    5  A    between atoms: C_10  and  C_11
REMARK    6  A    between atoms: C_18  and  C_19
REMARK    7  A    between atoms: C_22  and  O_25
REMARK    8  A    between atoms: O_25  and  C_26
REMARK    9  A    between atoms: C_26  and  C_30
REMARK   10  A    between atoms: C_30  and  O_31
REMARK                            x       y       z     vdW  Elec       q    Type
REMARK                         _______ _______ _______ _____ _____    ______ ____
ROOT
ATOM      1  C   UNL     1      34.175 -22.226 -19.615  0.00  0.00    +0.014 C 
ENDROOT
BRANCH   1   2
ATOM      2  C   UNL     1      33.640 -20.962 -20.283  0.00  0.00    +0.078 C 
BRANCH   2   7
ATOM      3  O   UNL     1      37.749 -18.907 -21.370  0.00  0.00    -0.191 OA
ATOM      4  N   UNL     1      35.785 -19.213 -22.579  0.00  0.00    -0.151 N 
ATOM      5  N   UNL     1      34.590 -19.791 -22.280  0.00  0.00    -0.229 N 
ATOM      6  N   UNL     1      35.898 -19.989 -20.464  0.00  0.00    -0.308 NA
ATOM      7  C   UNL     1      34.725 -20.233 -20.999  0.00  0.00    +0.187 C 
ATOM      8  C   UNL     1      36.601 -19.321 -21.467  0.00  0.00    +0.286 C 
ATOM      9  H   UNL     1      33.800 -19.873 -22.862  0.00  0.00    +0.173 HD
BRANCH   4  10
ATOM     10  C   UNL     1      36.016 -18.616 -23.864  0.00  0.00    +0.152 C 
BRANCH  10  11
ATOM     11  C   UNL     1      35.415 -17.244 -23.964  0.00  0.00    +0.000 C 
ATOM     12  C   UNL     1      35.416 -16.412 -22.851  0.00  0.00    -0.003 C 
ATOM     13  C   UNL     1      34.864 -16.820 -25.167  0.00  0.00    -0.003 C 
ATOM     14  C   UNL     1      34.303 -14.704 -24.146  0.00  0.00    -0.022 C 
ATOM     15  C   UNL     1      34.857 -15.136 -22.943  0.00  0.00    -0.005 C 
ATOM     16  C   UNL     1      34.306 -15.545 -25.259  0.00  0.00    -0.005 C 
ATOM     17  C   UNL     1      33.706 -13.341 -24.245  0.00  0.00    +0.031 C 
ENDBRANCH  10  11
ENDBRANCH   4  10
ENDBRANCH   2   7
ENDBRANCH   1   2
BRANCH   1  18
ATOM     18  C   UNL     1      33.320 -22.664 -18.421  0.00  0.00    +0.027 C 
BRANCH  18  19
ATOM     19  C   UNL     1      34.169 -22.987 -17.218  0.00  0.00    -0.022 C 
ATOM     20  C   UNL     1      35.521 -22.675 -17.236  0.00  0.00    -0.001 C 
ATOM     21  C   UNL     1      33.586 -23.589 -16.115  0.00  0.00    -0.001 C 
ATOM     22  C   UNL     1      35.733 -23.578 -15.006  0.00  0.00    +0.139 C 
ATOM     23  C   UNL     1      36.308 -22.972 -16.123  0.00  0.00    +0.037 C 
ATOM     24  C   UNL     1      34.373 -23.888 -15.001  0.00  0.00    +0.037 C 
BRANCH  22  25
ATOM     25  O   UNL     1      36.500 -23.871 -13.920  0.00  0.00    -0.472 OA
BRANCH  25  26
ATOM     26  C   UNL     1      37.134 -25.149 -13.898  0.00  0.00    +0.221 C 
ATOM     27  C   UNL     1      36.564 -25.978 -15.044  0.00  0.00    +0.055 C 
ATOM     28  C   UNL     1      38.638 -24.932 -14.033  0.00  0.00    +0.055 C 
BRANCH  26  30
ATOM     29  O   UNL     1      37.480 -26.570 -11.952  0.00  0.00    -0.246 OA
ATOM     30  C   UNL     1      36.783 -25.757 -12.547  0.00  0.00    +0.350 C 
BRANCH  30  31
ATOM     31  O   UNL     1      35.602 -25.311 -12.046  0.00  0.00    -0.478 OA
ATOM     32  H   UNL     1      34.884 -25.903 -11.942  0.00  0.00    +0.295 HD
ENDBRANCH  30  31
ENDBRANCH  26  30
ENDBRANCH  25  26
ENDBRANCH  22  25
ENDBRANCH  18  19
ENDBRANCH   1  18
TORSDOF 10
ENDMDL
MODEL 5
REMARK VINA RESULT:     -10.6      4.336     11.325
REMARK  Name = 9909438
REMARK  10 active torsions:
REMARK  status: ('A' for Active; 'I' for Inactive)
REMARK    1  A    between atoms: C_1  and  C_2
REMARK    2  A    between atoms: C_1  and  C_18
REMARK    3  A    between atoms: C_2  and  C_7
REMARK    4  A    between atoms: N_4  and  C_10
REMARK    5  A    between atoms: C_10  and  C_11
REMARK    6  A    between atoms: C_18  and  C_19
REMARK    7  A    between atoms: C_22  and  O_25
REMARK    8  A    between atoms: O_25  and  C_26
REMARK    9  A    between atoms: C_26  and  C_30
REMARK   10  A    between atoms: C_30  and  O_31
REMARK                            x       y       z     vdW  Elec       q    Type
REMARK                         _______ _______ _______ _____ _____    ______ ____
ROOT
ATOM      1  C   UNL     1      34.654 -14.186 -23.647  0.00  0.00    +0.014 C 
ENDROOT
BRANCH   1   2
ATOM      2  C   UNL     1      34.336 -15.240 -24.704  0.00  0.00    +0.078 C 
BRANCH   2   7
ATOM      3  O   UNL     1      35.273 -19.866 -24.560  0.00  0.00    -0.191 OA
ATOM      4  N   UNL     1      35.853 -18.107 -23.152  0.00  0.00    -0.151 N 
ATOM      5  N   UNL     1      35.584 -16.773 -23.170  0.00  0.00    -0.229 N 
ATOM      6  N   UNL     1      34.599 -17.677 -24.976  0.00  0.00    -0.308 NA
ATOM      7  C   UNL     1      34.828 -16.584 -24.287  0.00  0.00    +0.187 C 
ATOM      8  C   UNL     1      35.247 -18.680 -24.256  0.00  0.00    +0.286 C 
ATOM      9  H   UNL     1      35.874 -16.093 -22.519  0.00  0.00    +0.173 HD
BRANCH   4  10
ATOM     10  C   UNL     1      36.634 -18.689 -22.096  0.00  0.00    +0.152 C 
BRANCH  10  11
ATOM     11  C   UNL     1      35.839 -19.673 -21.286  0.00  0.00    +0.000 C 
ATOM     12  C   UNL     1      36.502 -20.617 -20.511  0.00  0.00    -0.003 C 
ATOM     13  C   UNL     1      34.451 -19.630 -21.321  0.00  0.00    -0.003 C 
ATOM     14  C   UNL     1      34.370 -21.494 -19.788  0.00  0.00    -0.022 C 
ATOM     15  C   UNL     1      35.763 -21.531 -19.758  0.00  0.00    -0.005 C 
ATOM     16  C   UNL     1      33.714 -20.543 -20.568  0.00  0.00    -0.005 C 
ATOM     17  C   UNL     1      33.582 -22.472 -18.983  0.00  0.00    +0.031 C 
ENDBRANCH  10  11
ENDBRANCH   4  10
ENDBRANCH   2   7
ENDBRANCH   1   2
BRANCH   1  18
ATOM     18  C   UNL     1      33.421 -13.787 -22.829  0.00  0.00    +0.027 C 
BRANCH  18  19
ATOM     19  C   UNL     1      33.128 -12.313 -22.948  0.00  0.00    -0.022 C 
ATOM     20  C   UNL     1      32.145 -11.748 -22.149  0.00  0.00    -0.001 C 
ATOM     21  C   UNL     1      33.847 -11.547 -23.852  0.00  0.00    -0.001 C 
ATOM     22  C   UNL     1      32.591  -9.602 -23.163  0.00  0.00    +0.139 C 
ATOM     23  C   UNL     1      31.874 -10.384 -22.257  0.00  0.00    +0.037 C 
ATOM     24  C   UNL     1      33.576 -10.182 -23.961  0.00  0.00    +0.037 C 
BRANCH  22  25
ATOM     25  O   UNL     1      32.326  -8.271 -23.271  0.00  0.00    -0.472 OA
BRANCH  25  26
ATOM     26  C   UNL     1      33.150  -7.382 -22.517  0.00  0.00    +0.221 C 
ATOM     27  C   UNL     1      33.207  -7.894 -21.081  0.00  0.00    +0.055 C 
ATOM     28  C   UNL     1      34.527  -7.343 -23.174  0.00  0.00    +0.055 C 
BRANCH  26  30
ATOM     29  O   UNL     1      32.151  -5.464 -23.636  0.00  0.00    -0.246 OA
ATOM     30  C   UNL     1      32.464  -6.025 -22.592  0.00  0.00    +0.350 C 
BRANCH  30  31
ATOM     31  O   UNL     1      32.221  -5.476 -21.374  0.00  0.00    -0.478 OA
ATOM     32  H   UNL     1      32.865  -5.538 -20.696  0.00  0.00    +0.295 HD
ENDBRANCH  30  31
ENDBRANCH  26  30
ENDBRANCH  25  26
ENDBRANCH  22  25
ENDBRANCH  18  19
ENDBRANCH   1  18
TORSDOF 10
ENDMDL
MODEL 6
REMARK VINA RESULT:     -10.6      2.025      3.371
REMARK  Name = 9909438
REMARK  10 active torsions:
REMARK  status: ('A' for Active; 'I' for Inactive)
REMARK    1  A    between atoms: C_1  and  C_2
REMARK    2  A    between atoms: C_1  and  C_18
REMARK    3  A    between atoms: C_2  and  C_7
REMARK    4  A    between atoms: N_4  and  C_10
REMARK    5  A    between atoms: C_10  and  C_11
REMARK    6  A    between atoms: C_18  and  C_19
REMARK    7  A    between atoms: C_22  and  O_25
REMARK    8  A    between atoms: O_25  and  C_26
REMARK    9  A    between atoms: C_26  and  C_30
REMARK   10  A    between atoms: C_30  and  O_31
REMARK                            x       y       z     vdW  Elec       q    Type
REMARK                         _______ _______ _______ _____ _____    ______ ____
ROOT
ATOM      1  C   UNL     1      35.742 -21.784 -20.136  0.00  0.00    +0.014 C 
ENDROOT
BRANCH   1   2
ATOM      2  C   UNL     1      34.560 -20.837 -20.325  0.00  0.00    +0.078 C 
BRANCH   2   7
ATOM      3  O   UNL     1      34.721 -18.711 -24.537  0.00  0.00    -0.191 OA
ATOM      4  N   UNL     1      35.463 -18.065 -22.429  0.00  0.00    -0.151 N 
ATOM      5  N   UNL     1      35.436 -18.667 -21.209  0.00  0.00    -0.229 N 
ATOM      6  N   UNL     1      34.457 -20.070 -22.666  0.00  0.00    -0.308 NA
ATOM      7  C   UNL     1      34.822 -19.864 -21.422  0.00  0.00    +0.187 C 
ATOM      8  C   UNL     1      34.868 -18.920 -23.340  0.00  0.00    +0.286 C 
ATOM      9  H   UNL     1      35.784 -18.314 -20.358  0.00  0.00    +0.173 HD
BRANCH   4  10
ATOM     10  C   UNL     1      36.055 -16.767 -22.601  0.00  0.00    +0.152 C 
BRANCH  10  11
ATOM     11  C   UNL     1      35.050 -15.665 -22.432  0.00  0.00    +0.000 C 
ATOM     12  C   UNL     1      34.543 -15.021 -23.554  0.00  0.00    -0.003 C 
ATOM     13  C   UNL     1      34.638 -15.299 -21.156  0.00  0.00    -0.003 C 
ATOM     14  C   UNL     1      33.190 -13.623 -22.122  0.00  0.00    -0.022 C 
ATOM     15  C   UNL     1      33.609 -13.996 -23.398  0.00  0.00    -0.005 C 
ATOM     16  C   UNL     1      33.704 -14.275 -21.001  0.00  0.00    -0.005 C 
ATOM     17  C   UNL     1      32.192 -12.528 -21.955  0.00  0.00    +0.031 C 
ENDBRANCH  10  11
ENDBRANCH   4  10
ENDBRANCH   2   7
ENDBRANCH   1   2
BRANCH   1  18
ATOM     18  C   UNL     1      36.775 -21.239 -19.144  0.00  0.00    +0.027 C 
BRANCH  18  19
ATOM     19  C   UNL     1      36.705 -21.955 -17.819  0.00  0.00    -0.022 C 
ATOM     20  C   UNL     1      35.499 -22.498 -17.403  0.00  0.00    -0.001 C 
ATOM     21  C   UNL     1      37.846 -22.058 -17.039  0.00  0.00    -0.001 C 
ATOM     22  C   UNL     1      36.574 -23.273 -15.383  0.00  0.00    +0.139 C 
ATOM     23  C   UNL     1      35.432 -23.161 -16.178  0.00  0.00    +0.037 C 
ATOM     24  C   UNL     1      37.780 -22.721 -15.813  0.00  0.00    +0.037 C 
BRANCH  22  25
ATOM     25  O   UNL     1      36.510 -23.918 -14.186  0.00  0.00    -0.472 OA
BRANCH  25  26
ATOM     26  C   UNL     1      37.100 -25.215 -14.116  0.00  0.00    +0.221 C 
ATOM     27  C   UNL     1      36.516 -26.063 -15.241  0.00  0.00    +0.055 C 
ATOM     28  C   UNL     1      38.613 -25.053 -14.239  0.00  0.00    +0.055 C 
BRANCH  26  30
ATOM     29  O   UNL     1      37.384 -26.572 -12.114  0.00  0.00    -0.246 OA
ATOM     30  C   UNL     1      36.714 -25.768 -12.751  0.00  0.00    +0.350 C 
BRANCH  30  31
ATOM     31  O   UNL     1      35.534 -25.281 -12.287  0.00  0.00    -0.478 OA
ATOM     32  H   UNL     1      35.192 -25.582 -11.469  0.00  0.00    +0.295 HD
ENDBRANCH  30  31
ENDBRANCH  26  30
ENDBRANCH  25  26
ENDBRANCH  22  25
ENDBRANCH  18  19
ENDBRANCH   1  18
TORSDOF 10
ENDMDL
MODEL 7
REMARK VINA RESULT:     -10.5      4.696     10.540
REMARK  Name = 9909438
REMARK  10 active torsions:
REMARK  status: ('A' for Active; 'I' for Inactive)
REMARK    1  A    between atoms: C_1  and  C_2
REMARK    2  A    between atoms: C_1  and  C_18
REMARK    3  A    between atoms: C_2  and  C_7
REMARK    4  A    between atoms: N_4  and  C_10
REMARK    5  A    between atoms: C_10  and  C_11
REMARK    6  A    between atoms: C_18  and  C_19
REMARK    7  A    between atoms: C_22  and  O_25
REMARK    8  A    between atoms: O_25  and  C_26
REMARK    9  A    between atoms: C_26  and  C_30
REMARK   10  A    between atoms: C_30  and  O_31
REMARK                            x       y       z     vdW  Elec       q    Type
REMARK                         _______ _______ _______ _____ _____    ______ ____
ROOT
ATOM      1  C   UNL     1      34.444 -22.685 -17.439  0.00  0.00    +0.014 C 
ENDROOT
BRANCH   1   2
ATOM      2  C   UNL     1      35.492 -23.244 -16.481  0.00  0.00    +0.078 C 
BRANCH   2   7
ATOM      3  O   UNL     1      34.730 -24.741 -12.068  0.00  0.00    -0.191 OA
ATOM      4  N   UNL     1      33.343 -24.588 -13.930  0.00  0.00    -0.151 N 
ATOM      5  N   UNL     1      33.546 -24.171 -15.209  0.00  0.00    -0.229 N 
ATOM      6  N   UNL     1      35.495 -23.939 -14.115  0.00  0.00    -0.308 NA
ATOM      7  C   UNL     1      34.856 -23.798 -15.252  0.00  0.00    +0.187 C 
ATOM      8  C   UNL     1      34.537 -24.457 -13.243  0.00  0.00    +0.286 C 
ATOM      9  H   UNL     1      32.891 -24.144 -15.943  0.00  0.00    +0.173 HD
BRANCH   4  10
ATOM     10  C   UNL     1      32.059 -25.072 -13.506  0.00  0.00    +0.152 C 
BRANCH  10  11
ATOM     11  C   UNL     1      30.944 -24.523 -14.348  0.00  0.00    +0.000 C 
ATOM     12  C   UNL     1      30.760 -23.148 -14.430  0.00  0.00    -0.003 C 
ATOM     13  C   UNL     1      30.107 -25.394 -15.034  0.00  0.00    -0.003 C 
ATOM     14  C   UNL     1      28.881 -23.504 -15.905  0.00  0.00    -0.022 C 
ATOM     15  C   UNL     1      29.724 -22.637 -15.213  0.00  0.00    -0.005 C 
ATOM     16  C   UNL     1      29.072 -24.883 -15.817  0.00  0.00    -0.005 C 
ATOM     17  C   UNL     1      27.773 -22.958 -16.742  0.00  0.00    +0.031 C 
ENDBRANCH  10  11
ENDBRANCH   4  10
ENDBRANCH   2   7
ENDBRANCH   1   2
BRANCH   1  18
ATOM     18  C   UNL     1      34.748 -23.025 -18.902  0.00  0.00    +0.027 C 
BRANCH  18  19
ATOM     19  C   UNL     1      34.825 -21.785 -19.756  0.00  0.00    -0.022 C 
ATOM     20  C   UNL     1      36.065 -21.236 -20.048  0.00  0.00    -0.001 C 
ATOM     21  C   UNL     1      33.657 -21.215 -20.235  0.00  0.00    -0.001 C 
ATOM     22  C   UNL     1      34.969 -19.505 -21.328  0.00  0.00    +0.139 C 
ATOM     23  C   UNL     1      36.138 -20.089 -20.838  0.00  0.00    +0.037 C 
ATOM     24  C   UNL     1      33.729 -20.067 -21.026  0.00  0.00    +0.037 C 
BRANCH  22  25
ATOM     25  O   UNL     1      35.039 -18.386 -22.098  0.00  0.00    -0.472 OA
BRANCH  25  26
ATOM     26  C   UNL     1      35.740 -18.492 -23.336  0.00  0.00    +0.221 C 
ATOM     27  C   UNL     1      37.233 -18.549 -23.029  0.00  0.00    +0.055 C 
ATOM     28  C   UNL     1      35.247 -19.745 -24.053  0.00  0.00    +0.055 C 
BRANCH  26  30
ATOM     29  O   UNL     1      34.606 -17.202 -25.062  0.00  0.00    -0.246 OA
ATOM     30  C   UNL     1      35.385 -17.234 -24.117  0.00  0.00    +0.350 C 
BRANCH  30  31
ATOM     31  O   UNL     1      36.023 -16.122 -23.667  0.00  0.00    -0.478 OA
ATOM     32  H   UNL     1      35.668 -15.274 -23.846  0.00  0.00    +0.295 HD
ENDBRANCH  30  31
ENDBRANCH  26  30
ENDBRANCH  25  26
ENDBRANCH  22  25
ENDBRANCH  18  19
ENDBRANCH   1  18
TORSDOF 10
ENDMDL
MODEL 8
REMARK VINA RESULT:     -10.4      2.488      4.263
REMARK  Name = 9909438
REMARK  10 active torsions:
REMARK  status: ('A' for Active; 'I' for Inactive)
REMARK    1  A    between atoms: C_1  and  C_2
REMARK    2  A    between atoms: C_1  and  C_18
REMARK    3  A    between atoms: C_2  and  C_7
REMARK    4  A    between atoms: N_4  and  C_10
REMARK    5  A    between atoms: C_10  and  C_11
REMARK    6  A    between atoms: C_18  and  C_19
REMARK    7  A    between atoms: C_22  and  O_25
REMARK    8  A    between atoms: O_25  and  C_26
REMARK    9  A    between atoms: C_26  and  C_30
REMARK   10  A    between atoms: C_30  and  O_31
REMARK                            x       y       z     vdW  Elec       q    Type
REMARK                         _______ _______ _______ _____ _____    ______ ____
ROOT
ATOM      1  C   UNL     1      36.128 -21.921 -19.430  0.00  0.00    +0.014 C 
ENDROOT
BRANCH   1   2
ATOM      2  C   UNL     1      35.117 -20.937 -20.012  0.00  0.00    +0.078 C 
BRANCH   2   7
ATOM      3  O   UNL     1      38.172 -18.338 -22.502  0.00  0.00    -0.191 OA
ATOM      4  N   UNL     1      35.982 -19.003 -22.917  0.00  0.00    -0.151 N 
ATOM      5  N   UNL     1      35.084 -19.741 -22.209  0.00  0.00    -0.229 N 
ATOM      6  N   UNL     1      36.970 -19.641 -20.993  0.00  0.00    -0.308 NA
ATOM      7  C   UNL     1      35.739 -20.089 -21.067  0.00  0.00    +0.187 C 
ATOM      8  C   UNL     1      37.149 -18.927 -22.178  0.00  0.00    +0.286 C 
ATOM      9  H   UNL     1      34.162 -19.973 -22.466  0.00  0.00    +0.173 HD
BRANCH   4  10
ATOM     10  C   UNL     1      35.637 -18.446 -24.195  0.00  0.00    +0.152 C 
BRANCH  10  11
ATOM     11  C   UNL     1      35.173 -17.023 -24.082  0.00  0.00    +0.000 C 
ATOM     12  C   UNL     1      34.598 -16.398 -25.182  0.00  0.00    -0.003 C 
ATOM     13  C   UNL     1      35.325 -16.344 -22.878  0.00  0.00    -0.003 C 
ATOM     14  C   UNL     1      34.316 -14.388 -23.873  0.00  0.00    -0.022 C 
ATOM     15  C   UNL     1      34.167 -15.075 -25.076  0.00  0.00    -0.005 C 
ATOM     16  C   UNL     1      34.894 -15.022 -22.773  0.00  0.00    -0.005 C 
ATOM     17  C   UNL     1      33.855 -12.973 -23.760  0.00  0.00    +0.031 C 
ENDBRANCH  10  11
ENDBRANCH   4  10
ENDBRANCH   2   7
ENDBRANCH   1   2
BRANCH   1  18
ATOM     18  C   UNL     1      36.822 -21.375 -18.178  0.00  0.00    +0.027 C 
BRANCH  18  19
ATOM     19  C   UNL     1      36.755 -22.354 -17.033  0.00  0.00    -0.022 C 
ATOM     20  C   UNL     1      35.517 -22.771 -16.568  0.00  0.00    -0.001 C 
ATOM     21  C   UNL     1      37.930 -22.821 -16.466  0.00  0.00    -0.001 C 
ATOM     22  C   UNL     1      36.629 -24.156 -14.930  0.00  0.00    +0.139 C 
ATOM     23  C   UNL     1      35.453 -23.678 -15.510  0.00  0.00    +0.037 C 
ATOM     24  C   UNL     1      37.867 -23.727 -15.407  0.00  0.00    +0.037 C 
BRANCH  22  25
ATOM     25  O   UNL     1      36.568 -25.040 -13.896  0.00  0.00    -0.472 OA
BRANCH  25  26
ATOM     26  C   UNL     1      36.861 -24.536 -12.594  0.00  0.00    +0.221 C 
ATOM     27  C   UNL     1      37.948 -25.415 -11.982  0.00  0.00    +0.055 C 
ATOM     28  C   UNL     1      37.304 -23.083 -12.738  0.00  0.00    +0.055 C 
BRANCH  26  30
ATOM     29  O   UNL     1      34.541 -24.015 -12.074  0.00  0.00    -0.246 OA
ATOM     30  C   UNL     1      35.560 -24.642 -11.811  0.00  0.00    +0.350 C 
BRANCH  30  31
ATOM     31  O   UNL     1      35.627 -25.512 -10.770  0.00  0.00    -0.478 OA
ATOM     32  H   UNL     1      35.937 -25.220  -9.936  0.00  0.00    +0.295 HD
ENDBRANCH  30  31
ENDBRANCH  26  30
ENDBRANCH  25  26
ENDBRANCH  22  25
ENDBRANCH  18  19
ENDBRANCH   1  18
TORSDOF 10
ENDMDL
MODEL 9
REMARK VINA RESULT:     -10.3      4.518     10.970
REMARK  Name = 9909438
REMARK  10 active torsions:
REMARK  status: ('A' for Active; 'I' for Inactive)
REMARK    1  A    between atoms: C_1  and  C_2
REMARK    2  A    between atoms: C_1  and  C_18
REMARK    3  A    between atoms: C_2  and  C_7
REMARK    4  A    between atoms: N_4  and  C_10
REMARK    5  A    between atoms: C_10  and  C_11
REMARK    6  A    between atoms: C_18  and  C_19
REMARK    7  A    between atoms: C_22  and  O_25
REMARK    8  A    between atoms: O_25  and  C_26
REMARK    9  A    between atoms: C_26  and  C_30
REMARK   10  A    between atoms: C_30  and  O_31
REMARK                            x       y       z     vdW  Elec       q    Type
REMARK                         _______ _______ _______ _____ _____    ______ ____
ROOT
ATOM      1  C   UNL     1      33.626 -23.357 -18.121  0.00  0.00    +0.014 C 
ENDROOT
BRANCH   1   2
ATOM      2  C   UNL     1      32.648 -22.803 -17.088  0.00  0.00    +0.078 C 
BRANCH   2   7
ATOM      3  O   UNL     1      31.955 -25.456 -13.244  0.00  0.00    -0.191 OA
ATOM      4  N   UNL     1      33.735 -24.121 -13.924  0.00  0.00    -0.151 N 
ATOM      5  N   UNL     1      33.949 -23.343 -15.020  0.00  0.00    -0.229 N 
ATOM      6  N   UNL     1      31.916 -24.273 -15.249  0.00  0.00    -0.308 NA
ATOM      7  C   UNL     1      32.820 -23.477 -15.770  0.00  0.00    +0.187 C 
ATOM      8  C   UNL     1      32.484 -24.698 -14.047  0.00  0.00    +0.286 C 
ATOM      9  H   UNL     1      34.745 -22.801 -15.225  0.00  0.00    +0.173 HD
BRANCH   4  10
ATOM     10  C   UNL     1      34.722 -24.223 -12.886  0.00  0.00    +0.152 C 
BRANCH  10  11
ATOM     11  C   UNL     1      36.060 -24.646 -13.420  0.00  0.00    +0.000 C 
ATOM     12  C   UNL     1      36.127 -25.370 -14.605  0.00  0.00    -0.003 C 
ATOM     13  C   UNL     1      37.216 -24.313 -12.725  0.00  0.00    -0.003 C 
ATOM     14  C   UNL     1      38.534 -25.432 -14.411  0.00  0.00    -0.022 C 
ATOM     15  C   UNL     1      37.370 -25.764 -15.103  0.00  0.00    -0.005 C 
ATOM     16  C   UNL     1      38.457 -24.706 -13.223  0.00  0.00    -0.005 C 
ATOM     17  C   UNL     1      39.863 -25.854 -14.943  0.00  0.00    +0.031 C 
ENDBRANCH  10  11
ENDBRANCH   4  10
ENDBRANCH   2   7
ENDBRANCH   1   2
BRANCH   1  18
ATOM     18  C   UNL     1      34.912 -22.528 -18.212  0.00  0.00    +0.027 C 
BRANCH  18  19
ATOM     19  C   UNL     1      34.911 -21.633 -19.425  0.00  0.00    -0.022 C 
ATOM     20  C   UNL     1      36.119 -21.237 -19.979  0.00  0.00    -0.001 C 
ATOM     21  C   UNL     1      33.703 -21.221 -19.966  0.00  0.00    -0.001 C 
ATOM     22  C   UNL     1      34.910 -19.988 -21.657  0.00  0.00    +0.139 C 
ATOM     23  C   UNL     1      36.119 -20.410 -21.102  0.00  0.00    +0.037 C 
ATOM     24  C   UNL     1      33.703 -20.392 -21.089  0.00  0.00    +0.037 C 
BRANCH  22  25
ATOM     25  O   UNL     1      34.909 -19.179 -22.752  0.00  0.00    -0.472 OA
BRANCH  25  26
ATOM     26  C   UNL     1      35.755 -18.030 -22.711  0.00  0.00    +0.221 C 
ATOM     27  C   UNL     1      35.406 -17.231 -21.459  0.00  0.00    +0.055 C 
ATOM     28  C   UNL     1      37.203 -18.510 -22.707  0.00  0.00    +0.055 C 
BRANCH  26  30
ATOM     29  O   UNL     1      34.745 -17.661 -24.895  0.00  0.00    -0.246 OA
ATOM     30  C   UNL     1      35.438 -17.243 -23.975  0.00  0.00    +0.350 C 
BRANCH  30  31
ATOM     31  O   UNL     1      36.002 -16.008 -23.996  0.00  0.00    -0.478 OA
ATOM     32  H   UNL     1      36.677 -15.791 -23.384  0.00  0.00    +0.295 HD
ENDBRANCH  30  31
ENDBRANCH  26  30
ENDBRANCH  25  26
ENDBRANCH  22  25
ENDBRANCH  18  19
ENDBRANCH   1  18
TORSDOF 10
ENDMDL
