MODEL 1
REMARK VINA RESULT:     -11.8      0.000      0.000
REMARK  Name = 25114442
REMARK  7 active torsions:
REMARK  status: ('A' for Active; 'I' for Inactive)
REMARK    1  A    between atoms: C_3  and  C_15
REMARK    2  A    between atoms: C_3  and  C_18
REMARK    3  A    between atoms: C_6  and  C_8
REMARK    4  A    between atoms: C_15  and  O_16
REMARK    5  A    between atoms: C_18  and  O_19
REMARK    6  A    between atoms: O_19  and  C_20
REMARK    7  A    between atoms: C_28  and  O_30
REMARK                            x       y       z     vdW  Elec       q    Type
REMARK                         _______ _______ _______ _____ _____    ______ ____
ROOT
ATOM      1  O   UNL     1      32.265 -23.243 -12.765  0.00  0.00    -0.270 OA
ATOM      2  N   UNL     1      33.651 -24.056 -14.412  0.00  0.00    -0.275 N 
ATOM      3  C   UNL     1      35.477 -24.026 -15.333  0.00  0.00    +0.166 C 
ATOM      4  C   UNL     1      34.102 -24.610 -15.674  0.00  0.00    +0.110 C 
ATOM      5  C   UNL     1      34.989 -23.843 -13.891  0.00  0.00    +0.110 C 
ATOM      6  C   UNL     1      32.433 -23.710 -13.888  0.00  0.00    +0.249 C 
ENDROOT
BRANCH   6   8
ATOM      7  F   UNL     1      27.952 -24.412 -17.180  0.00  0.00    -0.204 F 
ATOM      8  C   UNL     1      31.254 -23.895 -14.755  0.00  0.00    +0.054 C 
ATOM      9  C   UNL     1      30.504 -25.068 -14.671  0.00  0.00    +0.007 C 
ATOM     10  C   UNL     1      30.888 -22.896 -15.658  0.00  0.00    +0.007 C 
ATOM     11  C   UNL     1      29.389 -25.243 -15.489  0.00  0.00    +0.030 C 
ATOM     12  C   UNL     1      29.773 -23.072 -16.477  0.00  0.00    +0.030 C 
ATOM     13  C   UNL     1      29.023 -24.244 -16.393  0.00  0.00    +0.140 C 
ENDBRANCH   6   8
BRANCH   3  15
ATOM     14  O   UNL     1      36.639 -26.180 -15.725  0.00  0.00    -0.250 OA
ATOM     15  C   UNL     1      36.692 -24.967 -15.534  0.00  0.00    +0.320 C 
BRANCH  15  16
ATOM     16  O   UNL     1      37.879 -24.301 -15.480  0.00  0.00    -0.480 OA
ATOM     17  H   UNL     1      37.996 -23.602 -14.867  0.00  0.00    +0.295 HD
ENDBRANCH  15  16
ENDBRANCH   3  15
BRANCH   3  18
ATOM     18  C   UNL     1      35.711 -22.694 -16.019  0.00  0.00    +0.219 C 
BRANCH  18  19
ATOM     19  O   UNL     1      36.346 -22.932 -17.274  0.00  0.00    -0.475 OA
BRANCH  19  20
ATOM     20  C   UNL     1      35.908 -22.205 -18.338  0.00  0.00    +0.139 C 
ATOM     21  C   UNL     1      36.784 -21.341 -18.997  0.00  0.00    +0.037 C 
ATOM     22  C   UNL     1      34.589 -22.321 -18.766  0.00  0.00    +0.037 C 
ATOM     23  C   UNL     1      36.348 -20.582 -20.096  0.00  0.00    +0.003 C 
ATOM     24  C   UNL     1      35.007 -20.700 -20.532  0.00  0.00    +0.003 C 
ATOM     25  C   UNL     1      34.140 -21.575 -19.856  0.00  0.00    +0.003 C 
ATOM     26  C   UNL     1      37.216 -19.708 -20.772  0.00  0.00    +0.003 C 
ATOM     27  C   UNL     1      34.573 -19.942 -21.631  0.00  0.00    +0.037 C 
ATOM     28  C   UNL     1      35.447 -19.079 -22.290  0.00  0.00    +0.139 C 
ATOM     29  C   UNL     1      36.767 -18.961 -21.862  0.00  0.00    +0.037 C 
BRANCH  28  30
ATOM     30  O   UNL     1      35.009 -18.348 -23.352  0.00  0.00    -0.471 OA
ATOM     31  C   UNL     1      34.625 -19.070 -24.521  0.00  0.00    +0.252 C 
ENDBRANCH  28  30
ENDBRANCH  19  20
ENDBRANCH  18  19
ENDBRANCH   3  18
TORSDOF 7
ENDMDL
MODEL 2
REMARK VINA RESULT:     -10.7      0.944      1.750
REMARK  Name = 25114442
REMARK  7 active torsions:
REMARK  status: ('A' for Active; 'I' for Inactive)
REMARK    1  A    between atoms: C_3  and  C_15
REMARK    2  A    between atoms: C_3  and  C_18
REMARK    3  A    between atoms: C_6  and  C_8
REMARK    4  A    between atoms: C_15  and  O_16
REMARK    5  A    between atoms: C_18  and  O_19
REMARK    6  A    between atoms: O_19  and  C_20
REMARK    7  A    between atoms: C_28  and  O_30
REMARK                            x       y       z     vdW  Elec       q    Type
REMARK                         _______ _______ _______ _____ _____    ______ ____
ROOT
ATOM      1  O   UNL     1      31.661 -23.255 -12.506  0.00  0.00    -0.270 OA
ATOM      2  N   UNL     1      33.198 -24.213 -13.926  0.00  0.00    -0.275 N 
ATOM      3  C   UNL     1      35.133 -24.347 -14.574  0.00  0.00    +0.166 C 
ATOM      4  C   UNL     1      33.778 -24.830 -15.103  0.00  0.00    +0.110 C 
ATOM      5  C   UNL     1      34.460 -24.093 -13.220  0.00  0.00    +0.110 C 
ATOM      6  C   UNL     1      31.950 -23.760 -13.587  0.00  0.00    +0.249 C 
ENDROOT
BRANCH   6   8
ATOM      7  F   UNL     1      27.942 -24.188 -17.481  0.00  0.00    -0.204 F 
ATOM      8  C   UNL     1      30.895 -23.874 -14.613  0.00  0.00    +0.054 C 
ATOM      9  C   UNL     1      30.114 -25.027 -14.686  0.00  0.00    +0.007 C 
ATOM     10  C   UNL     1      30.678 -22.826 -15.508  0.00  0.00    +0.007 C 
ATOM     11  C   UNL     1      29.117 -25.133 -15.654  0.00  0.00    +0.030 C 
ATOM     12  C   UNL     1      29.681 -22.933 -16.478  0.00  0.00    +0.030 C 
ATOM     13  C   UNL     1      28.900 -24.086 -16.550  0.00  0.00    +0.140 C 
ENDBRANCH   6   8
BRANCH   3  15
ATOM     14  O   UNL     1      37.133 -25.530 -13.710  0.00  0.00    -0.250 OA
ATOM     15  C   UNL     1      36.285 -25.386 -14.587  0.00  0.00    +0.320 C 
BRANCH  15  16
ATOM     16  O   UNL     1      36.271 -26.160 -15.707  0.00  0.00    -0.480 OA
ATOM     17  H   UNL     1      37.037 -26.225 -16.241  0.00  0.00    +0.295 HD
ENDBRANCH  15  16
ENDBRANCH   3  15
BRANCH   3  18
ATOM     18  C   UNL     1      35.569 -23.054 -15.235  0.00  0.00    +0.219 C 
BRANCH  18  19
ATOM     19  O   UNL     1      36.374 -23.371 -16.370  0.00  0.00    -0.475 OA
BRANCH  19  20
ATOM     20  C   UNL     1      36.202 -22.608 -17.484  0.00  0.00    +0.139 C 
ATOM     21  C   UNL     1      34.935 -22.486 -18.055  0.00  0.00    +0.037 C 
ATOM     22  C   UNL     1      37.290 -21.952 -18.053  0.00  0.00    +0.037 C 
ATOM     23  C   UNL     1      34.741 -21.703 -19.205  0.00  0.00    +0.003 C 
ATOM     24  C   UNL     1      35.846 -21.036 -19.784  0.00  0.00    +0.003 C 
ATOM     25  C   UNL     1      37.114 -21.170 -19.195  0.00  0.00    +0.003 C 
ATOM     26  C   UNL     1      33.472 -21.569 -19.793  0.00  0.00    +0.003 C 
ATOM     27  C   UNL     1      35.650 -20.253 -20.933  0.00  0.00    +0.037 C 
ATOM     28  C   UNL     1      34.384 -20.131 -21.504  0.00  0.00    +0.139 C 
ATOM     29  C   UNL     1      33.296 -20.787 -20.936  0.00  0.00    +0.037 C 
BRANCH  28  30
ATOM     30  O   UNL     1      34.212 -19.370 -22.620  0.00  0.00    -0.471 OA
ATOM     31  C   UNL     1      35.372 -18.738 -23.159  0.00  0.00    +0.252 C 
ENDBRANCH  28  30
ENDBRANCH  19  20
ENDBRANCH  18  19
ENDBRANCH   3  18
TORSDOF 7
ENDMDL
MODEL 3
REMARK VINA RESULT:     -10.1      6.172     10.093
REMARK  Name = 25114442
REMARK  7 active torsions:
REMARK  status: ('A' for Active; 'I' for Inactive)
REMARK    1  A    between atoms: C_3  and  C_15
REMARK    2  A    between atoms: C_3  and  C_18
REMARK    3  A    between atoms: C_6  and  C_8
REMARK    4  A    between atoms: C_15  and  O_16
REMARK    5  A    between atoms: C_18  and  O_19
REMARK    6  A    between atoms: O_19  and  C_20
REMARK    7  A    between atoms: C_28  and  O_30
REMARK                            x       y       z     vdW  Elec       q    Type
REMARK                         _______ _______ _______ _____ _____    ______ ____
ROOT
ATOM      1  O   UNL     1      37.709 -19.268 -21.352  0.00  0.00    -0.270 OA
ATOM      2  N   UNL     1      35.984 -18.686 -22.760  0.00  0.00    -0.275 N 
ATOM      3  C   UNL     1      35.099 -17.279 -23.952  0.00  0.00    +0.166 C 
ATOM      4  C   UNL     1      34.663 -18.623 -23.356  0.00  0.00    +0.110 C 
ATOM      5  C   UNL     1      36.546 -17.649 -23.604  0.00  0.00    +0.110 C 
ATOM      6  C   UNL     1      36.535 -19.358 -21.700  0.00  0.00    +0.249 C 
ENDROOT
BRANCH   6   8
ATOM      7  F   UNL     1      33.116 -22.658 -18.727  0.00  0.00    -0.204 F 
ATOM      8  C   UNL     1      35.635 -20.228 -20.918  0.00  0.00    +0.054 C 
ATOM      9  C   UNL     1      36.165 -21.229 -20.106  0.00  0.00    +0.007 C 
ATOM     10  C   UNL     1      34.254 -20.045 -20.989  0.00  0.00    +0.007 C 
ATOM     11  C   UNL     1      35.315 -22.050 -19.366  0.00  0.00    +0.030 C 
ATOM     12  C   UNL     1      33.403 -20.867 -20.249  0.00  0.00    +0.030 C 
ATOM     13  C   UNL     1      33.933 -21.869 -19.437  0.00  0.00    +0.140 C 
ENDBRANCH   6   8
BRANCH   3  15
ATOM     14  O   UNL     1      33.834 -17.538 -26.068  0.00  0.00    -0.250 OA
ATOM     15  C   UNL     1      34.786 -17.061 -25.455  0.00  0.00    +0.320 C 
BRANCH  15  16
ATOM     16  O   UNL     1      35.701 -16.256 -26.063  0.00  0.00    -0.480 OA
ATOM     17  H   UNL     1      35.873 -15.401 -25.721  0.00  0.00    +0.295 HD
ENDBRANCH  15  16
ENDBRANCH   3  15
BRANCH   3  18
ATOM     18  C   UNL     1      34.605 -16.108 -23.125  0.00  0.00    +0.219 C 
BRANCH  18  19
ATOM     19  O   UNL     1      34.624 -14.936 -23.938  0.00  0.00    -0.475 OA
BRANCH  19  20
ATOM     20  C   UNL     1      33.978 -13.838 -23.457  0.00  0.00    +0.139 C 
ATOM     21  C   UNL     1      34.202 -12.589 -24.037  0.00  0.00    +0.037 C 
ATOM     22  C   UNL     1      33.098 -13.962 -22.386  0.00  0.00    +0.037 C 
ATOM     23  C   UNL     1      33.544 -11.447 -23.552  0.00  0.00    +0.003 C 
ATOM     24  C   UNL     1      32.648 -11.572 -22.464  0.00  0.00    +0.003 C 
ATOM     25  C   UNL     1      32.436 -12.837 -21.892  0.00  0.00    +0.003 C 
ATOM     26  C   UNL     1      33.756 -10.182 -24.125  0.00  0.00    +0.003 C 
ATOM     27  C   UNL     1      31.991 -10.429 -21.980  0.00  0.00    +0.037 C 
ATOM     28  C   UNL     1      32.213  -9.181 -22.561  0.00  0.00    +0.139 C 
ATOM     29  C   UNL     1      33.095  -9.056 -23.631  0.00  0.00    +0.037 C 
BRANCH  28  30
ATOM     30  O   UNL     1      31.570  -8.083 -22.078  0.00  0.00    -0.471 OA
ATOM     31  C   UNL     1      31.421  -6.976 -22.965  0.00  0.00    +0.252 C 
ENDBRANCH  28  30
ENDBRANCH  19  20
ENDBRANCH  18  19
ENDBRANCH   3  18
TORSDOF 7
ENDMDL
MODEL 4
REMARK VINA RESULT:     -10.0      4.634      9.489
REMARK  Name = 25114442
REMARK  7 active torsions:
REMARK  status: ('A' for Active; 'I' for Inactive)
REMARK    1  A    between atoms: C_3  and  C_15
REMARK    2  A    between atoms: C_3  and  C_18
REMARK    3  A    between atoms: C_6  and  C_8
REMARK    4  A    between atoms: C_15  and  O_16
REMARK    5  A    between atoms: C_18  and  O_19
REMARK    6  A    between atoms: O_19  and  C_20
REMARK    7  A    between atoms: C_28  and  O_30
REMARK                            x       y       z     vdW  Elec       q    Type
REMARK                         _______ _______ _______ _____ _____    ______ ____
ROOT
ATOM      1  O   UNL     1      34.073 -15.156 -24.652  0.00  0.00    -0.270 OA
ATOM      2  N   UNL     1      35.172 -16.215 -22.929  0.00  0.00    -0.275 N 
ATOM      3  C   UNL     1      35.981 -17.931 -22.165  0.00  0.00    +0.166 C 
ATOM      4  C   UNL     1      35.617 -16.556 -21.592  0.00  0.00    +0.110 C 
ATOM      5  C   UNL     1      35.850 -17.328 -23.568  0.00  0.00    +0.110 C 
ATOM      6  C   UNL     1      34.319 -15.280 -23.455  0.00  0.00    +0.249 C 
ENDROOT
BRANCH   6   8
ATOM      7  F   UNL     1      31.738 -11.871 -19.833  0.00  0.00    -0.204 F 
ATOM      8  C   UNL     1      33.638 -14.383 -22.502  0.00  0.00    +0.054 C 
ATOM      9  C   UNL     1      33.557 -14.731 -21.154  0.00  0.00    +0.007 C 
ATOM     10  C   UNL     1      33.079 -13.186 -22.948  0.00  0.00    +0.007 C 
ATOM     11  C   UNL     1      32.916 -13.883 -20.252  0.00  0.00    +0.030 C 
ATOM     12  C   UNL     1      32.436 -12.338 -22.046  0.00  0.00    +0.030 C 
ATOM     13  C   UNL     1      32.355 -12.686 -20.698  0.00  0.00    +0.140 C 
ENDBRANCH   6   8
BRANCH   3  15
ATOM     14  O   UNL     1      38.291 -18.737 -22.563  0.00  0.00    -0.250 OA
ATOM     15  C   UNL     1      37.377 -18.487 -21.781  0.00  0.00    +0.320 C 
BRANCH  15  16
ATOM     16  O   UNL     1      37.506 -18.681 -20.440  0.00  0.00    -0.480 OA
ATOM     17  H   UNL     1      38.268 -19.104 -20.099  0.00  0.00    +0.295 HD
ENDBRANCH  15  16
ENDBRANCH   3  15
BRANCH   3  18
ATOM     18  C   UNL     1      34.900 -18.959 -21.893  0.00  0.00    +0.219 C 
BRANCH  18  19
ATOM     19  O   UNL     1      35.521 -20.224 -21.664  0.00  0.00    -0.475 OA
BRANCH  19  20
ATOM     20  C   UNL     1      35.106 -20.929 -20.576  0.00  0.00    +0.139 C 
ATOM     21  C   UNL     1      36.025 -21.294 -19.592  0.00  0.00    +0.037 C 
ATOM     22  C   UNL     1      33.768 -21.288 -20.448  0.00  0.00    +0.037 C 
ATOM     23  C   UNL     1      35.614 -22.023 -18.463  0.00  0.00    +0.003 C 
ATOM     24  C   UNL     1      34.253 -22.387 -18.332  0.00  0.00    +0.003 C 
ATOM     25  C   UNL     1      33.342 -22.011 -19.333  0.00  0.00    +0.003 C 
ATOM     26  C   UNL     1      36.525 -22.398 -17.462  0.00  0.00    +0.003 C 
ATOM     27  C   UNL     1      33.843 -23.115 -17.204  0.00  0.00    +0.037 C 
ATOM     28  C   UNL     1      34.761 -23.480 -16.219  0.00  0.00    +0.139 C 
ATOM     29  C   UNL     1      36.100 -23.123 -16.348  0.00  0.00    +0.037 C 
BRANCH  28  30
ATOM     30  O   UNL     1      34.347 -24.188 -15.133  0.00  0.00    -0.471 OA
ATOM     31  C   UNL     1      35.229 -24.233 -14.013  0.00  0.00    +0.252 C 
ENDBRANCH  28  30
ENDBRANCH  19  20
ENDBRANCH  18  19
ENDBRANCH   3  18
TORSDOF 7
ENDMDL
MODEL 5
REMARK VINA RESULT:      -9.3      4.700     10.284
REMARK  Name = 25114442
REMARK  7 active torsions:
REMARK  status: ('A' for Active; 'I' for Inactive)
REMARK    1  A    between atoms: C_3  and  C_15
REMARK    2  A    between atoms: C_3  and  C_18
REMARK    3  A    between atoms: C_6  and  C_8
REMARK    4  A    between atoms: C_15  and  O_16
REMARK    5  A    between atoms: C_18  and  O_19
REMARK    6  A    between atoms: O_19  and  C_20
REMARK    7  A    between atoms: C_28  and  O_30
REMARK                            x       y       z     vdW  Elec       q    Type
REMARK                         _______ _______ _______ _____ _____    ______ ____
ROOT
ATOM      1  O   UNL     1      34.035 -17.440 -26.142  0.00  0.00    -0.270 OA
ATOM      2  N   UNL     1      35.383 -17.315 -24.281  0.00  0.00    -0.275 N 
ATOM      3  C   UNL     1      36.140 -18.214 -22.606  0.00  0.00    +0.166 C 
ATOM      4  C   UNL     1      36.095 -16.776 -23.138  0.00  0.00    +0.110 C 
ATOM      5  C   UNL     1      35.746 -18.693 -24.008  0.00  0.00    +0.110 C 
ATOM      6  C   UNL     1      34.547 -16.793 -25.233  0.00  0.00    +0.249 C 
ENDROOT
BRANCH   6   8
ATOM      7  F   UNL     1      33.345 -11.333 -24.843  0.00  0.00    -0.204 F 
ATOM      8  C   UNL     1      34.232 -15.355 -25.131  0.00  0.00    +0.054 C 
ATOM      9  C   UNL     1      33.873 -14.637 -26.271  0.00  0.00    +0.007 C 
ATOM     10  C   UNL     1      34.290 -14.715 -23.893  0.00  0.00    +0.007 C 
ATOM     11  C   UNL     1      33.573 -13.278 -26.174  0.00  0.00    +0.030 C 
ATOM     12  C   UNL     1      33.991 -13.355 -23.796  0.00  0.00    +0.030 C 
ATOM     13  C   UNL     1      33.632 -12.637 -24.936  0.00  0.00    +0.140 C 
ENDBRANCH   6   8
BRANCH   3  15
ATOM     14  O   UNL     1      38.486 -19.000 -22.755  0.00  0.00    -0.250 OA
ATOM     15  C   UNL     1      37.510 -18.704 -22.070  0.00  0.00    +0.320 C 
BRANCH  15  16
ATOM     16  O   UNL     1      37.536 -18.780 -20.711  0.00  0.00    -0.480 OA
ATOM     17  H   UNL     1      37.254 -19.562 -20.280  0.00  0.00    +0.295 HD
ENDBRANCH  15  16
ENDBRANCH   3  15
BRANCH   3  18
ATOM     18  C   UNL     1      35.042 -18.476 -21.595  0.00  0.00    +0.219 C 
BRANCH  18  19
ATOM     19  O   UNL     1      34.582 -19.817 -21.759  0.00  0.00    -0.475 OA
BRANCH  19  20
ATOM     20  C   UNL     1      34.664 -20.636 -20.675  0.00  0.00    +0.139 C 
ATOM     21  C   UNL     1      33.500 -21.049 -20.025  0.00  0.00    +0.037 C 
ATOM     22  C   UNL     1      35.907 -21.060 -20.215  0.00  0.00    +0.037 C 
ATOM     23  C   UNL     1      33.567 -21.895 -18.905  0.00  0.00    +0.003 C 
ATOM     24  C   UNL     1      34.831 -22.326 -18.438  0.00  0.00    +0.003 C 
ATOM     25  C   UNL     1      35.992 -21.900 -19.104  0.00  0.00    +0.003 C 
ATOM     26  C   UNL     1      32.406 -22.321 -18.240  0.00  0.00    +0.003 C 
ATOM     27  C   UNL     1      34.897 -23.171 -17.318  0.00  0.00    +0.037 C 
ATOM     28  C   UNL     1      33.734 -23.585 -16.669  0.00  0.00    +0.139 C 
ATOM     29  C   UNL     1      32.490 -23.160 -17.128  0.00  0.00    +0.037 C 
BRANCH  28  30
ATOM     30  O   UNL     1      33.816 -24.402 -15.583  0.00  0.00    -0.471 OA
ATOM     31  C   UNL     1      35.121 -24.798 -15.167  0.00  0.00    +0.252 C 
ENDBRANCH  28  30
ENDBRANCH  19  20
ENDBRANCH  18  19
ENDBRANCH   3  18
TORSDOF 7
ENDMDL
MODEL 6
REMARK VINA RESULT:      -9.2      4.629      7.649
REMARK  Name = 25114442
REMARK  7 active torsions:
REMARK  status: ('A' for Active; 'I' for Inactive)
REMARK    1  A    between atoms: C_3  and  C_15
REMARK    2  A    between atoms: C_3  and  C_18
REMARK    3  A    between atoms: C_6  and  C_8
REMARK    4  A    between atoms: C_15  and  O_16
REMARK    5  A    between atoms: C_18  and  O_19
REMARK    6  A    between atoms: O_19  and  C_20
REMARK    7  A    between atoms: C_28  and  O_30
REMARK                            x       y       z     vdW  Elec       q    Type
REMARK                         _______ _______ _______ _____ _____    ______ ____
ROOT
ATOM      1  O   UNL     1      37.363 -21.408 -18.745  0.00  0.00    -0.270 OA
ATOM      2  N   UNL     1      36.025 -20.677 -20.470  0.00  0.00    -0.275 N 
ATOM      3  C   UNL     1      35.613 -19.256 -21.882  0.00  0.00    +0.166 C 
ATOM      4  C   UNL     1      34.853 -20.450 -21.294  0.00  0.00    +0.110 C 
ATOM      5  C   UNL     1      36.894 -19.827 -21.262  0.00  0.00    +0.110 C 
ATOM      6  C   UNL     1      36.265 -21.333 -19.290  0.00  0.00    +0.249 C 
ENDROOT
BRANCH   6   8
ATOM      7  F   UNL     1      31.871 -23.741 -16.781  0.00  0.00    -0.204 F 
ATOM      8  C   UNL     1      35.108 -21.968 -18.630  0.00  0.00    +0.054 C 
ATOM      9  C   UNL     1      35.288 -22.686 -17.448  0.00  0.00    +0.007 C 
ATOM     10  C   UNL     1      33.835 -21.848 -19.187  0.00  0.00    +0.007 C 
ATOM     11  C   UNL     1      34.194 -23.285 -16.823  0.00  0.00    +0.030 C 
ATOM     12  C   UNL     1      32.741 -22.448 -18.562  0.00  0.00    +0.030 C 
ATOM     13  C   UNL     1      32.921 -23.166 -17.380  0.00  0.00    +0.140 C 
ENDBRANCH   6   8
BRANCH   3  15
ATOM     14  O   UNL     1      34.639 -19.370 -24.159  0.00  0.00    -0.250 OA
ATOM     15  C   UNL     1      35.596 -19.126 -23.427  0.00  0.00    +0.320 C 
BRANCH  15  16
ATOM     16  O   UNL     1      36.789 -18.695 -23.924  0.00  0.00    -0.480 OA
ATOM     17  H   UNL     1      37.217 -19.181 -24.600  0.00  0.00    +0.295 HD
ENDBRANCH  15  16
ENDBRANCH   3  15
BRANCH   3  18
ATOM     18  C   UNL     1      35.207 -17.951 -21.228  0.00  0.00    +0.219 C 
BRANCH  18  19
ATOM     19  O   UNL     1      35.824 -16.875 -21.935  0.00  0.00    -0.475 OA
BRANCH  19  20
ATOM     20  C   UNL     1      35.066 -15.767 -22.161  0.00  0.00    +0.139 C 
ATOM     21  C   UNL     1      34.313 -15.216 -21.123  0.00  0.00    +0.037 C 
ATOM     22  C   UNL     1      35.040 -15.187 -23.426  0.00  0.00    +0.037 C 
ATOM     23  C   UNL     1      33.525 -14.073 -21.340  0.00  0.00    +0.003 C 
ATOM     24  C   UNL     1      33.500 -13.482 -22.626  0.00  0.00    +0.003 C 
ATOM     25  C   UNL     1      34.263 -14.052 -23.658  0.00  0.00    +0.003 C 
ATOM     26  C   UNL     1      32.762 -13.504 -20.307  0.00  0.00    +0.003 C 
ATOM     27  C   UNL     1      32.712 -12.340 -22.841  0.00  0.00    +0.037 C 
ATOM     28  C   UNL     1      31.960 -11.788 -21.804  0.00  0.00    +0.139 C 
ATOM     29  C   UNL     1      31.984 -12.369 -20.539  0.00  0.00    +0.037 C 
BRANCH  28  30
ATOM     30  O   UNL     1      31.199 -10.682 -22.031  0.00  0.00    -0.471 OA
ATOM     31  C   UNL     1      31.784  -9.418 -21.721  0.00  0.00    +0.252 C 
ENDBRANCH  28  30
ENDBRANCH  19  20
ENDBRANCH  18  19
ENDBRANCH   3  18
TORSDOF 7
ENDMDL
MODEL 7
REMARK VINA RESULT:      -9.1     10.130     14.570
REMARK  Name = 25114442
REMARK  7 active torsions:
REMARK  status: ('A' for Active; 'I' for Inactive)
REMARK    1  A    between atoms: C_3  and  C_15
REMARK    2  A    between atoms: C_3  and  C_18
REMARK    3  A    between atoms: C_6  and  C_8
REMARK    4  A    between atoms: C_15  and  O_16
REMARK    5  A    between atoms: C_18  and  O_19
REMARK    6  A    between atoms: O_19  and  C_20
REMARK    7  A    between atoms: C_28  and  O_30
REMARK                            x       y       z     vdW  Elec       q    Type
REMARK                         _______ _______ _______ _____ _____    ______ ____
ROOT
ATOM      1  O   UNL     1      33.797  -6.651 -20.298  0.00  0.00    -0.270 OA
ATOM      2  N   UNL     1      32.516  -8.299 -21.267  0.00  0.00    -0.275 N 
ATOM      3  C   UNL     1      32.103 -10.290 -21.487  0.00  0.00    +0.166 C 
ATOM      4  C   UNL     1      31.700  -9.012 -22.231  0.00  0.00    +0.110 C 
ATOM      5  C   UNL     1      32.592  -9.407 -20.333  0.00  0.00    +0.110 C 
ATOM      6  C   UNL     1      33.134  -7.076 -21.240  0.00  0.00    +0.249 C 
ENDROOT
BRANCH   6   8
ATOM      7  F   UNL     1      32.639  -3.871 -25.811  0.00  0.00    -0.204 F 
ATOM      8  C   UNL     1      33.003  -6.233 -22.444  0.00  0.00    +0.054 C 
ATOM      9  C   UNL     1      31.961  -5.311 -22.539  0.00  0.00    +0.007 C 
ATOM     10  C   UNL     1      33.923  -6.356 -23.485  0.00  0.00    +0.007 C 
ATOM     11  C   UNL     1      31.837  -4.513 -23.676  0.00  0.00    +0.030 C 
ATOM     12  C   UNL     1      33.799  -5.559 -24.623  0.00  0.00    +0.030 C 
ATOM     13  C   UNL     1      32.757  -4.637 -24.719  0.00  0.00    +0.140 C 
ENDBRANCH   6   8
BRANCH   3  15
ATOM     14  O   UNL     1      30.773 -11.833 -20.074  0.00  0.00    -0.250 OA
ATOM     15  C   UNL     1      30.958 -11.282 -21.157  0.00  0.00    +0.320 C 
BRANCH  15  16
ATOM     16  O   UNL     1      30.138 -11.499 -22.223  0.00  0.00    -0.480 OA
ATOM     17  H   UNL     1      30.482 -11.464 -23.093  0.00  0.00    +0.295 HD
ENDBRANCH  15  16
ENDBRANCH   3  15
BRANCH   3  18
ATOM     18  C   UNL     1      33.252 -11.004 -22.172  0.00  0.00    +0.219 C 
BRANCH  18  19
ATOM     19  O   UNL     1      32.754 -12.204 -22.764  0.00  0.00    -0.475 OA
BRANCH  19  20
ATOM     20  C   UNL     1      33.446 -13.350 -22.516  0.00  0.00    +0.139 C 
ATOM     21  C   UNL     1      33.859 -14.157 -23.576  0.00  0.00    +0.037 C 
ATOM     22  C   UNL     1      33.738 -13.716 -21.205  0.00  0.00    +0.037 C 
ATOM     23  C   UNL     1      34.573 -15.343 -23.337  0.00  0.00    +0.003 C 
ATOM     24  C   UNL     1      34.871 -15.716 -22.005  0.00  0.00    +0.003 C 
ATOM     25  C   UNL     1      34.446 -14.891 -20.950  0.00  0.00    +0.003 C 
ATOM     26  C   UNL     1      34.998 -16.167 -24.392  0.00  0.00    +0.003 C 
ATOM     27  C   UNL     1      35.585 -16.901 -21.767  0.00  0.00    +0.037 C 
ATOM     28  C   UNL     1      35.999 -17.708 -22.826  0.00  0.00    +0.139 C 
ATOM     29  C   UNL     1      35.706 -17.342 -24.137  0.00  0.00    +0.037 C 
BRANCH  28  30
ATOM     30  O   UNL     1      36.688 -18.855 -22.578  0.00  0.00    -0.471 OA
ATOM     31  C   UNL     1      37.170 -19.048 -21.249  0.00  0.00    +0.252 C 
ENDBRANCH  28  30
ENDBRANCH  19  20
ENDBRANCH  18  19
ENDBRANCH   3  18
TORSDOF 7
ENDMDL
MODEL 8
REMARK VINA RESULT:      -9.0      3.732      7.216
REMARK  Name = 25114442
REMARK  7 active torsions:
REMARK  status: ('A' for Active; 'I' for Inactive)
REMARK    1  A    between atoms: C_3  and  C_15
REMARK    2  A    between atoms: C_3  and  C_18
REMARK    3  A    between atoms: C_6  and  C_8
REMARK    4  A    between atoms: C_15  and  O_16
REMARK    5  A    between atoms: C_18  and  O_19
REMARK    6  A    between atoms: O_19  and  C_20
REMARK    7  A    between atoms: C_28  and  O_30
REMARK                            x       y       z     vdW  Elec       q    Type
REMARK                         _______ _______ _______ _____ _____    ______ ____
ROOT
ATOM      1  O   UNL     1      36.685 -25.871 -15.772  0.00  0.00    -0.270 OA
ATOM      2  N   UNL     1      36.538 -24.499 -13.930  0.00  0.00    -0.275 N 
ATOM      3  C   UNL     1      35.764 -24.148 -12.069  0.00  0.00    +0.166 C 
ATOM      4  C   UNL     1      36.507 -23.303 -13.111  0.00  0.00    +0.110 C 
ATOM      5  C   UNL     1      36.203 -25.398 -12.840  0.00  0.00    +0.110 C 
ATOM      6  C   UNL     1      36.689 -24.751 -15.268  0.00  0.00    +0.249 C 
ENDROOT
BRANCH   6   8
ATOM      7  F   UNL     1      37.276 -20.309 -18.635  0.00  0.00    -0.204 F 
ATOM      8  C   UNL     1      36.844 -23.583 -16.156  0.00  0.00    +0.054 C 
ATOM      9  C   UNL     1      35.786 -23.181 -16.971  0.00  0.00    +0.007 C 
ATOM     10  C   UNL     1      38.048 -22.878 -16.178  0.00  0.00    +0.007 C 
ATOM     11  C   UNL     1      35.931 -22.075 -17.808  0.00  0.00    +0.030 C 
ATOM     12  C   UNL     1      38.194 -21.773 -17.016  0.00  0.00    +0.030 C 
ATOM     13  C   UNL     1      37.136 -21.371 -17.831  0.00  0.00    +0.140 C 
ENDBRANCH   6   8
BRANCH   3  15
ATOM     14  O   UNL     1      37.165 -23.292 -10.211  0.00  0.00    -0.250 OA
ATOM     15  C   UNL     1      36.265 -24.030 -10.606  0.00  0.00    +0.320 C 
BRANCH  15  16
ATOM     16  O   UNL     1      35.588 -24.853  -9.759  0.00  0.00    -0.480 OA
ATOM     17  H   UNL     1      34.844 -24.532  -9.289  0.00  0.00    +0.295 HD
ENDBRANCH  15  16
ENDBRANCH   3  15
BRANCH   3  18
ATOM     18  C   UNL     1      34.264 -23.942 -12.141  0.00  0.00    +0.219 C 
BRANCH  18  19
ATOM     19  O   UNL     1      33.714 -24.907 -13.037  0.00  0.00    -0.475 OA
BRANCH  19  20
ATOM     20  C   UNL     1      32.833 -24.454 -13.970  0.00  0.00    +0.139 C 
ATOM     21  C   UNL     1      31.570 -25.039 -14.077  0.00  0.00    +0.037 C 
ATOM     22  C   UNL     1      33.191 -23.410 -14.818  0.00  0.00    +0.037 C 
ATOM     23  C   UNL     1      30.649 -24.584 -15.035  0.00  0.00    +0.003 C 
ATOM     24  C   UNL     1      31.013 -23.522 -15.897  0.00  0.00    +0.003 C 
ATOM     25  C   UNL     1      32.288 -22.946 -15.775  0.00  0.00    +0.003 C 
ATOM     26  C   UNL     1      29.374 -25.161 -15.156  0.00  0.00    +0.003 C 
ATOM     27  C   UNL     1      30.092 -23.068 -16.854  0.00  0.00    +0.037 C 
ATOM     28  C   UNL     1      28.830 -23.652 -16.961  0.00  0.00    +0.139 C 
ATOM     29  C   UNL     1      28.471 -24.697 -16.114  0.00  0.00    +0.037 C 
BRANCH  28  30
ATOM     30  O   UNL     1      27.949 -23.202 -17.896  0.00  0.00    -0.471 OA
ATOM     31  C   UNL     1      27.039 -22.180 -17.491  0.00  0.00    +0.252 C 
ENDBRANCH  28  30
ENDBRANCH  19  20
ENDBRANCH  18  19
ENDBRANCH   3  18
TORSDOF 7
ENDMDL
