MODEL 1
REMARK VINA RESULT:     -11.7      0.000      0.000
REMARK  Name = 9801640
REMARK  6 active torsions:
REMARK  status: ('A' for Active; 'I' for Inactive)
REMARK    1  A    between atoms: C_1  and  C_2
REMARK    2  A    between atoms: C_1  and  C_16
REMARK    3  A    between atoms: C_2  and  N_3
REMARK    4  A    between atoms: C_7  and  C_11
REMARK    5  A    between atoms: C_16  and  C_17
REMARK    6  A    between atoms: C_17  and  N_21
REMARK                            x       y       z     vdW  Elec       q    Type
REMARK                         _______ _______ _______ _____ _____    ______ ____
ROOT
ATOM      1  C   UNL     1      33.951 -15.610 -25.379  0.00  0.00    -0.021 C 
ENDROOT
BRANCH   1   2
ATOM      2  C   UNL     1      35.437 -15.758 -25.057  0.00  0.00    -0.077 C 
BRANCH   2   3
ATOM      3  N   UNL     1      35.642 -16.840 -24.096  0.00  0.00    +0.390 N 
ATOM      4  C   UNL     1      35.268 -16.423 -22.741  0.00  0.00    -0.072 C 
ATOM      5  C   UNL     1      34.893 -18.041 -24.496  0.00  0.00    -0.051 C 
ATOM      6  C   UNL     1      35.650 -17.518 -21.734  0.00  0.00    +0.005 C 
ATOM      7  C   UNL     1      35.202 -18.897 -22.164  0.00  0.00    -0.013 C 
ATOM      8  C   UNL     1      34.854 -19.118 -23.445  0.00  0.00    -0.052 C 
ATOM      9  H   UNL     1      36.636 -17.070 -24.090  0.00  0.00    -0.079 HD
BRANCH   7  11
ATOM     10  N   UNL     1      36.358 -20.314 -20.597  0.00  0.00    -0.244 NA
ATOM     11  C   UNL     1      35.168 -19.975 -21.145  0.00  0.00    +0.077 C 
ATOM     12  C   UNL     1      33.962 -20.572 -20.806  0.00  0.00    +0.019 C 
ATOM     13  C   UNL     1      33.980 -21.579 -19.846  0.00  0.00    +0.003 C 
ATOM     14  C   UNL     1      36.335 -21.297 -19.669  0.00  0.00    +0.099 C 
ATOM     15  C   UNL     1      35.185 -21.954 -19.262  0.00  0.00    +0.021 C 
ENDBRANCH   7  11
ENDBRANCH   2   3
ENDBRANCH   1   2
BRANCH   1  16
ATOM     16  C   UNL     1      33.494 -14.157 -25.216  0.00  0.00    +0.020 C 
BRANCH  16  17
ATOM     17  C   UNL     1      34.379 -13.367 -24.257  0.00  0.00    +0.099 C 
BRANCH  17  21
ATOM     18 CL   UNL     1      35.046 -10.549 -24.749  0.00  0.00    -0.062 Cl
ATOM     19  O   UNL     1      31.636 -10.270 -22.760  0.00  0.00    -0.448 OA
ATOM     20  O   UNL     1      32.617 -14.166 -22.281  0.00  0.00    -0.269 OA
ATOM     21  N   UNL     1      33.614 -12.407 -23.449  0.00  0.00    -0.244 N 
ATOM     22  C   UNL     1      32.835 -12.958 -22.407  0.00  0.00    +0.256 C 
ATOM     23  C   UNL     1      33.702 -11.052 -23.762  0.00  0.00    +0.151 C 
ATOM     24  C   UNL     1      32.311 -12.098 -21.319  0.00  0.00    +0.088 C 
ATOM     25  C   UNL     1      31.741 -10.846 -21.526  0.00  0.00    +0.150 C 
ATOM     26  C   UNL     1      32.813 -10.106 -23.434  0.00  0.00    +0.206 C 
ATOM     27  C   UNL     1      32.344 -12.620 -20.015  0.00  0.00    +0.008 C 
ATOM     28  C   UNL     1      31.188 -10.130 -20.458  0.00  0.00    +0.038 C 
ATOM     29  C   UNL     1      31.812 -11.897 -18.945  0.00  0.00    +0.000 C 
ATOM     30  C   UNL     1      31.230 -10.653 -19.168  0.00  0.00    +0.003 C 
ENDBRANCH  17  21
ENDBRANCH  16  17
ENDBRANCH   1  16
TORSDOF 6
ENDMDL
MODEL 2
REMARK VINA RESULT:     -10.8      6.128     11.477
REMARK  Name = 9801640
REMARK  6 active torsions:
REMARK  status: ('A' for Active; 'I' for Inactive)
REMARK    1  A    between atoms: C_1  and  C_2
REMARK    2  A    between atoms: C_1  and  C_16
REMARK    3  A    between atoms: C_2  and  N_3
REMARK    4  A    between atoms: C_7  and  C_11
REMARK    5  A    between atoms: C_16  and  C_17
REMARK    6  A    between atoms: C_17  and  N_21
REMARK                            x       y       z     vdW  Elec       q    Type
REMARK                         _______ _______ _______ _____ _____    ______ ____
ROOT
ATOM      1  C   UNL     1      34.666 -22.777 -19.166  0.00  0.00    -0.021 C 
ENDROOT
BRANCH   1   2
ATOM      2  C   UNL     1      35.916 -21.922 -19.371  0.00  0.00    -0.077 C 
BRANCH   2   3
ATOM      3  N   UNL     1      35.776 -21.098 -20.569  0.00  0.00    +0.390 N 
ATOM      4  C   UNL     1      34.429 -20.529 -20.667  0.00  0.00    -0.072 C 
ATOM      5  C   UNL     1      36.792 -20.034 -20.592  0.00  0.00    -0.051 C 
ATOM      6  C   UNL     1      34.261 -19.809 -22.013  0.00  0.00    +0.005 C 
ATOM      7  C   UNL     1      35.411 -18.880 -22.332  0.00  0.00    -0.013 C 
ATOM      8  C   UNL     1      36.572 -18.998 -21.662  0.00  0.00    -0.052 C 
ATOM      9  H   UNL     1      35.922 -21.698 -21.381  0.00  0.00    -0.079 HD
BRANCH   7  11
ATOM     10  N   UNL     1      35.486 -16.580 -23.042  0.00  0.00    -0.244 NA
ATOM     11  C   UNL     1      35.218 -17.860 -23.391  0.00  0.00    +0.077 C 
ATOM     12  C   UNL     1      34.785 -18.242 -24.653  0.00  0.00    +0.019 C 
ATOM     13  C   UNL     1      34.617 -17.250 -25.613  0.00  0.00    +0.003 C 
ATOM     14  C   UNL     1      35.310 -15.644 -24.002  0.00  0.00    +0.099 C 
ATOM     15  C   UNL     1      34.883 -15.924 -25.289  0.00  0.00    +0.021 C 
ENDBRANCH   7  11
ENDBRANCH   2   3
ENDBRANCH   1   2
BRANCH   1  16
ATOM     16  C   UNL     1      34.095 -22.590 -17.757  0.00  0.00    +0.020 C 
BRANCH  16  17
ATOM     17  C   UNL     1      33.668 -23.906 -17.117  0.00  0.00    +0.099 C 
BRANCH  17  21
ATOM     18 CL   UNL     1      31.510 -22.900 -15.398  0.00  0.00    -0.062 Cl
ATOM     19  O   UNL     1      33.822 -24.807 -12.813  0.00  0.00    -0.448 OA
ATOM     20  O   UNL     1      36.136 -24.671 -16.129  0.00  0.00    -0.269 OA
ATOM     21  N   UNL     1      33.961 -23.952 -15.677  0.00  0.00    -0.244 N 
ATOM     22  C   UNL     1      35.295 -24.258 -15.326  0.00  0.00    +0.256 C 
ATOM     23  C   UNL     1      32.926 -23.702 -14.779  0.00  0.00    +0.151 C 
ATOM     24  C   UNL     1      35.796 -23.991 -13.957  0.00  0.00    +0.088 C 
ATOM     25  C   UNL     1      35.080 -24.276 -12.799  0.00  0.00    +0.150 C 
ATOM     26  C   UNL     1      32.886 -24.081 -13.495  0.00  0.00    +0.206 C 
ATOM     27  C   UNL     1      37.098 -23.476 -13.838  0.00  0.00    +0.008 C 
ATOM     28  C   UNL     1      35.655 -24.077 -11.538  0.00  0.00    +0.038 C 
ATOM     29  C   UNL     1      37.666 -23.257 -12.581  0.00  0.00    +0.000 C 
ATOM     30  C   UNL     1      36.944 -23.562 -11.431  0.00  0.00    +0.003 C 
ENDBRANCH  17  21
ENDBRANCH  16  17
ENDBRANCH   1  16
TORSDOF 6
ENDMDL
MODEL 3
REMARK VINA RESULT:     -10.7      2.313      3.431
REMARK  Name = 9801640
REMARK  6 active torsions:
REMARK  status: ('A' for Active; 'I' for Inactive)
REMARK    1  A    between atoms: C_1  and  C_2
REMARK    2  A    between atoms: C_1  and  C_16
REMARK    3  A    between atoms: C_2  and  N_3
REMARK    4  A    between atoms: C_7  and  C_11
REMARK    5  A    between atoms: C_16  and  C_17
REMARK    6  A    between atoms: C_17  and  N_21
REMARK                            x       y       z     vdW  Elec       q    Type
REMARK                         _______ _______ _______ _____ _____    ______ ____
ROOT
ATOM      1  C   UNL     1      33.468 -13.678 -24.061  0.00  0.00    -0.021 C 
ENDROOT
BRANCH   1   2
ATOM      2  C   UNL     1      34.753 -14.493 -24.200  0.00  0.00    -0.077 C 
BRANCH   2   3
ATOM      3  N   UNL     1      34.634 -15.755 -23.474  0.00  0.00    +0.390 N 
ATOM      4  C   UNL     1      35.352 -16.832 -24.163  0.00  0.00    -0.072 C 
ATOM      5  C   UNL     1      35.116 -15.610 -22.092  0.00  0.00    -0.051 C 
ATOM      6  C   UNL     1      35.070 -18.174 -23.470  0.00  0.00    +0.005 C 
ATOM      7  C   UNL     1      35.231 -18.108 -21.968  0.00  0.00    -0.013 C 
ATOM      8  C   UNL     1      35.253 -16.913 -21.350  0.00  0.00    -0.052 C 
ATOM      9  H   UNL     1      33.646 -16.007 -23.444  0.00  0.00    -0.079 HD
BRANCH   7  11
ATOM     10  N   UNL     1      36.600 -19.702 -20.792  0.00  0.00    -0.244 NA
ATOM     11  C   UNL     1      35.356 -19.381 -21.218  0.00  0.00    +0.077 C 
ATOM     12  C   UNL     1      34.235 -20.166 -20.991  0.00  0.00    +0.019 C 
ATOM     13  C   UNL     1      34.402 -21.352 -20.283  0.00  0.00    +0.003 C 
ATOM     14  C   UNL     1      36.722 -20.862 -20.108  0.00  0.00    +0.099 C 
ATOM     15  C   UNL     1      35.666 -21.713 -19.830  0.00  0.00    +0.021 C 
ENDBRANCH   7  11
ENDBRANCH   2   3
ENDBRANCH   1   2
BRANCH   1  16
ATOM     16  C   UNL     1      33.550 -12.718 -22.870  0.00  0.00    +0.020 C 
BRANCH  16  17
ATOM     17  C   UNL     1      32.180 -12.221 -22.421  0.00  0.00    +0.099 C 
BRANCH  17  21
ATOM     18 CL   UNL     1      31.284 -11.869 -19.646  0.00  0.00    -0.062 Cl
ATOM     19  O   UNL     1      33.089  -8.427 -20.388  0.00  0.00    -0.448 OA
ATOM     20  O   UNL     1      32.831 -10.094 -24.065  0.00  0.00    -0.269 OA
ATOM     21  N   UNL     1      32.217 -10.833 -21.937  0.00  0.00    -0.244 N 
ATOM     22  C   UNL     1      32.462  -9.843 -22.915  0.00  0.00    +0.256 C 
ATOM     23  C   UNL     1      32.020 -10.596 -20.578  0.00  0.00    +0.151 C 
ATOM     24  C   UNL     1      32.176  -8.416 -22.633  0.00  0.00    +0.088 C 
ATOM     25  C   UNL     1      32.500  -7.782 -21.438  0.00  0.00    +0.150 C 
ATOM     26  C   UNL     1      32.406  -9.506 -19.903  0.00  0.00    +0.206 C 
ATOM     27  C   UNL     1      31.602  -7.659 -23.667  0.00  0.00    +0.008 C 
ATOM     28  C   UNL     1      32.279  -6.409 -21.277  0.00  0.00    +0.038 C 
ATOM     29  C   UNL     1      31.361  -6.293 -23.501  0.00  0.00    +0.000 C 
ATOM     30  C   UNL     1      31.704  -5.668 -22.306  0.00  0.00    +0.003 C 
ENDBRANCH  17  21
ENDBRANCH  16  17
ENDBRANCH   1  16
TORSDOF 6
ENDMDL
MODEL 4
REMARK VINA RESULT:     -10.6      0.929      1.532
REMARK  Name = 9801640
REMARK  6 active torsions:
REMARK  status: ('A' for Active; 'I' for Inactive)
REMARK    1  A    between atoms: C_1  and  C_2
REMARK    2  A    between atoms: C_1  and  C_16
REMARK    3  A    between atoms: C_2  and  N_3
REMARK    4  A    between atoms: C_7  and  C_11
REMARK    5  A    between atoms: C_16  and  C_17
REMARK    6  A    between atoms: C_17  and  N_21
REMARK                            x       y       z     vdW  Elec       q    Type
REMARK                         _______ _______ _______ _____ _____    ______ ____
ROOT
ATOM      1  C   UNL     1      33.929 -14.728 -24.825  0.00  0.00    -0.021 C 
ENDROOT
BRANCH   1   2
ATOM      2  C   UNL     1      34.954 -15.842 -25.033  0.00  0.00    -0.077 C 
BRANCH   2   3
ATOM      3  N   UNL     1      34.767 -16.894 -24.036  0.00  0.00    +0.390 N 
ATOM      4  C   UNL     1      35.264 -18.183 -24.527  0.00  0.00    -0.072 C 
ATOM      5  C   UNL     1      35.423 -16.533 -22.769  0.00  0.00    -0.051 C 
ATOM      6  C   UNL     1      34.904 -19.295 -23.530  0.00  0.00    +0.005 C 
ATOM      7  C   UNL     1      35.248 -18.940 -22.101  0.00  0.00    -0.013 C 
ATOM      8  C   UNL     1      35.486 -17.657 -21.770  0.00  0.00    -0.052 C 
ATOM      9  H   UNL     1      33.767 -16.989 -23.863  0.00  0.00    -0.079 HD
BRANCH   7  11
ATOM     10  N   UNL     1      34.117 -20.571 -20.737  0.00  0.00    -0.244 NA
ATOM     11  C   UNL     1      35.304 -20.032 -21.099  0.00  0.00    +0.077 C 
ATOM     12  C   UNL     1      36.527 -20.443 -20.588  0.00  0.00    +0.019 C 
ATOM     13  C   UNL     1      36.530 -21.470 -19.650  0.00  0.00    +0.003 C 
ATOM     14  C   UNL     1      34.160 -21.566 -19.823  0.00  0.00    +0.099 C 
ATOM     15  C   UNL     1      35.328 -22.047 -19.255  0.00  0.00    +0.021 C 
ENDBRANCH   7  11
ENDBRANCH   2   3
ENDBRANCH   1   2
BRANCH   1  16
ATOM     16  C   UNL     1      34.611 -13.427 -24.387  0.00  0.00    +0.020 C 
BRANCH  16  17
ATOM     17  C   UNL     1      33.864 -12.185 -24.859  0.00  0.00    +0.099 C 
BRANCH  17  21
ATOM     18 CL   UNL     1      35.332  -9.653 -24.608  0.00  0.00    -0.062 Cl
ATOM     19  O   UNL     1      32.185  -9.031 -22.291  0.00  0.00    -0.448 OA
ATOM     20  O   UNL     1      31.969 -13.005 -23.018  0.00  0.00    -0.269 OA
ATOM     21  N   UNL     1      33.429 -11.333 -23.742  0.00  0.00    -0.244 N 
ATOM     22  C   UNL     1      32.535 -11.926 -22.824  0.00  0.00    +0.256 C 
ATOM     23  C   UNL     1      33.912 -10.028 -23.673  0.00  0.00    +0.151 C 
ATOM     24  C   UNL     1      32.305 -11.316 -21.492  0.00  0.00    +0.088 C 
ATOM     25  C   UNL     1      32.130  -9.951 -21.284  0.00  0.00    +0.150 C 
ATOM     26  C   UNL     1      33.350  -9.012 -23.007  0.00  0.00    +0.206 C 
ATOM     27  C   UNL     1      32.197 -12.187 -20.395  0.00  0.00    +0.008 C 
ATOM     28  C   UNL     1      31.829  -9.458 -20.009  0.00  0.00    +0.038 C 
ATOM     29  C   UNL     1      31.918 -11.695 -19.119  0.00  0.00    +0.000 C 
ATOM     30  C   UNL     1      31.730 -10.329 -18.927  0.00  0.00    +0.003 C 
ENDBRANCH  17  21
ENDBRANCH  16  17
ENDBRANCH   1  16
TORSDOF 6
ENDMDL
MODEL 5
REMARK VINA RESULT:     -10.5      6.008     11.224
REMARK  Name = 9801640
REMARK  6 active torsions:
REMARK  status: ('A' for Active; 'I' for Inactive)
REMARK    1  A    between atoms: C_1  and  C_2
REMARK    2  A    between atoms: C_1  and  C_16
REMARK    3  A    between atoms: C_2  and  N_3
REMARK    4  A    between atoms: C_7  and  C_11
REMARK    5  A    between atoms: C_16  and  C_17
REMARK    6  A    between atoms: C_17  and  N_21
REMARK                            x       y       z     vdW  Elec       q    Type
REMARK                         _______ _______ _______ _____ _____    ______ ____
ROOT
ATOM      1  C   UNL     1      37.160 -21.428 -17.394  0.00  0.00    -0.021 C 
ENDROOT
BRANCH   1   2
ATOM      2  C   UNL     1      36.406 -21.906 -18.635  0.00  0.00    -0.077 C 
BRANCH   2   3
ATOM      3  N   UNL     1      36.125 -20.781 -19.523  0.00  0.00    +0.390 N 
ATOM      4  C   UNL     1      37.249 -20.528 -20.429  0.00  0.00    -0.072 C 
ATOM      5  C   UNL     1      34.887 -21.013 -20.283  0.00  0.00    -0.051 C 
ATOM      6  C   UNL     1      36.994 -19.242 -21.231  0.00  0.00    +0.005 C 
ATOM      7  C   UNL     1      35.611 -19.192 -21.840  0.00  0.00    -0.013 C 
ATOM      8  C   UNL     1      34.651 -20.021 -21.390  0.00  0.00    -0.052 C 
ATOM      9  H   UNL     1      35.996 -19.950 -18.945  0.00  0.00    -0.079 HD
BRANCH   7  11
ATOM     10  N   UNL     1      35.548 -16.911 -22.609  0.00  0.00    -0.244 NA
ATOM     11  C   UNL     1      35.356 -18.213 -22.925  0.00  0.00    +0.077 C 
ATOM     12  C   UNL     1      34.945 -18.652 -24.175  0.00  0.00    +0.019 C 
ATOM     13  C   UNL     1      34.717 -17.697 -25.160  0.00  0.00    +0.003 C 
ATOM     14  C   UNL     1      35.316 -16.012 -23.592  0.00  0.00    +0.099 C 
ATOM     15  C   UNL     1      34.904 -16.350 -24.871  0.00  0.00    +0.021 C 
ENDBRANCH   7  11
ENDBRANCH   2   3
ENDBRANCH   1   2
BRANCH   1  16
ATOM     16  C   UNL     1      36.697 -22.181 -16.143  0.00  0.00    +0.020 C 
BRANCH  16  17
ATOM     17  C   UNL     1      36.026 -23.510 -16.473  0.00  0.00    +0.099 C 
BRANCH  17  21
ATOM     18 CL   UNL     1      36.698 -25.236 -14.193  0.00  0.00    -0.062 Cl
ATOM     19  O   UNL     1      33.179 -23.773 -13.128  0.00  0.00    -0.448 OA
ATOM     20  O   UNL     1      33.442 -22.689 -17.017  0.00  0.00    -0.269 OA
ATOM     21  N   UNL     1      34.899 -23.807 -15.576  0.00  0.00    -0.244 N 
ATOM     22  C   UNL     1      33.622 -23.416 -16.037  0.00  0.00    +0.256 C 
ATOM     23  C   UNL     1      35.163 -24.433 -14.360  0.00  0.00    +0.151 C 
ATOM     24  C   UNL     1      32.394 -23.963 -15.413  0.00  0.00    +0.088 C 
ATOM     25  C   UNL     1      32.217 -24.102 -14.040  0.00  0.00    +0.150 C 
ATOM     26  C   UNL     1      34.374 -24.419 -13.277  0.00  0.00    +0.206 C 
ATOM     27  C   UNL     1      31.331 -24.298 -16.270  0.00  0.00    +0.008 C 
ATOM     28  C   UNL     1      30.994 -24.544 -13.520  0.00  0.00    +0.038 C 
ATOM     29  C   UNL     1      30.118 -24.759 -15.754  0.00  0.00    +0.000 C 
ATOM     30  C   UNL     1      29.949 -24.878 -14.378  0.00  0.00    +0.003 C 
ENDBRANCH  17  21
ENDBRANCH  16  17
ENDBRANCH   1  16
TORSDOF 6
ENDMDL
MODEL 6
REMARK VINA RESULT:     -10.4      6.877     12.660
REMARK  Name = 9801640
REMARK  6 active torsions:
REMARK  status: ('A' for Active; 'I' for Inactive)
REMARK    1  A    between atoms: C_1  and  C_2
REMARK    2  A    between atoms: C_1  and  C_16
REMARK    3  A    between atoms: C_2  and  N_3
REMARK    4  A    between atoms: C_7  and  C_11
REMARK    5  A    between atoms: C_16  and  C_17
REMARK    6  A    between atoms: C_17  and  N_21
REMARK                            x       y       z     vdW  Elec       q    Type
REMARK                         _______ _______ _______ _____ _____    ______ ____
ROOT
ATOM      1  C   UNL     1      34.399 -23.145 -17.043  0.00  0.00    -0.021 C 
ENDROOT
BRANCH   1   2
ATOM      2  C   UNL     1      33.652 -23.589 -18.300  0.00  0.00    -0.077 C 
BRANCH   2   3
ATOM      3  N   UNL     1      33.929 -22.674 -19.404  0.00  0.00    +0.390 N 
ATOM      4  C   UNL     1      33.027 -21.519 -19.374  0.00  0.00    -0.072 C 
ATOM      5  C   UNL     1      35.334 -22.236 -19.379  0.00  0.00    -0.051 C 
ATOM      6  C   UNL     1      33.229 -20.665 -20.635  0.00  0.00    +0.005 C 
ATOM      7  C   UNL     1      34.685 -20.376 -20.924  0.00  0.00    -0.013 C 
ATOM      8  C   UNL     1      35.643 -21.112 -20.332  0.00  0.00    -0.052 C 
ATOM      9  H   UNL     1      33.766 -23.176 -20.277  0.00  0.00    -0.079 HD
BRANCH   7  11
ATOM     10  N   UNL     1      35.411 -18.114 -21.312  0.00  0.00    -0.244 NA
ATOM     11  C   UNL     1      35.010 -19.280 -21.869  0.00  0.00    +0.077 C 
ATOM     12  C   UNL     1      34.895 -19.484 -23.236  0.00  0.00    +0.019 C 
ATOM     13  C   UNL     1      35.210 -18.427 -24.083  0.00  0.00    +0.003 C 
ATOM     14  C   UNL     1      35.708 -17.108 -22.167  0.00  0.00    +0.099 C 
ATOM     15  C   UNL     1      35.625 -17.213 -23.546  0.00  0.00    +0.021 C 
ENDBRANCH   7  11
ENDBRANCH   2   3
ENDBRANCH   1   2
BRANCH   1  16
ATOM     16  C   UNL     1      33.517 -23.284 -15.799  0.00  0.00    +0.020 C 
BRANCH  16  17
ATOM     17  C   UNL     1      33.574 -24.682 -15.192  0.00  0.00    +0.099 C 
BRANCH  17  21
ATOM     18 CL   UNL     1      33.623 -23.259 -12.623  0.00  0.00    -0.062 Cl
ATOM     19  O   UNL     1      36.559 -25.877 -12.189  0.00  0.00    -0.448 OA
ATOM     20  O   UNL     1      35.728 -26.135 -16.140  0.00  0.00    -0.269 OA
ATOM     21  N   UNL     1      34.790 -24.899 -14.395  0.00  0.00    -0.244 N 
ATOM     22  C   UNL     1      35.847 -25.570 -15.050  0.00  0.00    +0.256 C 
ATOM     23  C   UNL     1      34.813 -24.446 -13.078  0.00  0.00    +0.151 C 
ATOM     24  C   UNL     1      37.222 -25.536 -14.495  0.00  0.00    +0.088 C 
ATOM     25  C   UNL     1      37.518 -25.699 -13.146  0.00  0.00    +0.150 C 
ATOM     26  C   UNL     1      35.622 -24.885 -12.106  0.00  0.00    +0.206 C 
ATOM     27  C   UNL     1      38.280 -25.393 -15.408  0.00  0.00    +0.008 C 
ATOM     28  C   UNL     1      38.847 -25.744 -12.708  0.00  0.00    +0.038 C 
ATOM     29  C   UNL     1      39.606 -25.416 -14.971  0.00  0.00    +0.000 C 
ATOM     30  C   UNL     1      39.889 -25.596 -13.620  0.00  0.00    +0.003 C 
ENDBRANCH  17  21
ENDBRANCH  16  17
ENDBRANCH   1  16
TORSDOF 6
ENDMDL
MODEL 7
REMARK VINA RESULT:     -10.0      3.862      9.749
REMARK  Name = 9801640
REMARK  6 active torsions:
REMARK  status: ('A' for Active; 'I' for Inactive)
REMARK    1  A    between atoms: C_1  and  C_2
REMARK    2  A    between atoms: C_1  and  C_16
REMARK    3  A    between atoms: C_2  and  N_3
REMARK    4  A    between atoms: C_7  and  C_11
REMARK    5  A    between atoms: C_16  and  C_17
REMARK    6  A    between atoms: C_17  and  N_21
REMARK                            x       y       z     vdW  Elec       q    Type
REMARK                         _______ _______ _______ _____ _____    ______ ____
ROOT
ATOM      1  C   UNL     1      35.283 -17.826 -21.762  0.00  0.00    -0.021 C 
ENDROOT
BRANCH   1   2
ATOM      2  C   UNL     1      35.731 -17.181 -23.073  0.00  0.00    -0.077 C 
BRANCH   2   3
ATOM      3  N   UNL     1      35.338 -15.774 -23.107  0.00  0.00    +0.390 N 
ATOM      4  C   UNL     1      34.403 -15.511 -24.205  0.00  0.00    -0.072 C 
ATOM      5  C   UNL     1      34.755 -15.365 -21.819  0.00  0.00    -0.051 C 
ATOM      6  C   UNL     1      34.140 -14.002 -24.317  0.00  0.00    +0.005 C 
ATOM      7  C   UNL     1      33.817 -13.359 -22.987  0.00  0.00    -0.013 C 
ATOM      8  C   UNL     1      34.108 -14.006 -21.843  0.00  0.00    -0.052 C 
ATOM      9  H   UNL     1      36.177 -15.218 -23.270  0.00  0.00    -0.079 HD
BRANCH   7  11
ATOM     10  N   UNL     1      32.126 -11.854 -22.169  0.00  0.00    -0.244 NA
ATOM     11  C   UNL     1      33.189 -12.016 -22.990  0.00  0.00    +0.077 C 
ATOM     12  C   UNL     1      33.696 -11.013 -23.804  0.00  0.00    +0.019 C 
ATOM     13  C   UNL     1      33.073  -9.770 -23.774  0.00  0.00    +0.003 C 
ATOM     14  C   UNL     1      31.546 -10.632 -22.166  0.00  0.00    +0.099 C 
ATOM     15  C   UNL     1      31.977  -9.568 -22.942  0.00  0.00    +0.021 C 
ENDBRANCH   7  11
ENDBRANCH   2   3
ENDBRANCH   1   2
BRANCH   1  16
ATOM     16  C   UNL     1      36.150 -19.042 -21.421  0.00  0.00    +0.020 C 
BRANCH  16  17
ATOM     17  C   UNL     1      35.422 -20.363 -21.643  0.00  0.00    +0.099 C 
BRANCH  17  21
ATOM     18 CL   UNL     1      32.658 -20.185 -20.664  0.00  0.00    -0.062 Cl
ATOM     19  O   UNL     1      34.122 -23.164 -18.509  0.00  0.00    -0.448 OA
ATOM     20  O   UNL     1      37.441 -21.596 -20.211  0.00  0.00    -0.269 OA
ATOM     21  N   UNL     1      35.170 -21.083 -20.387  0.00  0.00    -0.244 N 
ATOM     22  C   UNL     1      36.312 -21.571 -19.713  0.00  0.00    +0.256 C 
ATOM     23  C   UNL     1      33.853 -21.238 -19.960  0.00  0.00    +0.151 C 
ATOM     24  C   UNL     1      36.231 -21.989 -18.294  0.00  0.00    +0.088 C 
ATOM     25  C   UNL     1      35.192 -22.751 -17.768  0.00  0.00    +0.150 C 
ATOM     26  C   UNL     1      33.403 -22.168 -19.108  0.00  0.00    +0.206 C 
ATOM     27  C   UNL     1      37.305 -21.642 -17.458  0.00  0.00    +0.008 C 
ATOM     28  C   UNL     1      35.228 -23.183 -16.437  0.00  0.00    +0.038 C 
ATOM     29  C   UNL     1      37.333 -22.054 -16.124  0.00  0.00    +0.000 C 
ATOM     30  C   UNL     1      36.295 -22.829 -15.615  0.00  0.00    +0.003 C 
ENDBRANCH  17  21
ENDBRANCH  16  17
ENDBRANCH   1  16
TORSDOF 6
ENDMDL
MODEL 8
REMARK VINA RESULT:     -10.0      2.742      9.619
REMARK  Name = 9801640
REMARK  6 active torsions:
REMARK  status: ('A' for Active; 'I' for Inactive)
REMARK    1  A    between atoms: C_1  and  C_2
REMARK    2  A    between atoms: C_1  and  C_16
REMARK    3  A    between atoms: C_2  and  N_3
REMARK    4  A    between atoms: C_7  and  C_11
REMARK    5  A    between atoms: C_16  and  C_17
REMARK    6  A    between atoms: C_17  and  N_21
REMARK                            x       y       z     vdW  Elec       q    Type
REMARK                         _______ _______ _______ _____ _____    ______ ____
ROOT
ATOM      1  C   UNL     1      32.355 -12.930 -19.618  0.00  0.00    -0.021 C 
ENDROOT
BRANCH   1   2
ATOM      2  C   UNL     1      31.361 -11.826 -19.977  0.00  0.00    -0.077 C 
BRANCH   2   3
ATOM      3  N   UNL     1      32.004 -10.819 -20.817  0.00  0.00    +0.390 N 
ATOM      4  C   UNL     1      31.364 -10.740 -22.134  0.00  0.00    -0.072 C 
ATOM      5  C   UNL     1      31.995  -9.504 -20.156  0.00  0.00    -0.051 C 
ATOM      6  C   UNL     1      32.162  -9.798 -23.047  0.00  0.00    +0.005 C 
ATOM      7  C   UNL     1      32.504  -8.483 -22.384  0.00  0.00    -0.013 C 
ATOM      8  C   UNL     1      32.419  -8.367 -21.046  0.00  0.00    -0.052 C 
ATOM      9  H   UNL     1      32.975 -11.100 -20.957  0.00  0.00    -0.079 HD
BRANCH   7  11
ATOM     10  N   UNL     1      31.978  -6.451 -23.564  0.00  0.00    -0.244 NA
ATOM     11  C   UNL     1      32.934  -7.353 -23.243  0.00  0.00    +0.077 C 
ATOM     12  C   UNL     1      34.252  -7.267 -23.669  0.00  0.00    +0.019 C 
ATOM     13  C   UNL     1      34.609  -6.190 -24.474  0.00  0.00    +0.003 C 
ATOM     14  C   UNL     1      32.362  -5.419 -24.348  0.00  0.00    +0.099 C 
ATOM     15  C   UNL     1      33.651  -5.244 -24.824  0.00  0.00    +0.021 C 
ENDBRANCH   7  11
ENDBRANCH   2   3
ENDBRANCH   1   2
BRANCH   1  16
ATOM     16  C   UNL     1      32.618 -13.846 -20.817  0.00  0.00    +0.020 C 
BRANCH  16  17
ATOM     17  C   UNL     1      34.028 -13.690 -21.378  0.00  0.00    +0.099 C 
BRANCH  17  21
ATOM     18 CL   UNL     1      33.044 -13.433 -24.133  0.00  0.00    -0.062 Cl
ATOM     19  O   UNL     1      35.775 -16.276 -24.479  0.00  0.00    -0.448 OA
ATOM     20  O   UNL     1      35.364 -15.934 -20.468  0.00  0.00    -0.269 OA
ATOM     21  N   UNL     1      34.404 -14.797 -22.268  0.00  0.00    -0.244 N 
ATOM     22  C   UNL     1      34.987 -15.922 -21.643  0.00  0.00    +0.256 C 
ATOM     23  C   UNL     1      34.172 -14.662 -23.635  0.00  0.00    +0.151 C 
ATOM     24  C   UNL     1      35.081 -17.218 -22.356  0.00  0.00    +0.088 C 
ATOM     25  C   UNL     1      35.470 -17.346 -23.686  0.00  0.00    +0.150 C 
ATOM     26  C   UNL     1      34.786 -15.342 -24.611  0.00  0.00    +0.206 C 
ATOM     27  C   UNL     1      34.820 -18.382 -21.613  0.00  0.00    +0.008 C 
ATOM     28  C   UNL     1      35.621 -18.611 -24.267  0.00  0.00    +0.038 C 
ATOM     29  C   UNL     1      34.949 -19.644 -22.197  0.00  0.00    +0.000 C 
ATOM     30  C   UNL     1      35.354 -19.758 -23.523  0.00  0.00    +0.003 C 
ENDBRANCH  17  21
ENDBRANCH  16  17
ENDBRANCH   1  16
TORSDOF 6
ENDMDL
MODEL 9
REMARK VINA RESULT:      -9.6      2.807      5.134
REMARK  Name = 9801640
REMARK  6 active torsions:
REMARK  status: ('A' for Active; 'I' for Inactive)
REMARK    1  A    between atoms: C_1  and  C_2
REMARK    2  A    between atoms: C_1  and  C_16
REMARK    3  A    between atoms: C_2  and  N_3
REMARK    4  A    between atoms: C_7  and  C_11
REMARK    5  A    between atoms: C_16  and  C_17
REMARK    6  A    between atoms: C_17  and  N_21
REMARK                            x       y       z     vdW  Elec       q    Type
REMARK                         _______ _______ _______ _____ _____    ______ ____
ROOT
ATOM      1  C   UNL     1      36.603 -18.975 -22.334  0.00  0.00    -0.021 C 
ENDROOT
BRANCH   1   2
ATOM      2  C   UNL     1      35.250 -19.636 -22.594  0.00  0.00    -0.077 C 
BRANCH   2   3
ATOM      3  N   UNL     1      34.966 -20.633 -21.563  0.00  0.00    +0.390 N 
ATOM      4  C   UNL     1      35.992 -20.619 -20.516  0.00  0.00    -0.072 C 
ATOM      5  C   UNL     1      33.630 -20.419 -20.985  0.00  0.00    -0.051 C 
ATOM      6  C   UNL     1      35.759 -21.783 -19.541  0.00  0.00    +0.005 C 
ATOM      7  C   UNL     1      34.323 -21.886 -19.078  0.00  0.00    -0.013 C 
ATOM      8  C   UNL     1      33.354 -21.246 -19.758  0.00  0.00    -0.052 C 
ATOM      9  H   UNL     1      34.981 -21.552 -22.004  0.00  0.00    -0.079 HD
BRANCH   7  11
ATOM     10  N   UNL     1      35.102 -23.161 -17.190  0.00  0.00    -0.244 NA
ATOM     11  C   UNL     1      34.029 -22.705 -17.877  0.00  0.00    +0.077 C 
ATOM     12  C   UNL     1      32.714 -22.963 -17.517  0.00  0.00    +0.019 C 
ATOM     13  C   UNL     1      32.487 -23.737 -16.384  0.00  0.00    +0.003 C 
ATOM     14  C   UNL     1      34.842 -23.911 -16.095  0.00  0.00    +0.099 C 
ATOM     15  C   UNL     1      33.566 -24.223 -15.654  0.00  0.00    +0.021 C 
ENDBRANCH   7  11
ENDBRANCH   2   3
ENDBRANCH   1   2
BRANCH   1  16
ATOM     16  C   UNL     1      36.452 -17.460 -22.165  0.00  0.00    +0.020 C 
BRANCH  16  17
ATOM     17  C   UNL     1      34.996 -17.023 -22.048  0.00  0.00    +0.099 C 
BRANCH  17  21
ATOM     18 CL   UNL     1      33.670 -14.940 -20.458  0.00  0.00    -0.062 Cl
ATOM     19  O   UNL     1      34.936 -12.911 -23.610  0.00  0.00    -0.448 OA
ATOM     20  O   UNL     1      35.492 -16.751 -24.755  0.00  0.00    -0.269 OA
ATOM     21  N   UNL     1      34.723 -15.777 -22.778  0.00  0.00    -0.244 N 
ATOM     22  C   UNL     1      34.927 -15.820 -24.175  0.00  0.00    +0.256 C 
ATOM     23  C   UNL     1      34.298 -14.662 -22.058  0.00  0.00    +0.151 C 
ATOM     24  C   UNL     1      34.361 -14.770 -25.055  0.00  0.00    +0.088 C 
ATOM     25  C   UNL     1      34.398 -13.410 -24.762  0.00  0.00    +0.150 C 
ATOM     26  C   UNL     1      34.389 -13.386 -22.451  0.00  0.00    +0.206 C 
ATOM     27  C   UNL     1      33.815 -15.183 -26.281  0.00  0.00    +0.008 C 
ATOM     28  C   UNL     1      33.921 -12.470 -25.682  0.00  0.00    +0.038 C 
ATOM     29  C   UNL     1      33.320 -14.248 -27.192  0.00  0.00    +0.000 C 
ATOM     30  C   UNL     1      33.377 -12.890 -26.894  0.00  0.00    +0.003 C 
ENDBRANCH  17  21
ENDBRANCH  16  17
ENDBRANCH   1  16
TORSDOF 6
ENDMDL
