MODEL 1
REMARK VINA RESULT:     -11.5      0.000      0.000
REMARK  Name = 11659487
REMARK  5 active torsions:
REMARK  status: ('A' for Active; 'I' for Inactive)
REMARK    1  A    between atoms: C_1  and  C_15
REMARK    2  A    between atoms: C_2  and  C_7
REMARK    3  A    between atoms: C_10  and  O_13
REMARK    4  A    between atoms: C_15  and  C_16
REMARK    5  A    between atoms: C_16  and  C_18
REMARK                            x       y       z     vdW  Elec       q    Type
REMARK                         _______ _______ _______ _____ _____    ______ ____
ROOT
ATOM      1  C   UNL     1      34.864 -20.684 -20.624  0.00  0.00    -0.022 C 
ATOM      2  C   UNL     1      35.582 -18.962 -22.159  0.00  0.00    -0.000 C 
ATOM      3  C   UNL     1      34.575 -19.781 -21.647  0.00  0.00    -0.004 C 
ATOM      4  C   UNL     1      36.160 -20.770 -20.115  0.00  0.00    -0.004 C 
ATOM      5  C   UNL     1      36.878 -19.048 -21.650  0.00  0.00    -0.000 C 
ATOM      6  C   UNL     1      37.167 -19.952 -20.628  0.00  0.00    -0.000 C 
ENDROOT
BRANCH   2   7
ATOM      7  C   UNL     1      35.282 -18.024 -23.219  0.00  0.00    +0.003 C 
ATOM      8  C   UNL     1      35.421 -16.655 -22.999  0.00  0.00    +0.037 C 
ATOM      9  C   UNL     1      34.855 -18.490 -24.462  0.00  0.00    +0.000 C 
ATOM     10  C   UNL     1      35.132 -15.750 -24.021  0.00  0.00    +0.139 C 
ATOM     11  C   UNL     1      34.566 -17.587 -25.485  0.00  0.00    +0.003 C 
ATOM     12  C   UNL     1      34.705 -16.216 -25.264  0.00  0.00    +0.037 C 
BRANCH  10  13
ATOM     13  O   UNL     1      35.267 -14.413 -23.806  0.00  0.00    -0.471 OA
ATOM     14  C   UNL     1      34.160 -13.583 -24.153  0.00  0.00    +0.252 C 
ENDBRANCH  10  13
ENDBRANCH   2   7
BRANCH   1  15
ATOM     15  C   UNL     1      33.789 -21.560 -20.075  0.00  0.00    +0.034 C 
BRANCH  15  16
ATOM     16  C   UNL     1      34.309 -22.728 -19.214  0.00  0.00    +0.064 C 
BRANCH  16  18
ATOM     17  N   UNL     1      32.198 -22.758 -18.026  0.00  0.00    -0.396 NA
ATOM     18  C   UNL     1      33.531 -22.914 -17.933  0.00  0.00    +0.110 C 
ATOM     19  C   UNL     1      34.218 -23.223 -16.780  0.00  0.00    +0.023 C 
ATOM     20  C   UNL     1      33.471 -23.388 -15.618  0.00  0.00    -0.015 C 
ATOM     21  C   UNL     1      31.507 -22.925 -16.878  0.00  0.00    +0.158 C 
ATOM     22  C   UNL     1      32.090 -23.238 -15.659  0.00  0.00    +0.100 C 
ATOM     23  N   UNL     1      30.098 -22.777 -16.903  0.00  0.00    -0.336 N 
ATOM     24  H   UNL     1      29.642 -22.555 -17.746  0.00  0.00    +0.144 HD
ATOM     25  H   UNL     1      29.575 -22.895 -16.076  0.00  0.00    +0.144 HD
ENDBRANCH  16  18
ENDBRANCH  15  16
ENDBRANCH   1  15
TORSDOF 5
ENDMDL
MODEL 2
REMARK VINA RESULT:     -11.1      4.331      8.650
REMARK  Name = 11659487
REMARK  5 active torsions:
REMARK  status: ('A' for Active; 'I' for Inactive)
REMARK    1  A    between atoms: C_1  and  C_15
REMARK    2  A    between atoms: C_2  and  C_7
REMARK    3  A    between atoms: C_10  and  O_13
REMARK    4  A    between atoms: C_15  and  C_16
REMARK    5  A    between atoms: C_16  and  C_18
REMARK                            x       y       z     vdW  Elec       q    Type
REMARK                         _______ _______ _______ _____ _____    ______ ____
ROOT
ATOM      1  C   UNL     1      35.342 -19.017 -23.259  0.00  0.00    -0.022 C 
ATOM      2  C   UNL     1      35.687 -20.171 -21.164  0.00  0.00    -0.000 C 
ATOM      3  C   UNL     1      34.867 -19.853 -22.248  0.00  0.00    -0.004 C 
ATOM      4  C   UNL     1      36.634 -18.497 -23.185  0.00  0.00    -0.004 C 
ATOM      5  C   UNL     1      36.979 -19.652 -21.091  0.00  0.00    -0.000 C 
ATOM      6  C   UNL     1      37.453 -18.815 -22.101  0.00  0.00    -0.000 C 
ENDROOT
BRANCH   2   7
ATOM      7  C   UNL     1      35.196 -21.040 -20.117  0.00  0.00    +0.003 C 
ATOM      8  C   UNL     1      36.079 -21.567 -19.176  0.00  0.00    +0.037 C 
ATOM      9  C   UNL     1      33.838 -21.349 -20.048  0.00  0.00    +0.000 C 
ATOM     10  C   UNL     1      35.605 -22.404 -18.166  0.00  0.00    +0.139 C 
ATOM     11  C   UNL     1      33.363 -22.186 -19.039  0.00  0.00    +0.003 C 
ATOM     12  C   UNL     1      34.247 -22.714 -18.096  0.00  0.00    +0.037 C 
BRANCH  10  13
ATOM     13  O   UNL     1      36.468 -22.919 -17.246  0.00  0.00    -0.471 OA
ATOM     14  C   UNL     1      37.381 -22.011 -16.633  0.00  0.00    +0.252 C 
ENDBRANCH  10  13
ENDBRANCH   2   7
BRANCH   1  15
ATOM     15  C   UNL     1      34.467 -18.676 -24.417  0.00  0.00    +0.034 C 
BRANCH  15  16
ATOM     16  C   UNL     1      35.109 -17.698 -25.422  0.00  0.00    +0.064 C 
BRANCH  16  18
ATOM     17  N   UNL     1      33.927 -15.779 -26.308  0.00  0.00    -0.396 NA
ATOM     18  C   UNL     1      34.616 -16.279 -25.268  0.00  0.00    +0.110 C 
ATOM     19  C   UNL     1      34.897 -15.604 -24.100  0.00  0.00    +0.023 C 
ATOM     20  C   UNL     1      34.429 -14.299 -23.990  0.00  0.00    -0.015 C 
ATOM     21  C   UNL     1      33.489 -14.509 -26.165  0.00  0.00    +0.158 C 
ATOM     22  C   UNL     1      33.711 -13.734 -25.037  0.00  0.00    +0.100 C 
ATOM     23  N   UNL     1      32.754 -13.918 -27.223  0.00  0.00    -0.336 N 
ATOM     24  H   UNL     1      32.573 -14.431 -28.043  0.00  0.00    +0.144 HD
ATOM     25  H   UNL     1      32.426 -12.993 -27.138  0.00  0.00    +0.144 HD
ENDBRANCH  16  18
ENDBRANCH  15  16
ENDBRANCH   1  15
TORSDOF 5
ENDMDL
MODEL 3
REMARK VINA RESULT:     -11.0      4.367      8.210
REMARK  Name = 11659487
REMARK  5 active torsions:
REMARK  status: ('A' for Active; 'I' for Inactive)
REMARK    1  A    between atoms: C_1  and  C_15
REMARK    2  A    between atoms: C_2  and  C_7
REMARK    3  A    between atoms: C_10  and  O_13
REMARK    4  A    between atoms: C_15  and  C_16
REMARK    5  A    between atoms: C_16  and  C_18
REMARK                            x       y       z     vdW  Elec       q    Type
REMARK                         _______ _______ _______ _____ _____    ______ ____
ROOT
ATOM      1  C   UNL     1      35.166 -16.771 -23.394  0.00  0.00    -0.022 C 
ATOM      2  C   UNL     1      35.120 -19.032 -22.545  0.00  0.00    -0.000 C 
ATOM      3  C   UNL     1      35.266 -17.661 -22.326  0.00  0.00    -0.004 C 
ATOM      4  C   UNL     1      34.921 -17.250 -24.681  0.00  0.00    -0.004 C 
ATOM      5  C   UNL     1      34.875 -19.511 -23.831  0.00  0.00    -0.000 C 
ATOM      6  C   UNL     1      34.775 -18.620 -24.900  0.00  0.00    -0.000 C 
ENDROOT
BRANCH   2   7
ATOM      7  C   UNL     1      35.223 -19.956 -21.436  0.00  0.00    +0.003 C 
ATOM      8  C   UNL     1      34.080 -20.585 -20.944  0.00  0.00    +0.037 C 
ATOM      9  C   UNL     1      36.465 -20.219 -20.861  0.00  0.00    +0.000 C 
ATOM     10  C   UNL     1      34.179 -21.476 -19.875  0.00  0.00    +0.139 C 
ATOM     11  C   UNL     1      36.565 -21.110 -19.792  0.00  0.00    +0.003 C 
ATOM     12  C   UNL     1      35.422 -21.740 -19.300  0.00  0.00    +0.037 C 
BRANCH  10  13
ATOM     13  O   UNL     1      33.063 -22.091 -19.395  0.00  0.00    -0.471 OA
ATOM     14  C   UNL     1      33.211 -22.877 -18.214  0.00  0.00    +0.252 C 
ENDBRANCH  10  13
ENDBRANCH   2   7
BRANCH   1  15
ATOM     15  C   UNL     1      35.321 -15.306 -23.162  0.00  0.00    +0.034 C 
BRANCH  15  16
ATOM     16  C   UNL     1      34.126 -14.462 -23.647  0.00  0.00    +0.064 C 
BRANCH  16  18
ATOM     17  N   UNL     1      32.708 -12.672 -22.841  0.00  0.00    -0.396 NA
ATOM     18  C   UNL     1      33.372 -13.796 -22.521  0.00  0.00    +0.110 C 
ATOM     19  C   UNL     1      33.413 -14.368 -21.269  0.00  0.00    +0.023 C 
ATOM     20  C   UNL     1      32.708 -13.730 -20.254  0.00  0.00    -0.015 C 
ATOM     21  C   UNL     1      32.036 -12.080 -21.830  0.00  0.00    +0.158 C 
ATOM     22  C   UNL     1      32.004 -12.564 -20.531  0.00  0.00    +0.100 C 
ATOM     23  N   UNL     1      31.312 -10.891 -22.097  0.00  0.00    -0.336 N 
ATOM     24  H   UNL     1      31.307 -10.511 -23.004  0.00  0.00    +0.144 HD
ATOM     25  H   UNL     1      30.816 -10.444 -21.373  0.00  0.00    +0.144 HD
ENDBRANCH  16  18
ENDBRANCH  15  16
ENDBRANCH   1  15
TORSDOF 5
ENDMDL
MODEL 4
REMARK VINA RESULT:     -10.8      3.657      5.067
REMARK  Name = 11659487
REMARK  5 active torsions:
REMARK  status: ('A' for Active; 'I' for Inactive)
REMARK    1  A    between atoms: C_1  and  C_15
REMARK    2  A    between atoms: C_2  and  C_7
REMARK    3  A    between atoms: C_10  and  O_13
REMARK    4  A    between atoms: C_15  and  C_16
REMARK    5  A    between atoms: C_16  and  C_18
REMARK                            x       y       z     vdW  Elec       q    Type
REMARK                         _______ _______ _______ _____ _____    ______ ____
ROOT
ATOM      1  C   UNL     1      36.319 -22.109 -17.951  0.00  0.00    -0.022 C 
ATOM      2  C   UNL     1      35.587 -21.029 -19.985  0.00  0.00    -0.000 C 
ATOM      3  C   UNL     1      36.580 -21.271 -19.035  0.00  0.00    -0.004 C 
ATOM      4  C   UNL     1      35.064 -22.703 -17.816  0.00  0.00    -0.004 C 
ATOM      5  C   UNL     1      34.333 -21.623 -19.850  0.00  0.00    -0.000 C 
ATOM      6  C   UNL     1      34.071 -22.461 -18.765  0.00  0.00    -0.000 C 
ENDROOT
BRANCH   2   7
ATOM      7  C   UNL     1      35.858 -20.161 -21.110  0.00  0.00    +0.003 C 
ATOM      8  C   UNL     1      34.927 -20.044 -22.142  0.00  0.00    +0.037 C 
ATOM      9  C   UNL     1      37.050 -19.439 -21.162  0.00  0.00    +0.000 C 
ATOM     10  C   UNL     1      35.189 -19.206 -23.226  0.00  0.00    +0.139 C 
ATOM     11  C   UNL     1      37.313 -18.602 -22.246  0.00  0.00    +0.003 C 
ATOM     12  C   UNL     1      36.381 -18.485 -23.278  0.00  0.00    +0.037 C 
BRANCH  10  13
ATOM     13  O   UNL     1      34.280 -19.092 -24.234  0.00  0.00    -0.471 OA
ATOM     14  C   UNL     1      34.502 -18.063 -25.196  0.00  0.00    +0.252 C 
ENDBRANCH  10  13
ENDBRANCH   2   7
BRANCH   1  15
ATOM     15  C   UNL     1      37.380 -22.368 -16.936  0.00  0.00    +0.034 C 
BRANCH  15  16
ATOM     16  C   UNL     1      36.843 -22.880 -15.584  0.00  0.00    +0.064 C 
BRANCH  16  18
ATOM     17  N   UNL     1      38.519 -24.508 -14.947  0.00  0.00    -0.396 NA
ATOM     18  C   UNL     1      37.235 -24.309 -15.292  0.00  0.00    +0.110 C 
ATOM     19  C   UNL     1      36.276 -25.293 -15.396  0.00  0.00    +0.023 C 
ATOM     20  C   UNL     1      36.670 -26.598 -15.119  0.00  0.00    -0.015 C 
ATOM     21  C   UNL     1      38.865 -25.788 -14.687  0.00  0.00    +0.158 C 
ATOM     22  C   UNL     1      37.987 -26.859 -14.757  0.00  0.00    +0.100 C 
ATOM     23  N   UNL     1      40.203 -26.071 -14.315  0.00  0.00    -0.336 N 
ATOM     24  H   UNL     1      40.860 -25.341 -14.253  0.00  0.00    +0.144 HD
ATOM     25  H   UNL     1      40.475 -26.997 -14.122  0.00  0.00    +0.144 HD
ENDBRANCH  16  18
ENDBRANCH  15  16
ENDBRANCH   1  15
TORSDOF 5
ENDMDL
MODEL 5
REMARK VINA RESULT:     -10.8      4.522      8.261
REMARK  Name = 11659487
REMARK  5 active torsions:
REMARK  status: ('A' for Active; 'I' for Inactive)
REMARK    1  A    between atoms: C_1  and  C_15
REMARK    2  A    between atoms: C_2  and  C_7
REMARK    3  A    between atoms: C_10  and  O_13
REMARK    4  A    between atoms: C_15  and  C_16
REMARK    5  A    between atoms: C_16  and  C_18
REMARK                            x       y       z     vdW  Elec       q    Type
REMARK                         _______ _______ _______ _____ _____    ______ ____
ROOT
ATOM      1  C   UNL     1      35.189 -16.846 -22.734  0.00  0.00    -0.022 C 
ATOM      2  C   UNL     1      35.035 -19.165 -22.074  0.00  0.00    -0.000 C 
ATOM      3  C   UNL     1      35.099 -17.813 -21.734  0.00  0.00    -0.004 C 
ATOM      4  C   UNL     1      35.218 -17.231 -24.075  0.00  0.00    -0.004 C 
ATOM      5  C   UNL     1      35.064 -19.549 -23.414  0.00  0.00    -0.000 C 
ATOM      6  C   UNL     1      35.155 -18.582 -24.415  0.00  0.00    -0.000 C 
ENDROOT
BRANCH   2   7
ATOM      7  C   UNL     1      34.940 -20.168 -21.035  0.00  0.00    +0.003 C 
ATOM      8  C   UNL     1      36.091 -20.614 -20.388  0.00  0.00    +0.037 C 
ATOM      9  C   UNL     1      33.695 -20.688 -20.681  0.00  0.00    +0.000 C 
ATOM     10  C   UNL     1      35.999 -21.581 -19.387  0.00  0.00    +0.139 C 
ATOM     11  C   UNL     1      33.602 -21.654 -19.680  0.00  0.00    +0.003 C 
ATOM     12  C   UNL     1      34.755 -22.101 -19.032  0.00  0.00    +0.037 C 
BRANCH  10  13
ATOM     13  O   UNL     1      37.124 -22.017 -18.755  0.00  0.00    -0.471 OA
ATOM     14  C   UNL     1      37.119 -21.991 -17.329  0.00  0.00    +0.252 C 
ENDBRANCH  10  13
ENDBRANCH   2   7
BRANCH   1  15
ATOM     15  C   UNL     1      35.256 -15.401 -22.372  0.00  0.00    +0.034 C 
BRANCH  15  16
ATOM     16  C   UNL     1      34.225 -14.521 -23.107  0.00  0.00    +0.064 C 
BRANCH  16  18
ATOM     17  N   UNL     1      32.811 -12.601 -22.681  0.00  0.00    -0.396 NA
ATOM     18  C   UNL     1      33.351 -13.722 -22.170  0.00  0.00    +0.110 C 
ATOM     19  C   UNL     1      33.167 -14.181 -20.884  0.00  0.00    +0.023 C 
ATOM     20  C   UNL     1      32.356 -13.422 -20.047  0.00  0.00    -0.015 C 
ATOM     21  C   UNL     1      32.030 -11.890 -21.838  0.00  0.00    +0.158 C 
ATOM     22  C   UNL     1      31.773 -12.254 -20.525  0.00  0.00    +0.100 C 
ATOM     23  N   UNL     1      31.427 -10.698 -22.310  0.00  0.00    -0.336 N 
ATOM     24  H   UNL     1      31.583 -10.401 -23.236  0.00  0.00    +0.144 HD
ATOM     25  H   UNL     1      30.855 -10.165 -21.712  0.00  0.00    +0.144 HD
ENDBRANCH  16  18
ENDBRANCH  15  16
ENDBRANCH   1  15
TORSDOF 5
ENDMDL
MODEL 6
REMARK VINA RESULT:     -10.7      4.497      9.194
REMARK  Name = 11659487
REMARK  5 active torsions:
REMARK  status: ('A' for Active; 'I' for Inactive)
REMARK    1  A    between atoms: C_1  and  C_15
REMARK    2  A    between atoms: C_2  and  C_7
REMARK    3  A    between atoms: C_10  and  O_13
REMARK    4  A    between atoms: C_15  and  C_16
REMARK    5  A    between atoms: C_16  and  C_18
REMARK                            x       y       z     vdW  Elec       q    Type
REMARK                         _______ _______ _______ _____ _____    ______ ____
ROOT
ATOM      1  C   UNL     1      35.191 -16.845 -22.713  0.00  0.00    -0.022 C 
ATOM      2  C   UNL     1      35.202 -19.172 -22.063  0.00  0.00    -0.000 C 
ATOM      3  C   UNL     1      35.216 -17.821 -21.717  0.00  0.00    -0.004 C 
ATOM      4  C   UNL     1      35.155 -17.221 -24.056  0.00  0.00    -0.004 C 
ATOM      5  C   UNL     1      35.165 -19.548 -23.406  0.00  0.00    -0.000 C 
ATOM      6  C   UNL     1      35.142 -18.572 -24.402  0.00  0.00    -0.000 C 
ENDROOT
BRANCH   2   7
ATOM      7  C   UNL     1      35.225 -20.184 -21.030  0.00  0.00    +0.003 C 
ATOM      8  C   UNL     1      34.034 -20.755 -20.584  0.00  0.00    +0.037 C 
ATOM      9  C   UNL     1      36.441 -20.590 -20.479  0.00  0.00    +0.000 C 
ATOM     10  C   UNL     1      34.057 -21.731 -19.588  0.00  0.00    +0.139 C 
ATOM     11  C   UNL     1      36.465 -21.566 -19.483  0.00  0.00    +0.003 C 
ATOM     12  C   UNL     1      35.272 -22.137 -19.037  0.00  0.00    +0.037 C 
BRANCH  10  13
ATOM     13  O   UNL     1      32.893 -22.288 -19.153  0.00  0.00    -0.471 OA
ATOM     14  C   UNL     1      32.902 -22.883 -17.856  0.00  0.00    +0.252 C 
ENDBRANCH  10  13
ENDBRANCH   2   7
BRANCH   1  15
ATOM     15  C   UNL     1      35.205 -15.400 -22.344  0.00  0.00    +0.034 C 
BRANCH  15  16
ATOM     16  C   UNL     1      33.881 -14.666 -22.631  0.00  0.00    +0.064 C 
BRANCH  16  18
ATOM     17  N   UNL     1      34.432 -12.559 -23.691  0.00  0.00    -0.396 NA
ATOM     18  C   UNL     1      33.938 -13.798 -23.865  0.00  0.00    +0.110 C 
ATOM     19  C   UNL     1      33.490 -14.316 -25.060  0.00  0.00    +0.023 C 
ATOM     20  C   UNL     1      33.557 -13.491 -26.178  0.00  0.00    -0.015 C 
ATOM     21  C   UNL     1      34.480 -11.787 -24.798  0.00  0.00    +0.158 C 
ATOM     22  C   UNL     1      34.060 -12.201 -26.053  0.00  0.00    +0.100 C 
ATOM     23  N   UNL     1      34.992 -10.470 -24.689  0.00  0.00    -0.336 N 
ATOM     24  H   UNL     1      35.301 -10.134 -23.817  0.00  0.00    +0.144 HD
ATOM     25  H   UNL     1      35.035  -9.890 -25.484  0.00  0.00    +0.144 HD
ENDBRANCH  16  18
ENDBRANCH  15  16
ENDBRANCH   1  15
TORSDOF 5
ENDMDL
MODEL 7
REMARK VINA RESULT:     -10.6      3.053      5.710
REMARK  Name = 11659487
REMARK  5 active torsions:
REMARK  status: ('A' for Active; 'I' for Inactive)
REMARK    1  A    between atoms: C_1  and  C_15
REMARK    2  A    between atoms: C_2  and  C_7
REMARK    3  A    between atoms: C_10  and  O_13
REMARK    4  A    between atoms: C_15  and  C_16
REMARK    5  A    between atoms: C_16  and  C_18
REMARK                            x       y       z     vdW  Elec       q    Type
REMARK                         _______ _______ _______ _____ _____    ______ ____
ROOT
ATOM      1  C   UNL     1      35.208 -16.347 -22.477  0.00  0.00    -0.022 C 
ATOM      2  C   UNL     1      33.833 -14.360 -22.535  0.00  0.00    -0.000 C 
ATOM      3  C   UNL     1      34.467 -15.371 -21.811  0.00  0.00    -0.004 C 
ATOM      4  C   UNL     1      35.315 -16.313 -23.868  0.00  0.00    -0.004 C 
ATOM      5  C   UNL     1      33.940 -14.326 -23.925  0.00  0.00    -0.000 C 
ATOM      6  C   UNL     1      34.681 -15.302 -24.592  0.00  0.00    -0.000 C 
ENDROOT
BRANCH   2   7
ATOM      7  C   UNL     1      33.066 -13.348 -21.844  0.00  0.00    +0.003 C 
ATOM      8  C   UNL     1      32.621 -12.219 -22.531  0.00  0.00    +0.037 C 
ATOM      9  C   UNL     1      32.769 -13.501 -20.490  0.00  0.00    +0.000 C 
ATOM     10  C   UNL     1      31.880 -11.243 -21.864  0.00  0.00    +0.139 C 
ATOM     11  C   UNL     1      32.029 -12.525 -19.822  0.00  0.00    +0.003 C 
ATOM     12  C   UNL     1      31.584 -11.396 -20.510  0.00  0.00    +0.037 C 
BRANCH  10  13
ATOM     13  O   UNL     1      31.445 -10.140 -22.535  0.00  0.00    -0.471 OA
ATOM     14  C   UNL     1      32.408  -9.431 -23.312  0.00  0.00    +0.252 C 
ENDBRANCH  10  13
ENDBRANCH   2   7
BRANCH   1  15
ATOM     15  C   UNL     1      35.885 -17.427 -21.704  0.00  0.00    +0.034 C 
BRANCH  15  16
ATOM     16  C   UNL     1      35.700 -18.837 -22.301  0.00  0.00    +0.064 C 
BRANCH  16  18
ATOM     17  N   UNL     1      36.204 -20.405 -20.525  0.00  0.00    -0.396 NA
ATOM     18  C   UNL     1      35.240 -19.856 -21.286  0.00  0.00    +0.110 C 
ATOM     19  C   UNL     1      33.897 -20.152 -21.207  0.00  0.00    +0.023 C 
ATOM     20  C   UNL     1      33.507 -21.094 -20.261  0.00  0.00    -0.015 C 
ATOM     21  C   UNL     1      35.787 -21.316 -19.619  0.00  0.00    +0.158 C 
ATOM     22  C   UNL     1      34.464 -21.693 -19.449  0.00  0.00    +0.100 C 
ATOM     23  N   UNL     1      36.750 -21.934 -18.782  0.00  0.00    -0.336 N 
ATOM     24  H   UNL     1      37.701 -21.698 -18.869  0.00  0.00    +0.144 HD
ATOM     25  H   UNL     1      36.467 -22.602 -18.116  0.00  0.00    +0.144 HD
ENDBRANCH  16  18
ENDBRANCH  15  16
ENDBRANCH   1  15
TORSDOF 5
ENDMDL
MODEL 8
REMARK VINA RESULT:     -10.5      3.959      8.921
REMARK  Name = 11659487
REMARK  5 active torsions:
REMARK  status: ('A' for Active; 'I' for Inactive)
REMARK    1  A    between atoms: C_1  and  C_15
REMARK    2  A    between atoms: C_2  and  C_7
REMARK    3  A    between atoms: C_10  and  O_13
REMARK    4  A    between atoms: C_15  and  C_16
REMARK    5  A    between atoms: C_16  and  C_18
REMARK                            x       y       z     vdW  Elec       q    Type
REMARK                         _______ _______ _______ _____ _____    ______ ____
ROOT
ATOM      1  C   UNL     1      34.522 -22.731 -17.986  0.00  0.00    -0.022 C 
ATOM      2  C   UNL     1      32.696 -23.257 -16.493  0.00  0.00    -0.000 C 
ATOM      3  C   UNL     1      33.161 -22.951 -17.773  0.00  0.00    -0.004 C 
ATOM      4  C   UNL     1      35.417 -22.814 -16.920  0.00  0.00    -0.004 C 
ATOM      5  C   UNL     1      33.591 -23.341 -15.427  0.00  0.00    -0.000 C 
ATOM      6  C   UNL     1      34.952 -23.120 -15.640  0.00  0.00    -0.000 C 
ENDROOT
BRANCH   2   7
ATOM      7  C   UNL     1      31.285 -23.487 -16.272  0.00  0.00    +0.003 C 
ATOM      8  C   UNL     1      30.342 -22.616 -16.818  0.00  0.00    +0.037 C 
ATOM      9  C   UNL     1      30.867 -24.580 -15.515  0.00  0.00    +0.000 C 
ATOM     10  C   UNL     1      28.982 -22.838 -16.605  0.00  0.00    +0.139 C 
ATOM     11  C   UNL     1      29.507 -24.803 -15.302  0.00  0.00    +0.003 C 
ATOM     12  C   UNL     1      28.564 -23.932 -15.848  0.00  0.00    +0.037 C 
BRANCH  10  13
ATOM     13  O   UNL     1      28.061 -21.987 -17.138  0.00  0.00    -0.471 OA
ATOM     14  C   UNL     1      26.701 -22.179 -16.754  0.00  0.00    +0.252 C 
ENDBRANCH  10  13
ENDBRANCH   2   7
BRANCH   1  15
ATOM     15  C   UNL     1      35.020 -22.404 -19.353  0.00  0.00    +0.034 C 
BRANCH  15  16
ATOM     16  C   UNL     1      36.118 -21.322 -19.379  0.00  0.00    +0.064 C 
BRANCH  16  18
ATOM     17  N   UNL     1      37.169 -19.787 -20.930  0.00  0.00    -0.396 NA
ATOM     18  C   UNL     1      36.032 -20.417 -20.585  0.00  0.00    +0.110 C 
ATOM     19  C   UNL     1      34.825 -20.296 -21.237  0.00  0.00    +0.023 C 
ATOM     20  C   UNL     1      34.780 -19.456 -22.344  0.00  0.00    -0.015 C 
ATOM     21  C   UNL     1      37.086 -18.978 -22.009  0.00  0.00    +0.158 C 
ATOM     22  C   UNL     1      35.927 -18.780 -22.744  0.00  0.00    +0.100 C 
ATOM     23  N   UNL     1      38.247 -18.284 -22.431  0.00  0.00    -0.336 N 
ATOM     24  H   UNL     1      39.092 -18.394 -21.939  0.00  0.00    +0.144 HD
ATOM     25  H   UNL     1      38.208 -17.689 -23.215  0.00  0.00    +0.144 HD
ENDBRANCH  16  18
ENDBRANCH  15  16
ENDBRANCH   1  15
TORSDOF 5
ENDMDL
MODEL 9
REMARK VINA RESULT:     -10.4      2.933      3.880
REMARK  Name = 11659487
REMARK  5 active torsions:
REMARK  status: ('A' for Active; 'I' for Inactive)
REMARK    1  A    between atoms: C_1  and  C_15
REMARK    2  A    between atoms: C_2  and  C_7
REMARK    3  A    between atoms: C_10  and  O_13
REMARK    4  A    between atoms: C_15  and  C_16
REMARK    5  A    between atoms: C_16  and  C_18
REMARK                            x       y       z     vdW  Elec       q    Type
REMARK                         _______ _______ _______ _____ _____    ______ ____
ROOT
ATOM      1  C   UNL     1      35.964 -21.562 -19.225  0.00  0.00    -0.022 C 
ATOM      2  C   UNL     1      34.945 -20.237 -20.969  0.00  0.00    -0.000 C 
ATOM      3  C   UNL     1      36.078 -20.627 -20.253  0.00  0.00    -0.004 C 
ATOM      4  C   UNL     1      34.718 -22.107 -18.912  0.00  0.00    -0.004 C 
ATOM      5  C   UNL     1      33.700 -20.782 -20.657  0.00  0.00    -0.000 C 
ATOM      6  C   UNL     1      33.586 -21.717 -19.628  0.00  0.00    -0.000 C 
ENDROOT
BRANCH   2   7
ATOM      7  C   UNL     1      35.063 -19.268 -22.037  0.00  0.00    +0.003 C 
ATOM      8  C   UNL     1      35.185 -17.912 -21.737  0.00  0.00    +0.037 C 
ATOM      9  C   UNL     1      35.057 -19.690 -23.366  0.00  0.00    +0.000 C 
ATOM     10  C   UNL     1      35.299 -16.977 -22.767  0.00  0.00    +0.139 C 
ATOM     11  C   UNL     1      35.172 -18.757 -24.396  0.00  0.00    +0.003 C 
ATOM     12  C   UNL     1      35.293 -17.400 -24.096  0.00  0.00    +0.037 C 
BRANCH  10  13
ATOM     13  O   UNL     1      35.418 -15.653 -22.475  0.00  0.00    -0.471 OA
ATOM     14  C   UNL     1      34.829 -14.730 -23.389  0.00  0.00    +0.252 C 
ENDBRANCH  10  13
ENDBRANCH   2   7
BRANCH   1  15
ATOM     15  C   UNL     1      37.173 -21.980 -18.458  0.00  0.00    +0.034 C 
BRANCH  15  16
ATOM     16  C   UNL     1      37.083 -21.702 -16.944  0.00  0.00    +0.064 C 
BRANCH  16  18
ATOM     17  N   UNL     1      38.219 -23.462 -15.728  0.00  0.00    -0.396 NA
ATOM     18  C   UNL     1      37.031 -22.960 -16.111  0.00  0.00    +0.110 C 
ATOM     19  C   UNL     1      35.802 -23.501 -15.805  0.00  0.00    +0.023 C 
ATOM     20  C   UNL     1      35.789 -24.660 -15.036  0.00  0.00    -0.015 C 
ATOM     21  C   UNL     1      38.167 -24.588 -14.984  0.00  0.00    +0.158 C 
ATOM     22  C   UNL     1      36.990 -25.220 -14.614  0.00  0.00    +0.100 C 
ATOM     23  N   UNL     1      39.381 -25.171 -14.544  0.00  0.00    -0.336 N 
ATOM     24  H   UNL     1      40.241 -24.756 -14.784  0.00  0.00    +0.144 HD
ATOM     25  H   UNL     1      39.365 -25.992 -14.000  0.00  0.00    +0.144 HD
ENDBRANCH  16  18
ENDBRANCH  15  16
ENDBRANCH   1  15
TORSDOF 5
ENDMDL
