MODEL 1
REMARK VINA RESULT:     -11.0      0.000      0.000
REMARK  Name = 17758816
REMARK  9 active torsions:
REMARK  status: ('A' for Active; 'I' for Inactive)
REMARK    1  A    between atoms: C_3  and  C_8
REMARK    2  A    between atoms: C_4  and  C_20
REMARK    3  A    between atoms: C_11  and  O_14
REMARK    4  A    between atoms: O_14  and  C_15
REMARK    5  A    between atoms: C_15  and  C_17
REMARK    6  A    between atoms: C_17  and  O_18
REMARK    7  A    between atoms: C_20  and  N_23
REMARK    8  A    between atoms: C_28  and  S_32
REMARK    9  A    between atoms: S_32  and  C_34
REMARK                            x       y       z     vdW  Elec       q    Type
REMARK                         _______ _______ _______ _____ _____    ______ ____
ROOT
ATOM      1  N   UNL     1      36.399 -19.591 -21.031  0.00  0.00    -0.317 N 
ATOM      2  N   UNL     1      34.841 -19.575 -22.613  0.00  0.00    -0.316 N 
ATOM      3  C   UNL     1      35.480 -20.531 -20.660  0.00  0.00    +0.060 C 
ATOM      4  C   UNL     1      35.975 -19.043 -22.209  0.00  0.00    +0.164 C 
ATOM      5  C   UNL     1      34.528 -20.501 -21.652  0.00  0.00    +0.074 C 
ATOM      6  H   UNL     1      37.218 -19.352 -20.540  0.00  0.00    +0.148 HD
ATOM      7  H   UNL     1      34.332 -19.355 -23.427  0.00  0.00    +0.148 HD
ENDROOT
BRANCH   3   8
ATOM      8  C   UNL     1      35.591 -21.322 -19.459  0.00  0.00    +0.015 C 
ATOM      9  C   UNL     1      34.516 -22.105 -19.038  0.00  0.00    +0.004 C 
ATOM     10  C   UNL     1      36.773 -21.304 -18.719  0.00  0.00    +0.004 C 
ATOM     11  C   UNL     1      35.807 -22.853 -17.137  0.00  0.00    +0.139 C 
ATOM     12  C   UNL     1      34.624 -22.871 -17.876  0.00  0.00    +0.037 C 
ATOM     13  C   UNL     1      36.881 -22.069 -17.558  0.00  0.00    +0.037 C 
BRANCH  11  14
ATOM     14  O   UNL     1      35.912 -23.600 -16.004  0.00  0.00    -0.464 OA
BRANCH  14  15
ATOM     15  C   UNL     1      37.056 -23.373 -15.181  0.00  0.00    +0.314 C 
BRANCH  15  17
ATOM     16  O   UNL     1      39.209 -24.497 -15.110  0.00  0.00    -0.246 OA
ATOM     17  C   UNL     1      38.002 -24.537 -15.293  0.00  0.00    +0.359 C 
BRANCH  17  18
ATOM     18  O   UNL     1      37.322 -25.661 -15.631  0.00  0.00    -0.478 OA
ATOM     19  H   UNL     1      36.832 -25.691 -16.429  0.00  0.00    +0.295 HD
ENDBRANCH  17  18
ENDBRANCH  15  17
ENDBRANCH  14  15
ENDBRANCH  11  14
ENDBRANCH   3   8
BRANCH   4  20
ATOM     20  C   UNL     1      36.748 -17.988 -22.889  0.00  0.00    +0.131 C 
BRANCH  20  23
ATOM     21  S   UNL     1      32.869 -13.036 -23.173  0.00  0.00    -0.045 S 
ATOM     22  O   UNL     1      35.257 -16.411 -21.029  0.00  0.00    -0.252 OA
ATOM     23  N   UNL     1      35.897 -16.861 -23.202  0.00  0.00    -0.285 N 
ATOM     24  N   UNL     1      34.465 -15.114 -22.825  0.00  0.00    -0.248 N 
ATOM     25  N   UNL     1      33.410 -14.100 -20.880  0.00  0.00    -0.222 NA
ATOM     26  C   UNL     1      35.199 -16.141 -22.226  0.00  0.00    +0.306 C 
ATOM     27  C   UNL     1      33.648 -14.189 -22.169  0.00  0.00    +0.167 C 
ATOM     28  C   UNL     1      32.144 -12.349 -21.779  0.00  0.00    +0.082 C 
ATOM     29  C   UNL     1      32.548 -13.044 -20.658  0.00  0.00    +0.114 C 
ATOM     30  H   UNL     1      35.804 -16.588 -24.143  0.00  0.00    +0.151 HD
ATOM     31  H   UNL     1      34.529 -15.034 -23.804  0.00  0.00    +0.158 HD
BRANCH  28  32
ATOM     32  S   UNL     1      31.068 -10.974 -21.840  0.00  0.00    -0.060 S 
BRANCH  32  34
ATOM     33  N   UNL     1      32.936  -9.769 -23.342  0.00  0.00    -0.237 NA
ATOM     34  C   UNL     1      32.280  -9.695 -22.163  0.00  0.00    +0.111 C 
ATOM     35  C   UNL     1      32.495  -8.708 -21.216  0.00  0.00    +0.026 C 
ATOM     36  C   UNL     1      33.444  -7.731 -21.498  0.00  0.00    +0.004 C 
ATOM     37  C   UNL     1      34.139  -7.773 -22.701  0.00  0.00    +0.021 C 
ATOM     38  C   UNL     1      33.850  -8.802 -23.582  0.00  0.00    +0.099 C 
ENDBRANCH  32  34
ENDBRANCH  28  32
ENDBRANCH  20  23
ENDBRANCH   4  20
TORSDOF 9
ENDMDL
MODEL 2
REMARK VINA RESULT:     -11.0      2.659      3.521
REMARK  Name = 17758816
REMARK  9 active torsions:
REMARK  status: ('A' for Active; 'I' for Inactive)
REMARK    1  A    between atoms: C_3  and  C_8
REMARK    2  A    between atoms: C_4  and  C_20
REMARK    3  A    between atoms: C_11  and  O_14
REMARK    4  A    between atoms: O_14  and  C_15
REMARK    5  A    between atoms: C_15  and  C_17
REMARK    6  A    between atoms: C_17  and  O_18
REMARK    7  A    between atoms: C_20  and  N_23
REMARK    8  A    between atoms: C_28  and  S_32
REMARK    9  A    between atoms: S_32  and  C_34
REMARK                            x       y       z     vdW  Elec       q    Type
REMARK                         _______ _______ _______ _____ _____    ______ ____
ROOT
ATOM      1  N   UNL     1      34.925 -18.649 -22.480  0.00  0.00    -0.317 N 
ATOM      2  N   UNL     1      37.040 -18.012 -22.714  0.00  0.00    -0.316 N 
ATOM      3  C   UNL     1      35.650 -19.442 -21.635  0.00  0.00    +0.060 C 
ATOM      4  C   UNL     1      35.801 -17.807 -23.107  0.00  0.00    +0.164 C 
ATOM      5  C   UNL     1      36.952 -19.030 -21.799  0.00  0.00    +0.074 C 
ATOM      6  H   UNL     1      33.950 -18.680 -22.613  0.00  0.00    +0.148 HD
ATOM      7  H   UNL     1      37.850 -17.539 -23.013  0.00  0.00    +0.148 HD
ENDROOT
BRANCH   3   8
ATOM      8  C   UNL     1      35.063 -20.461 -20.801  0.00  0.00    +0.015 C 
ATOM      9  C   UNL     1      33.677 -20.533 -20.659  0.00  0.00    +0.004 C 
ATOM     10  C   UNL     1      35.880 -21.375 -20.137  0.00  0.00    +0.004 C 
ATOM     11  C   UNL     1      33.926 -22.434 -19.190  0.00  0.00    +0.139 C 
ATOM     12  C   UNL     1      33.109 -21.520 -19.853  0.00  0.00    +0.037 C 
ATOM     13  C   UNL     1      35.312 -22.362 -19.330  0.00  0.00    +0.037 C 
BRANCH  11  14
ATOM     14  O   UNL     1      33.371 -23.396 -18.403  0.00  0.00    -0.464 OA
BRANCH  14  15
ATOM     15  C   UNL     1      33.055 -23.033 -17.058  0.00  0.00    +0.314 C 
BRANCH  15  17
ATOM     16  O   UNL     1      30.720 -22.443 -17.380  0.00  0.00    -0.246 OA
ATOM     17  C   UNL     1      31.571 -23.134 -16.841  0.00  0.00    +0.359 C 
BRANCH  17  18
ATOM     18  O   UNL     1      31.295 -24.118 -15.947  0.00  0.00    -0.478 OA
ATOM     19  H   UNL     1      30.890 -23.908 -15.129  0.00  0.00    +0.295 HD
ENDBRANCH  17  18
ENDBRANCH  15  17
ENDBRANCH  14  15
ENDBRANCH  11  14
ENDBRANCH   3   8
BRANCH   4  20
ATOM     20  C   UNL     1      35.339 -16.813 -24.092  0.00  0.00    +0.131 C 
BRANCH  20  23
ATOM     21  S   UNL     1      32.469 -11.586 -22.068  0.00  0.00    -0.045 S 
ATOM     22  O   UNL     1      35.074 -14.113 -24.988  0.00  0.00    -0.252 OA
ATOM     23  N   UNL     1      34.603 -15.755 -23.435  0.00  0.00    -0.285 N 
ATOM     24  N   UNL     1      33.750 -13.657 -23.098  0.00  0.00    -0.248 N 
ATOM     25  N   UNL     1      33.829 -11.523 -24.266  0.00  0.00    -0.222 NA
ATOM     26  C   UNL     1      34.525 -14.454 -23.944  0.00  0.00    +0.306 C 
ATOM     27  C   UNL     1      33.450 -12.305 -23.280  0.00  0.00    +0.167 C 
ATOM     28  C   UNL     1      32.548 -10.101 -22.921  0.00  0.00    +0.082 C 
ATOM     29  C   UNL     1      33.310 -10.260 -24.059  0.00  0.00    +0.114 C 
ATOM     30  H   UNL     1      34.138 -15.959 -22.592  0.00  0.00    +0.151 HD
ATOM     31  H   UNL     1      33.380 -14.090 -22.295  0.00  0.00    +0.158 HD
BRANCH  28  32
ATOM     32  S   UNL     1      31.756  -8.642 -22.375  0.00  0.00    -0.060 S 
BRANCH  32  34
ATOM     33  N   UNL     1      31.935  -6.860 -24.372  0.00  0.00    -0.237 NA
ATOM     34  C   UNL     1      32.641  -7.458 -23.386  0.00  0.00    +0.111 C 
ATOM     35  C   UNL     1      33.978  -7.209 -23.129  0.00  0.00    +0.026 C 
ATOM     36  C   UNL     1      34.635  -6.285 -23.934  0.00  0.00    +0.004 C 
ATOM     37  C   UNL     1      33.943  -5.648 -24.958  0.00  0.00    +0.021 C 
ATOM     38  C   UNL     1      32.606  -5.967 -25.134  0.00  0.00    +0.099 C 
ENDBRANCH  32  34
ENDBRANCH  28  32
ENDBRANCH  20  23
ENDBRANCH   4  20
TORSDOF 9
ENDMDL
MODEL 3
REMARK VINA RESULT:     -10.8      2.577      4.006
REMARK  Name = 17758816
REMARK  9 active torsions:
REMARK  status: ('A' for Active; 'I' for Inactive)
REMARK    1  A    between atoms: C_3  and  C_8
REMARK    2  A    between atoms: C_4  and  C_20
REMARK    3  A    between atoms: C_11  and  O_14
REMARK    4  A    between atoms: O_14  and  C_15
REMARK    5  A    between atoms: C_15  and  C_17
REMARK    6  A    between atoms: C_17  and  O_18
REMARK    7  A    between atoms: C_20  and  N_23
REMARK    8  A    between atoms: C_28  and  S_32
REMARK    9  A    between atoms: S_32  and  C_34
REMARK                            x       y       z     vdW  Elec       q    Type
REMARK                         _______ _______ _______ _____ _____    ______ ____
ROOT
ATOM      1  N   UNL     1      35.851 -22.014 -18.414  0.00  0.00    -0.317 N 
ATOM      2  N   UNL     1      34.227 -21.921 -19.925  0.00  0.00    -0.316 N 
ATOM      3  C   UNL     1      34.758 -22.586 -17.825  0.00  0.00    +0.060 C 
ATOM      4  C   UNL     1      35.484 -21.630 -19.673  0.00  0.00    +0.164 C 
ATOM      5  C   UNL     1      33.769 -22.515 -18.777  0.00  0.00    +0.074 C 
ATOM      6  H   UNL     1      36.739 -21.900 -18.005  0.00  0.00    +0.148 HD
ATOM      7  H   UNL     1      33.725 -21.749 -20.755  0.00  0.00    +0.148 HD
ENDROOT
BRANCH   3   8
ATOM      8  C   UNL     1      34.764 -23.113 -16.482  0.00  0.00    +0.015 C 
ATOM      9  C   UNL     1      33.592 -23.634 -15.934  0.00  0.00    +0.004 C 
ATOM     10  C   UNL     1      35.940 -23.103 -15.734  0.00  0.00    +0.004 C 
ATOM     11  C   UNL     1      34.774 -24.136 -13.887  0.00  0.00    +0.139 C 
ATOM     12  C   UNL     1      33.597 -24.146 -14.635  0.00  0.00    +0.037 C 
ATOM     13  C   UNL     1      35.946 -23.613 -14.435  0.00  0.00    +0.037 C 
BRANCH  11  14
ATOM     14  O   UNL     1      34.779 -24.634 -12.620  0.00  0.00    -0.464 OA
BRANCH  14  15
ATOM     15  C   UNL     1      36.044 -25.005 -12.073  0.00  0.00    +0.314 C 
BRANCH  15  17
ATOM     16  O   UNL     1      35.656 -24.616  -9.706  0.00  0.00    -0.246 OA
ATOM     17  C   UNL     1      36.239 -24.333 -10.742  0.00  0.00    +0.359 C 
BRANCH  17  18
ATOM     18  O   UNL     1      37.170 -23.351 -10.845  0.00  0.00    -0.478 OA
ATOM     19  H   UNL     1      37.653 -23.245 -11.641  0.00  0.00    +0.295 HD
ENDBRANCH  17  18
ENDBRANCH  15  17
ENDBRANCH  14  15
ENDBRANCH  11  14
ENDBRANCH   3   8
BRANCH   4  20
ATOM     20  C   UNL     1      36.439 -20.974 -20.585  0.00  0.00    +0.131 C 
BRANCH  20  23
ATOM     21  S   UNL     1      35.024 -15.029 -22.099  0.00  0.00    -0.045 S 
ATOM     22  O   UNL     1      35.731 -19.551 -22.959  0.00  0.00    -0.252 OA
ATOM     23  N   UNL     1      36.150 -19.561 -20.689  0.00  0.00    -0.285 N 
ATOM     24  N   UNL     1      35.589 -17.578 -21.687  0.00  0.00    -0.248 N 
ATOM     25  N   UNL     1      35.034 -16.844 -23.939  0.00  0.00    -0.222 NA
ATOM     26  C   UNL     1      35.811 -18.941 -21.896  0.00  0.00    +0.306 C 
ATOM     27  C   UNL     1      35.230 -16.639 -22.657  0.00  0.00    +0.167 C 
ATOM     28  C   UNL     1      34.638 -14.550 -23.699  0.00  0.00    +0.082 C 
ATOM     29  C   UNL     1      34.694 -15.646 -24.536  0.00  0.00    +0.114 C 
ATOM     30  H   UNL     1      36.195 -19.011 -19.874  0.00  0.00    +0.151 HD
ATOM     31  H   UNL     1      35.694 -17.247 -20.766  0.00  0.00    +0.158 HD
BRANCH  28  32
ATOM     32  S   UNL     1      34.240 -12.906 -24.136  0.00  0.00    -0.060 S 
BRANCH  32  34
ATOM     33  N   UNL     1      32.694 -11.249 -22.701  0.00  0.00    -0.237 NA
ATOM     34  C   UNL     1      33.136 -12.524 -22.779  0.00  0.00    +0.111 C 
ATOM     35  C   UNL     1      32.788 -13.521 -21.884  0.00  0.00    +0.026 C 
ATOM     36  C   UNL     1      31.930 -13.190 -20.841  0.00  0.00    +0.004 C 
ATOM     37  C   UNL     1      31.454 -11.889 -20.727  0.00  0.00    +0.021 C 
ATOM     38  C   UNL     1      31.861 -10.964 -21.675  0.00  0.00    +0.099 C 
ENDBRANCH  32  34
ENDBRANCH  28  32
ENDBRANCH  20  23
ENDBRANCH   4  20
TORSDOF 9
ENDMDL
MODEL 4
REMARK VINA RESULT:     -10.8      2.349      3.138
REMARK  Name = 17758816
REMARK  9 active torsions:
REMARK  status: ('A' for Active; 'I' for Inactive)
REMARK    1  A    between atoms: C_3  and  C_8
REMARK    2  A    between atoms: C_4  and  C_20
REMARK    3  A    between atoms: C_11  and  O_14
REMARK    4  A    between atoms: O_14  and  C_15
REMARK    5  A    between atoms: C_15  and  C_17
REMARK    6  A    between atoms: C_17  and  O_18
REMARK    7  A    between atoms: C_20  and  N_23
REMARK    8  A    between atoms: C_28  and  S_32
REMARK    9  A    between atoms: S_32  and  C_34
REMARK                            x       y       z     vdW  Elec       q    Type
REMARK                         _______ _______ _______ _____ _____    ______ ____
ROOT
ATOM      1  N   UNL     1      35.135 -18.810 -22.376  0.00  0.00    -0.317 N 
ATOM      2  N   UNL     1      37.190 -18.110 -22.844  0.00  0.00    -0.316 N 
ATOM      3  C   UNL     1      35.968 -19.525 -21.562  0.00  0.00    +0.060 C 
ATOM      4  C   UNL     1      35.913 -17.974 -23.127  0.00  0.00    +0.164 C 
ATOM      5  C   UNL     1      37.231 -19.075 -21.870  0.00  0.00    +0.074 C 
ATOM      6  H   UNL     1      34.154 -18.883 -22.414  0.00  0.00    +0.148 HD
ATOM      7  H   UNL     1      37.949 -17.626 -23.243  0.00  0.00    +0.148 HD
ENDROOT
BRANCH   3   8
ATOM      8  C   UNL     1      35.503 -20.515 -20.621  0.00  0.00    +0.015 C 
ATOM      9  C   UNL     1      36.412 -21.159 -19.782  0.00  0.00    +0.004 C 
ATOM     10  C   UNL     1      34.146 -20.827 -20.551  0.00  0.00    +0.004 C 
ATOM     11  C   UNL     1      34.605 -22.428 -18.800  0.00  0.00    +0.139 C 
ATOM     12  C   UNL     1      35.963 -22.116 -18.871  0.00  0.00    +0.037 C 
ATOM     13  C   UNL     1      33.697 -21.784 -19.641  0.00  0.00    +0.037 C 
BRANCH  11  14
ATOM     14  O   UNL     1      34.168 -23.362 -17.913  0.00  0.00    -0.464 OA
BRANCH  14  15
ATOM     15  C   UNL     1      32.877 -23.157 -17.338  0.00  0.00    +0.314 C 
BRANCH  15  17
ATOM     16  O   UNL     1      32.103 -24.128 -15.249  0.00  0.00    -0.246 OA
ATOM     17  C   UNL     1      32.921 -23.463 -15.866  0.00  0.00    +0.359 C 
BRANCH  17  18
ATOM     18  O   UNL     1      34.015 -22.891 -15.303  0.00  0.00    -0.478 OA
ATOM     19  H   UNL     1      33.935 -22.079 -14.843  0.00  0.00    +0.295 HD
ENDBRANCH  17  18
ENDBRANCH  15  17
ENDBRANCH  14  15
ENDBRANCH  11  14
ENDBRANCH   3   8
BRANCH   4  20
ATOM     20  C   UNL     1      35.320 -17.055 -24.116  0.00  0.00    +0.131 C 
BRANCH  20  23
ATOM     21  S   UNL     1      32.367 -11.905 -22.019  0.00  0.00    -0.045 S 
ATOM     22  O   UNL     1      35.107 -14.319 -24.910  0.00  0.00    -0.252 OA
ATOM     23  N   UNL     1      34.556 -16.023 -23.453  0.00  0.00    -0.285 N 
ATOM     24  N   UNL     1      33.692 -13.936 -23.070  0.00  0.00    -0.248 N 
ATOM     25  N   UNL     1      33.834 -11.756 -24.143  0.00  0.00    -0.222 NA
ATOM     26  C   UNL     1      34.506 -14.701 -23.910  0.00  0.00    +0.306 C 
ATOM     27  C   UNL     1      33.405 -12.576 -23.210  0.00  0.00    +0.167 C 
ATOM     28  C   UNL     1      32.492 -10.386 -22.803  0.00  0.00    +0.082 C 
ATOM     29  C   UNL     1      33.309 -10.501 -23.908  0.00  0.00    +0.114 C 
ATOM     30  H   UNL     1      34.048 -16.260 -22.643  0.00  0.00    +0.151 HD
ATOM     31  H   UNL     1      33.282 -14.401 -22.305  0.00  0.00    +0.158 HD
BRANCH  28  32
ATOM     32  S   UNL     1      31.677  -8.948 -22.236  0.00  0.00    -0.060 S 
BRANCH  32  34
ATOM     33  N   UNL     1      33.884  -7.565 -22.878  0.00  0.00    -0.237 NA
ATOM     34  C   UNL     1      32.580  -7.730 -23.191  0.00  0.00    +0.111 C 
ATOM     35  C   UNL     1      31.924  -7.022 -24.183  0.00  0.00    +0.026 C 
ATOM     36  C   UNL     1      32.654  -6.083 -24.904  0.00  0.00    +0.004 C 
ATOM     37  C   UNL     1      33.999  -5.884 -24.613  0.00  0.00    +0.021 C 
ATOM     38  C   UNL     1      34.562  -6.644 -23.600  0.00  0.00    +0.099 C 
ENDBRANCH  32  34
ENDBRANCH  28  32
ENDBRANCH  20  23
ENDBRANCH   4  20
TORSDOF 9
ENDMDL
MODEL 5
REMARK VINA RESULT:     -10.8      1.035      1.249
REMARK  Name = 17758816
REMARK  9 active torsions:
REMARK  status: ('A' for Active; 'I' for Inactive)
REMARK    1  A    between atoms: C_3  and  C_8
REMARK    2  A    between atoms: C_4  and  C_20
REMARK    3  A    between atoms: C_11  and  O_14
REMARK    4  A    between atoms: O_14  and  C_15
REMARK    5  A    between atoms: C_15  and  C_17
REMARK    6  A    between atoms: C_17  and  O_18
REMARK    7  A    between atoms: C_20  and  N_23
REMARK    8  A    between atoms: C_28  and  S_32
REMARK    9  A    between atoms: S_32  and  C_34
REMARK                            x       y       z     vdW  Elec       q    Type
REMARK                         _______ _______ _______ _____ _____    ______ ____
ROOT
ATOM      1  N   UNL     1      36.042 -19.130 -21.569  0.00  0.00    -0.317 N 
ATOM      2  N   UNL     1      34.719 -19.144 -23.352  0.00  0.00    -0.316 N 
ATOM      3  C   UNL     1      35.174 -20.169 -21.383  0.00  0.00    +0.060 C 
ATOM      4  C   UNL     1      35.731 -18.544 -22.764  0.00  0.00    +0.164 C 
ATOM      5  C   UNL     1      34.367 -20.156 -22.497  0.00  0.00    +0.074 C 
ATOM      6  H   UNL     1      36.760 -18.855 -20.955  0.00  0.00    +0.148 HD
ATOM      7  H   UNL     1      34.306 -18.916 -24.217  0.00  0.00    +0.148 HD
ENDROOT
BRANCH   3   8
ATOM      8  C   UNL     1      35.196 -21.025 -20.222  0.00  0.00    +0.015 C 
ATOM      9  C   UNL     1      34.030 -21.672 -19.812  0.00  0.00    +0.004 C 
ATOM     10  C   UNL     1      36.381 -21.206 -19.512  0.00  0.00    +0.004 C 
ATOM     11  C   UNL     1      35.238 -22.683 -17.980  0.00  0.00    +0.139 C 
ATOM     12  C   UNL     1      34.051 -22.501 -18.690  0.00  0.00    +0.037 C 
ATOM     13  C   UNL     1      36.403 -22.035 -18.390  0.00  0.00    +0.037 C 
BRANCH  11  14
ATOM     14  O   UNL     1      35.258 -23.492 -16.885  0.00  0.00    -0.464 OA
BRANCH  14  15
ATOM     15  C   UNL     1      35.767 -22.933 -15.674  0.00  0.00    +0.314 C 
BRANCH  15  17
ATOM     16  O   UNL     1      37.943 -23.173 -14.618  0.00  0.00    -0.246 OA
ATOM     17  C   UNL     1      37.029 -23.648 -15.275  0.00  0.00    +0.359 C 
BRANCH  17  18
ATOM     18  O   UNL     1      37.016 -24.918 -15.751  0.00  0.00    -0.478 OA
ATOM     19  H   UNL     1      36.564 -25.117 -16.547  0.00  0.00    +0.295 HD
ENDBRANCH  17  18
ENDBRANCH  15  17
ENDBRANCH  14  15
ENDBRANCH  11  14
ENDBRANCH   3   8
BRANCH   4  20
ATOM     20  C   UNL     1      36.486 -17.383 -23.269  0.00  0.00    +0.131 C 
BRANCH  20  23
ATOM     21  S   UNL     1      32.609 -12.481 -22.502  0.00  0.00    -0.045 S 
ATOM     22  O   UNL     1      35.021 -16.215 -21.112  0.00  0.00    -0.252 OA
ATOM     23  N   UNL     1      35.632 -16.217 -23.338  0.00  0.00    -0.285 N 
ATOM     24  N   UNL     1      34.207 -14.584 -22.599  0.00  0.00    -0.248 N 
ATOM     25  N   UNL     1      33.178 -13.984 -20.477  0.00  0.00    -0.222 NA
ATOM     26  C   UNL     1      34.948 -15.709 -22.229  0.00  0.00    +0.306 C 
ATOM     27  C   UNL     1      33.400 -13.812 -21.761  0.00  0.00    +0.167 C 
ATOM     28  C   UNL     1      31.903 -12.090 -20.990  0.00  0.00    +0.082 C 
ATOM     29  C   UNL     1      32.320 -12.996 -20.036  0.00  0.00    +0.114 C 
ATOM     30  H   UNL     1      35.528 -15.761 -24.205  0.00  0.00    +0.151 HD
ATOM     31  H   UNL     1      34.259 -14.308 -23.543  0.00  0.00    +0.158 HD
BRANCH  28  32
ATOM     32  S   UNL     1      30.827 -10.733 -20.758  0.00  0.00    -0.060 S 
BRANCH  32  34
ATOM     33  N   UNL     1      32.581  -8.761 -20.276  0.00  0.00    -0.237 NA
ATOM     34  C   UNL     1      31.935  -9.419 -21.264  0.00  0.00    +0.111 C 
ATOM     35  C   UNL     1      32.082  -9.134 -22.611  0.00  0.00    +0.026 C 
ATOM     36  C   UNL     1      32.949  -8.107 -22.969  0.00  0.00    +0.004 C 
ATOM     37  C   UNL     1      33.632  -7.407 -21.981  0.00  0.00    +0.021 C 
ATOM     38  C   UNL     1      33.416  -7.769 -20.662  0.00  0.00    +0.099 C 
ENDBRANCH  32  34
ENDBRANCH  28  32
ENDBRANCH  20  23
ENDBRANCH   4  20
TORSDOF 9
ENDMDL
MODEL 6
REMARK VINA RESULT:     -10.7      4.159     11.994
REMARK  Name = 17758816
REMARK  9 active torsions:
REMARK  status: ('A' for Active; 'I' for Inactive)
REMARK    1  A    between atoms: C_3  and  C_8
REMARK    2  A    between atoms: C_4  and  C_20
REMARK    3  A    between atoms: C_11  and  O_14
REMARK    4  A    between atoms: O_14  and  C_15
REMARK    5  A    between atoms: C_15  and  C_17
REMARK    6  A    between atoms: C_17  and  O_18
REMARK    7  A    between atoms: C_20  and  N_23
REMARK    8  A    between atoms: C_28  and  S_32
REMARK    9  A    between atoms: S_32  and  C_34
REMARK                            x       y       z     vdW  Elec       q    Type
REMARK                         _______ _______ _______ _____ _____    ______ ____
ROOT
ATOM      1  N   UNL     1      35.248 -16.368 -22.387  0.00  0.00    -0.317 N 
ATOM      2  N   UNL     1      35.673 -16.692 -24.542  0.00  0.00    -0.316 N 
ATOM      3  C   UNL     1      34.582 -15.377 -23.053  0.00  0.00    +0.060 C 
ATOM      4  C   UNL     1      35.888 -17.133 -23.322  0.00  0.00    +0.164 C 
ATOM      5  C   UNL     1      34.861 -15.598 -24.381  0.00  0.00    +0.074 C 
ATOM      6  H   UNL     1      35.262 -16.506 -21.413  0.00  0.00    +0.148 HD
ATOM      7  H   UNL     1      36.019 -17.066 -25.385  0.00  0.00    +0.148 HD
ENDROOT
BRANCH   3   8
ATOM      8  C   UNL     1      33.789 -14.369 -22.392  0.00  0.00    +0.015 C 
ATOM      9  C   UNL     1      33.458 -14.516 -21.046  0.00  0.00    +0.004 C 
ATOM     10  C   UNL     1      33.356 -13.249 -23.100  0.00  0.00    +0.004 C 
ATOM     11  C   UNL     1      32.259 -12.419 -21.114  0.00  0.00    +0.139 C 
ATOM     12  C   UNL     1      32.692 -13.540 -20.406  0.00  0.00    +0.037 C 
ATOM     13  C   UNL     1      32.591 -12.273 -22.461  0.00  0.00    +0.037 C 
BRANCH  11  14
ATOM     14  O   UNL     1      31.512 -11.468 -20.491  0.00  0.00    -0.464 OA
BRANCH  14  15
ATOM     15  C   UNL     1      31.628 -10.129 -20.975  0.00  0.00    +0.314 C 
BRANCH  15  17
ATOM     16  O   UNL     1      32.898  -8.211 -20.195  0.00  0.00    -0.246 OA
ATOM     17  C   UNL     1      32.366  -9.288 -19.971  0.00  0.00    +0.359 C 
BRANCH  17  18
ATOM     18  O   UNL     1      32.362  -9.895 -18.758  0.00  0.00    -0.478 OA
ATOM     19  H   UNL     1      32.291 -10.827 -18.701  0.00  0.00    +0.295 HD
ENDBRANCH  17  18
ENDBRANCH  15  17
ENDBRANCH  14  15
ENDBRANCH  11  14
ENDBRANCH   3   8
BRANCH   4  20
ATOM     20  C   UNL     1      36.703 -18.298 -22.934  0.00  0.00    +0.131 C 
BRANCH  20  23
ATOM     21  S   UNL     1      34.154 -22.357 -18.850  0.00  0.00    -0.045 S 
ATOM     22  O   UNL     1      37.500 -19.570 -20.502  0.00  0.00    -0.252 OA
ATOM     23  N   UNL     1      35.919 -19.225 -22.149  0.00  0.00    -0.285 N 
ATOM     24  N   UNL     1      35.413 -20.653 -20.431  0.00  0.00    -0.248 N 
ATOM     25  N   UNL     1      36.543 -21.461 -18.433  0.00  0.00    -0.222 NA
ATOM     26  C   UNL     1      36.387 -19.805 -20.965  0.00  0.00    +0.306 C 
ATOM     27  C   UNL     1      35.522 -21.402 -19.257  0.00  0.00    +0.167 C 
ATOM     28  C   UNL     1      34.984 -22.903 -17.453  0.00  0.00    +0.082 C 
ATOM     29  C   UNL     1      36.233 -22.322 -17.398  0.00  0.00    +0.114 C 
ATOM     30  H   UNL     1      35.015 -19.458 -22.461  0.00  0.00    +0.151 HD
ATOM     31  H   UNL     1      34.568 -20.729 -20.930  0.00  0.00    +0.158 HD
BRANCH  28  32
ATOM     32  S   UNL     1      34.290 -24.027 -16.308  0.00  0.00    -0.060 S 
BRANCH  32  34
ATOM     33  N   UNL     1      36.551 -25.331 -15.688  0.00  0.00    -0.237 NA
ATOM     34  C   UNL     1      35.742 -24.319 -15.301  0.00  0.00    +0.111 C 
ATOM     35  C   UNL     1      35.973 -23.522 -14.193  0.00  0.00    +0.026 C 
ATOM     36  C   UNL     1      37.109 -23.777 -13.432  0.00  0.00    +0.004 C 
ATOM     37  C   UNL     1      37.966 -24.809 -13.798  0.00  0.00    +0.021 C 
ATOM     38  C   UNL     1      37.646 -25.549 -14.925  0.00  0.00    +0.099 C 
ENDBRANCH  32  34
ENDBRANCH  28  32
ENDBRANCH  20  23
ENDBRANCH   4  20
TORSDOF 9
ENDMDL
MODEL 7
REMARK VINA RESULT:     -10.7      1.756      2.597
REMARK  Name = 17758816
REMARK  9 active torsions:
REMARK  status: ('A' for Active; 'I' for Inactive)
REMARK    1  A    between atoms: C_3  and  C_8
REMARK    2  A    between atoms: C_4  and  C_20
REMARK    3  A    between atoms: C_11  and  O_14
REMARK    4  A    between atoms: O_14  and  C_15
REMARK    5  A    between atoms: C_15  and  C_17
REMARK    6  A    between atoms: C_17  and  O_18
REMARK    7  A    between atoms: C_20  and  N_23
REMARK    8  A    between atoms: C_28  and  S_32
REMARK    9  A    between atoms: S_32  and  C_34
REMARK                            x       y       z     vdW  Elec       q    Type
REMARK                         _______ _______ _______ _____ _____    ______ ____
ROOT
ATOM      1  N   UNL     1      36.371 -20.539 -19.997  0.00  0.00    -0.317 N 
ATOM      2  N   UNL     1      34.417 -20.478 -21.049  0.00  0.00    -0.316 N 
ATOM      3  C   UNL     1      35.539 -21.358 -19.287  0.00  0.00    +0.060 C 
ATOM      4  C   UNL     1      35.655 -20.033 -21.045  0.00  0.00    +0.164 C 
ATOM      5  C   UNL     1      34.338 -21.302 -19.956  0.00  0.00    +0.074 C 
ATOM      6  H   UNL     1      37.315 -20.349 -19.791  0.00  0.00    +0.148 HD
ATOM      7  H   UNL     1      33.705 -20.265 -21.694  0.00  0.00    +0.148 HD
ENDROOT
BRANCH   3   8
ATOM      8  C   UNL     1      35.946 -22.073 -18.102  0.00  0.00    +0.015 C 
ATOM      9  C   UNL     1      37.273 -22.015 -17.676  0.00  0.00    +0.004 C 
ATOM     10  C   UNL     1      35.014 -22.820 -17.384  0.00  0.00    +0.004 C 
ATOM     11  C   UNL     1      36.735 -23.453 -15.810  0.00  0.00    +0.139 C 
ATOM     12  C   UNL     1      37.667 -22.706 -16.529  0.00  0.00    +0.037 C 
ATOM     13  C   UNL     1      35.408 -23.511 -16.237  0.00  0.00    +0.037 C 
BRANCH  11  14
ATOM     14  O   UNL     1      37.119 -24.127 -14.692  0.00  0.00    -0.464 OA
BRANCH  14  15
ATOM     15  C   UNL     1      36.546 -25.418 -14.482  0.00  0.00    +0.314 C 
BRANCH  15  17
ATOM     16  O   UNL     1      36.518 -27.152 -16.183  0.00  0.00    -0.246 OA
ATOM     17  C   UNL     1      37.143 -26.402 -15.449  0.00  0.00    +0.359 C 
BRANCH  17  18
ATOM     18  O   UNL     1      38.498 -26.345 -15.398  0.00  0.00    -0.478 OA
ATOM     19  H   UNL     1      38.978 -27.006 -14.940  0.00  0.00    +0.295 HD
ENDBRANCH  17  18
ENDBRANCH  15  17
ENDBRANCH  14  15
ENDBRANCH  11  14
ENDBRANCH   3   8
BRANCH   4  20
ATOM     20  C   UNL     1      36.264 -19.107 -22.016  0.00  0.00    +0.131 C 
BRANCH  20  23
ATOM     21  S   UNL     1      34.112 -13.191 -22.140  0.00  0.00    -0.045 S 
ATOM     22  O   UNL     1      35.464 -17.232 -24.019  0.00  0.00    -0.252 OA
ATOM     23  N   UNL     1      35.790 -17.759 -21.794  0.00  0.00    -0.285 N 
ATOM     24  N   UNL     1      35.003 -15.673 -22.319  0.00  0.00    -0.248 N 
ATOM     25  N   UNL     1      34.443 -14.472 -24.360  0.00  0.00    -0.222 NA
ATOM     26  C   UNL     1      35.417 -16.903 -22.836  0.00  0.00    +0.306 C 
ATOM     27  C   UNL     1      34.559 -14.572 -23.055  0.00  0.00    +0.167 C 
ATOM     28  C   UNL     1      33.729 -12.378 -23.600  0.00  0.00    +0.082 C 
ATOM     29  C   UNL     1      33.967 -13.214 -24.671  0.00  0.00    +0.114 C 
ATOM     30  H   UNL     1      35.726 -17.428 -20.869  0.00  0.00    +0.151 HD
ATOM     31  H   UNL     1      35.026 -15.572 -21.340  0.00  0.00    +0.158 HD
BRANCH  28  32
ATOM     32  S   UNL     1      33.129 -10.738 -23.653  0.00  0.00    -0.060 S 
BRANCH  32  34
ATOM     33  N   UNL     1      31.304 -11.639 -21.905  0.00  0.00    -0.237 NA
ATOM     34  C   UNL     1      32.272 -10.712 -22.080  0.00  0.00    +0.111 C 
ATOM     35  C   UNL     1      32.622  -9.768 -21.130  0.00  0.00    +0.026 C 
ATOM     36  C   UNL     1      31.935  -9.774 -19.921  0.00  0.00    +0.004 C 
ATOM     37  C   UNL     1      30.933 -10.713 -19.703  0.00  0.00    +0.021 C 
ATOM     38  C   UNL     1      30.658 -11.616 -20.717  0.00  0.00    +0.099 C 
ENDBRANCH  32  34
ENDBRANCH  28  32
ENDBRANCH  20  23
ENDBRANCH   4  20
TORSDOF 9
ENDMDL
MODEL 8
REMARK VINA RESULT:     -10.7      4.538      7.106
REMARK  Name = 17758816
REMARK  9 active torsions:
REMARK  status: ('A' for Active; 'I' for Inactive)
REMARK    1  A    between atoms: C_3  and  C_8
REMARK    2  A    between atoms: C_4  and  C_20
REMARK    3  A    between atoms: C_11  and  O_14
REMARK    4  A    between atoms: O_14  and  C_15
REMARK    5  A    between atoms: C_15  and  C_17
REMARK    6  A    between atoms: C_17  and  O_18
REMARK    7  A    between atoms: C_20  and  N_23
REMARK    8  A    between atoms: C_28  and  S_32
REMARK    9  A    between atoms: S_32  and  C_34
REMARK                            x       y       z     vdW  Elec       q    Type
REMARK                         _______ _______ _______ _____ _____    ______ ____
ROOT
ATOM      1  N   UNL     1      34.793 -22.613 -16.894  0.00  0.00    -0.317 N 
ATOM      2  N   UNL     1      36.347 -23.234 -15.435  0.00  0.00    -0.316 N 
ATOM      3  C   UNL     1      34.116 -23.102 -15.812  0.00  0.00    +0.060 C 
ATOM      4  C   UNL     1      36.129 -22.713 -16.622  0.00  0.00    +0.164 C 
ATOM      5  C   UNL     1      35.098 -23.480 -14.926  0.00  0.00    +0.074 C 
ATOM      6  H   UNL     1      34.391 -22.255 -17.718  0.00  0.00    +0.148 HD
ATOM      7  H   UNL     1      37.216 -23.410 -15.007  0.00  0.00    +0.148 HD
ENDROOT
BRANCH   3   8
ATOM      8  C   UNL     1      32.677 -23.160 -15.734  0.00  0.00    +0.015 C 
ATOM      9  C   UNL     1      31.909 -22.977 -16.884  0.00  0.00    +0.004 C 
ATOM     10  C   UNL     1      32.054 -23.400 -14.510  0.00  0.00    +0.004 C 
ATOM     11  C   UNL     1      29.894 -23.276 -15.584  0.00  0.00    +0.139 C 
ATOM     12  C   UNL     1      30.517 -23.034 -16.809  0.00  0.00    +0.037 C 
ATOM     13  C   UNL     1      30.662 -23.458 -14.434  0.00  0.00    +0.037 C 
BRANCH  11  14
ATOM     14  O   UNL     1      28.536 -23.331 -15.511  0.00  0.00    -0.464 OA
BRANCH  14  15
ATOM     15  C   UNL     1      27.817 -23.282 -16.744  0.00  0.00    +0.314 C 
BRANCH  15  17
ATOM     16  O   UNL     1      26.822 -21.193 -17.487  0.00  0.00    -0.246 OA
ATOM     17  C   UNL     1      26.838 -22.141 -16.716  0.00  0.00    +0.359 C 
BRANCH  17  18
ATOM     18  O   UNL     1      25.953 -22.308 -15.700  0.00  0.00    -0.478 OA
ATOM     19  H   UNL     1      26.114 -22.953 -15.040  0.00  0.00    +0.295 HD
ENDBRANCH  17  18
ENDBRANCH  15  17
ENDBRANCH  14  15
ENDBRANCH  11  14
ENDBRANCH   3   8
BRANCH   4  20
ATOM     20  C   UNL     1      37.145 -22.267 -17.592  0.00  0.00    +0.131 C 
BRANCH  20  23
ATOM     21  S   UNL     1      35.022 -19.589 -22.881  0.00  0.00    -0.045 S 
ATOM     22  O   UNL     1      37.598 -19.826 -19.008  0.00  0.00    -0.252 OA
ATOM     23  N   UNL     1      36.518 -21.859 -18.830  0.00  0.00    -0.285 N 
ATOM     24  N   UNL     1      36.044 -20.525 -20.630  0.00  0.00    -0.248 N 
ATOM     25  N   UNL     1      36.771 -18.347 -21.437  0.00  0.00    -0.222 NA
ATOM     26  C   UNL     1      36.798 -20.641 -19.459  0.00  0.00    +0.306 C 
ATOM     27  C   UNL     1      36.059 -19.448 -21.520  0.00  0.00    +0.167 C 
ATOM     28  C   UNL     1      35.558 -18.051 -23.416  0.00  0.00    +0.082 C 
ATOM     29  C   UNL     1      36.483 -17.547 -22.526  0.00  0.00    +0.114 C 
ATOM     30  H   UNL     1      35.865 -22.466 -19.249  0.00  0.00    +0.151 HD
ATOM     31  H   UNL     1      35.446 -21.275 -20.850  0.00  0.00    +0.158 HD
BRANCH  28  32
ATOM     32  S   UNL     1      34.982 -17.295 -24.882  0.00  0.00    -0.060 S 
BRANCH  32  34
ATOM     33  N   UNL     1      34.103 -14.769 -25.092  0.00  0.00    -0.237 NA
ATOM     34  C   UNL     1      34.612 -15.671 -24.223  0.00  0.00    +0.111 C 
ATOM     35  C   UNL     1      34.856 -15.408 -22.886  0.00  0.00    +0.026 C 
ATOM     36  C   UNL     1      34.559 -14.137 -22.407  0.00  0.00    +0.004 C 
ATOM     37  C   UNL     1      34.034 -13.181 -23.270  0.00  0.00    +0.021 C 
ATOM     38  C   UNL     1      33.826 -13.544 -24.591  0.00  0.00    +0.099 C 
ENDBRANCH  32  34
ENDBRANCH  28  32
ENDBRANCH  20  23
ENDBRANCH   4  20
TORSDOF 9
ENDMDL
MODEL 9
REMARK VINA RESULT:     -10.3      1.663      2.070
REMARK  Name = 17758816
REMARK  9 active torsions:
REMARK  status: ('A' for Active; 'I' for Inactive)
REMARK    1  A    between atoms: C_3  and  C_8
REMARK    2  A    between atoms: C_4  and  C_20
REMARK    3  A    between atoms: C_11  and  O_14
REMARK    4  A    between atoms: O_14  and  C_15
REMARK    5  A    between atoms: C_15  and  C_17
REMARK    6  A    between atoms: C_17  and  O_18
REMARK    7  A    between atoms: C_20  and  N_23
REMARK    8  A    between atoms: C_28  and  S_32
REMARK    9  A    between atoms: S_32  and  C_34
REMARK                            x       y       z     vdW  Elec       q    Type
REMARK                         _______ _______ _______ _____ _____    ______ ____
ROOT
ATOM      1  N   UNL     1      36.748 -20.229 -19.593  0.00  0.00    -0.317 N 
ATOM      2  N   UNL     1      35.316 -20.749 -21.207  0.00  0.00    -0.316 N 
ATOM      3  C   UNL     1      36.135 -21.382 -19.191  0.00  0.00    +0.060 C 
ATOM      4  C   UNL     1      36.225 -19.886 -20.808  0.00  0.00    +0.164 C 
ATOM      5  C   UNL     1      35.255 -21.682 -20.205  0.00  0.00    +0.074 C 
ATOM      6  H   UNL     1      37.441 -19.735 -19.097  0.00  0.00    +0.148 HD
ATOM      7  H   UNL     1      34.794 -20.728 -22.042  0.00  0.00    +0.148 HD
ENDROOT
BRANCH   3   8
ATOM      8  C   UNL     1      36.431 -22.049 -17.947  0.00  0.00    +0.015 C 
ATOM      9  C   UNL     1      35.432 -22.759 -17.282  0.00  0.00    +0.004 C 
ATOM     10  C   UNL     1      37.716 -21.984 -17.410  0.00  0.00    +0.004 C 
ATOM     11  C   UNL     1      37.003 -23.341 -15.542  0.00  0.00    +0.139 C 
ATOM     12  C   UNL     1      35.718 -23.405 -16.079  0.00  0.00    +0.037 C 
ATOM     13  C   UNL     1      38.003 -22.630 -16.207  0.00  0.00    +0.037 C 
BRANCH  11  14
ATOM     14  O   UNL     1      37.282 -23.970 -14.368  0.00  0.00    -0.464 OA
BRANCH  14  15
ATOM     15  C   UNL     1      36.947 -23.279 -13.165  0.00  0.00    +0.314 C 
BRANCH  15  17
ATOM     16  O   UNL     1      37.217 -24.305 -10.979  0.00  0.00    -0.246 OA
ATOM     17  C   UNL     1      37.707 -23.871 -12.010  0.00  0.00    +0.359 C 
BRANCH  17  18
ATOM     18  O   UNL     1      39.039 -23.861 -12.272  0.00  0.00    -0.478 OA
ATOM     19  H   UNL     1      39.474 -23.052 -12.455  0.00  0.00    +0.295 HD
ENDBRANCH  17  18
ENDBRANCH  15  17
ENDBRANCH  14  15
ENDBRANCH  11  14
ENDBRANCH   3   8
BRANCH   4  20
ATOM     20  C   UNL     1      36.675 -18.680 -21.526  0.00  0.00    +0.131 C 
BRANCH  20  23
ATOM     21  S   UNL     1      33.117 -13.514 -20.977  0.00  0.00    -0.045 S 
ATOM     22  O   UNL     1      35.521 -16.759 -23.298  0.00  0.00    -0.252 OA
ATOM     23  N   UNL     1      35.868 -17.539 -21.153  0.00  0.00    -0.285 N 
ATOM     24  N   UNL     1      34.608 -15.648 -21.436  0.00  0.00    -0.248 N 
ATOM     25  N   UNL     1      33.857 -14.308 -23.324  0.00  0.00    -0.222 NA
ATOM     26  C   UNL     1      35.340 -16.643 -22.089  0.00  0.00    +0.306 C 
ATOM     27  C   UNL     1      33.936 -14.584 -22.041  0.00  0.00    +0.167 C 
ATOM     28  C   UNL     1      32.608 -12.596 -22.332  0.00  0.00    +0.082 C 
ATOM     29  C   UNL     1      33.095 -13.168 -23.489  0.00  0.00    +0.114 C 
ATOM     30  H   UNL     1      35.682 -17.386 -20.199  0.00  0.00    +0.151 HD
ATOM     31  H   UNL     1      34.561 -15.702 -20.454  0.00  0.00    +0.158 HD
BRANCH  28  32
ATOM     32  S   UNL     1      31.618 -11.162 -22.198  0.00  0.00    -0.060 S 
BRANCH  32  34
ATOM     33  N   UNL     1      33.675 -10.380 -23.734  0.00  0.00    -0.237 NA
ATOM     34  C   UNL     1      32.804  -9.957 -22.790  0.00  0.00    +0.111 C 
ATOM     35  C   UNL     1      32.787  -8.674 -22.270  0.00  0.00    +0.026 C 
ATOM     36  C   UNL     1      33.723  -7.764 -22.750  0.00  0.00    +0.004 C 
ATOM     37  C   UNL     1      34.634  -8.161 -23.721  0.00  0.00    +0.021 C 
ATOM     38  C   UNL     1      34.569  -9.468 -24.177  0.00  0.00    +0.099 C 
ENDBRANCH  32  34
ENDBRANCH  28  32
ENDBRANCH  20  23
ENDBRANCH   4  20
TORSDOF 9
ENDMDL
