MODEL 1
REMARK VINA RESULT:     -11.4      0.000      0.000
REMARK  Name = 5326930
REMARK  4 active torsions:
REMARK  status: ('A' for Active; 'I' for Inactive)
REMARK    1  A    between atoms: C_7  and  C_21
REMARK    2  A    between atoms: C_21  and  C_22
REMARK    3  A    between atoms: C_22  and  C_23
REMARK    4  A    between atoms: C_28  and  O_29
REMARK                            x       y       z     vdW  Elec       q    Type
REMARK                         _______ _______ _______ _____ _____    ______ ____
ROOT
ATOM      1  O   UNL     1      34.927 -25.013 -12.117  0.00  0.00    -0.209 OA
ATOM      2  N   UNL     1      34.907 -23.090 -15.631  0.00  0.00    -0.275 N 
ATOM      3  N   UNL     1      30.110 -25.367 -14.188  0.00  0.00    -0.315 N 
ATOM      4  N   UNL     1      30.132 -24.292 -16.132  0.00  0.00    -0.316 N 
ATOM      5  N   UNL     1      36.075 -23.798 -13.683  0.00  0.00    -0.302 NA
ATOM      6  N   UNL     1      37.119 -22.549 -15.368  0.00  0.00    -0.320 N 
ATOM      7  C   UNL     1      32.555 -23.610 -16.011  0.00  0.00    +0.007 C 
ATOM      8  C   UNL     1      33.711 -23.687 -15.219  0.00  0.00    +0.060 C 
ATOM      9  C   UNL     1      31.377 -24.226 -15.551  0.00  0.00    +0.056 C 
ATOM     10  C   UNL     1      31.391 -24.894 -14.330  0.00  0.00    +0.060 C 
ATOM     11  C   UNL     1      33.684 -24.369 -13.992  0.00  0.00    +0.109 C 
ATOM     12  C   UNL     1      32.520 -24.990 -13.517  0.00  0.00    +0.029 C 
ATOM     13  C   UNL     1      34.941 -24.419 -13.191  0.00  0.00    +0.208 C 
ATOM     14  C   UNL     1      29.398 -24.982 -15.289  0.00  0.00    +0.182 C 
ATOM     15  C   UNL     1      36.025 -23.182 -14.834  0.00  0.00    +0.248 C 
ATOM     16  H   UNL     1      34.948 -22.607 -16.488  0.00  0.00    +0.156 HD
ATOM     17  H   UNL     1      29.768 -25.891 -13.428  0.00  0.00    +0.148 HD
ATOM     18  H   UNL     1      29.851 -23.905 -16.993  0.00  0.00    +0.148 HD
ATOM     19  H   UNL     1      37.049 -22.093 -16.237  0.00  0.00    +0.146 HD
ATOM     20  H   UNL     1      37.975 -22.551 -14.881  0.00  0.00    +0.146 HD
ENDROOT
BRANCH   7  21
ATOM     21  C   UNL     1      32.575 -22.885 -17.319  0.00  0.00    +0.034 C 
BRANCH  21  22
ATOM     22  C   UNL     1      33.686 -23.356 -18.276  0.00  0.00    +0.031 C 
BRANCH  22  23
ATOM     23  C   UNL     1      34.170 -22.272 -19.207  0.00  0.00    -0.022 C 
ATOM     24  C   UNL     1      35.531 -22.107 -19.408  0.00  0.00    -0.001 C 
ATOM     25  C   UNL     1      33.245 -21.460 -19.843  0.00  0.00    -0.001 C 
ATOM     26  C   UNL     1      35.980 -21.105 -20.268  0.00  0.00    +0.037 C 
ATOM     27  C   UNL     1      33.694 -20.457 -20.704  0.00  0.00    +0.037 C 
ATOM     28  C   UNL     1      35.061 -20.280 -20.916  0.00  0.00    +0.139 C 
BRANCH  28  29
ATOM     29  O   UNL     1      35.498 -19.301 -21.755  0.00  0.00    -0.471 OA
ATOM     30  C   UNL     1      35.073 -19.373 -23.115  0.00  0.00    +0.252 C 
ENDBRANCH  28  29
ENDBRANCH  22  23
ENDBRANCH  21  22
ENDBRANCH   7  21
TORSDOF 4
ENDMDL
MODEL 2
REMARK VINA RESULT:     -11.2      1.788      4.237
REMARK  Name = 5326930
REMARK  4 active torsions:
REMARK  status: ('A' for Active; 'I' for Inactive)
REMARK    1  A    between atoms: C_7  and  C_21
REMARK    2  A    between atoms: C_21  and  C_22
REMARK    3  A    between atoms: C_22  and  C_23
REMARK    4  A    between atoms: C_28  and  O_29
REMARK                            x       y       z     vdW  Elec       q    Type
REMARK                         _______ _______ _______ _____ _____    ______ ____
ROOT
ATOM      1  O   UNL     1      28.820 -25.670 -14.298  0.00  0.00    -0.209 OA
ATOM      2  N   UNL     1      30.007 -23.140 -17.168  0.00  0.00    -0.275 N 
ATOM      3  N   UNL     1      34.034 -25.101 -13.973  0.00  0.00    -0.315 N 
ATOM      4  N   UNL     1      34.660 -23.695 -15.575  0.00  0.00    -0.316 N 
ATOM      5  N   UNL     1      28.262 -24.322 -16.063  0.00  0.00    -0.302 NA
ATOM      6  N   UNL     1      27.842 -22.907 -17.883  0.00  0.00    -0.320 N 
ATOM      7  C   UNL     1      32.344 -23.318 -16.492  0.00  0.00    +0.007 C 
ATOM      8  C   UNL     1      30.994 -23.667 -16.328  0.00  0.00    +0.060 C 
ATOM      9  C   UNL     1      33.298 -23.875 -15.621  0.00  0.00    +0.056 C 
ATOM     10  C   UNL     1      32.879 -24.752 -14.626  0.00  0.00    +0.060 C 
ATOM     11  C   UNL     1      30.611 -24.556 -15.312  0.00  0.00    +0.109 C 
ATOM     12  C   UNL     1      31.547 -25.122 -14.434  0.00  0.00    +0.029 C 
ATOM     13  C   UNL     1      29.164 -24.893 -15.184  0.00  0.00    +0.208 C 
ATOM     14  C   UNL     1      35.070 -24.444 -14.576  0.00  0.00    +0.182 C 
ATOM     15  C   UNL     1      28.692 -23.501 -16.985  0.00  0.00    +0.248 C 
ATOM     16  H   UNL     1      30.254 -22.515 -17.887  0.00  0.00    +0.156 HD
ATOM     17  H   UNL     1      34.104 -25.714 -13.206  0.00  0.00    +0.148 HD
ATOM     18  H   UNL     1      35.210 -23.129 -16.164  0.00  0.00    +0.148 HD
ATOM     19  H   UNL     1      28.197 -22.293 -18.566  0.00  0.00    +0.146 HD
ATOM     20  H   UNL     1      26.875 -23.094 -17.843  0.00  0.00    +0.146 HD
ENDROOT
BRANCH   7  21
ATOM     21  C   UNL     1      32.759 -22.370 -17.573  0.00  0.00    +0.034 C 
BRANCH  21  22
ATOM     22  C   UNL     1      33.726 -22.984 -18.602  0.00  0.00    +0.031 C 
BRANCH  22  23
ATOM     23  C   UNL     1      34.391 -21.954 -19.482  0.00  0.00    -0.022 C 
ATOM     24  C   UNL     1      33.607 -21.087 -20.226  0.00  0.00    -0.001 C 
ATOM     25  C   UNL     1      35.775 -21.896 -19.532  0.00  0.00    -0.001 C 
ATOM     26  C   UNL     1      34.221 -20.135 -21.039  0.00  0.00    +0.037 C 
ATOM     27  C   UNL     1      36.390 -20.944 -20.346  0.00  0.00    +0.037 C 
ATOM     28  C   UNL     1      35.613 -20.064 -21.099  0.00  0.00    +0.139 C 
BRANCH  28  29
ATOM     29  O   UNL     1      36.213 -19.136 -21.894  0.00  0.00    -0.471 OA
ATOM     30  C   UNL     1      35.588 -18.847 -23.143  0.00  0.00    +0.252 C 
ENDBRANCH  28  29
ENDBRANCH  22  23
ENDBRANCH  21  22
ENDBRANCH   7  21
TORSDOF 4
ENDMDL
MODEL 3
REMARK VINA RESULT:     -11.0      1.890      2.550
REMARK  Name = 5326930
REMARK  4 active torsions:
REMARK  status: ('A' for Active; 'I' for Inactive)
REMARK    1  A    between atoms: C_7  and  C_21
REMARK    2  A    between atoms: C_21  and  C_22
REMARK    3  A    between atoms: C_22  and  C_23
REMARK    4  A    between atoms: C_28  and  O_29
REMARK                            x       y       z     vdW  Elec       q    Type
REMARK                         _______ _______ _______ _____ _____    ______ ____
ROOT
ATOM      1  O   UNL     1      37.185 -26.476 -12.245  0.00  0.00    -0.209 OA
ATOM      2  N   UNL     1      37.795 -24.396 -15.613  0.00  0.00    -0.275 N 
ATOM      3  N   UNL     1      32.771 -23.882 -13.430  0.00  0.00    -0.315 N 
ATOM      4  N   UNL     1      33.142 -22.740 -15.299  0.00  0.00    -0.316 N 
ATOM      5  N   UNL     1      38.606 -25.878 -13.937  0.00  0.00    -0.302 NA
ATOM      6  N   UNL     1      39.946 -25.180 -15.728  0.00  0.00    -0.320 N 
ATOM      7  C   UNL     1      35.526 -23.502 -15.586  0.00  0.00    +0.007 C 
ATOM      8  C   UNL     1      36.533 -24.299 -15.018  0.00  0.00    +0.060 C 
ATOM      9  C   UNL     1      34.274 -23.438 -14.949  0.00  0.00    +0.056 C 
ATOM     10  C   UNL     1      34.068 -24.164 -13.780  0.00  0.00    +0.060 C 
ATOM     11  C   UNL     1      36.286 -25.016 -13.837  0.00  0.00    +0.109 C 
ATOM     12  C   UNL     1      35.044 -24.965 -13.187  0.00  0.00    +0.029 C 
ATOM     13  C   UNL     1      37.392 -25.846 -13.277  0.00  0.00    +0.208 C 
ATOM     14  C   UNL     1      32.261 -23.029 -14.368  0.00  0.00    +0.182 C 
ATOM     15  C   UNL     1      38.763 -25.184 -15.033  0.00  0.00    +0.248 C 
ATOM     16  H   UNL     1      37.990 -23.901 -16.441  0.00  0.00    +0.156 HD
ATOM     17  H   UNL     1      32.294 -24.234 -12.645  0.00  0.00    +0.148 HD
ATOM     18  H   UNL     1      33.018 -22.150 -16.079  0.00  0.00    +0.148 HD
ATOM     19  H   UNL     1      40.033 -24.646 -16.550  0.00  0.00    +0.146 HD
ATOM     20  H   UNL     1      40.710 -25.711 -15.403  0.00  0.00    +0.146 HD
ENDROOT
BRANCH   7  21
ATOM     21  C   UNL     1      35.782 -22.735 -16.845  0.00  0.00    +0.034 C 
BRANCH  21  22
ATOM     22  C   UNL     1      34.778 -23.035 -17.973  0.00  0.00    +0.031 C 
BRANCH  22  23
ATOM     23  C   UNL     1      34.819 -22.023 -19.091  0.00  0.00    -0.022 C 
ATOM     24  C   UNL     1      36.045 -21.588 -19.570  0.00  0.00    -0.001 C 
ATOM     25  C   UNL     1      33.630 -21.545 -19.619  0.00  0.00    -0.001 C 
ATOM     26  C   UNL     1      36.084 -20.653 -20.603  0.00  0.00    +0.037 C 
ATOM     27  C   UNL     1      33.668 -20.609 -20.654  0.00  0.00    +0.037 C 
ATOM     28  C   UNL     1      34.895 -20.164 -21.145  0.00  0.00    +0.139 C 
BRANCH  28  29
ATOM     29  O   UNL     1      34.932 -19.250 -22.153  0.00  0.00    -0.471 OA
ATOM     30  C   UNL     1      36.164 -18.563 -22.364  0.00  0.00    +0.252 C 
ENDBRANCH  28  29
ENDBRANCH  22  23
ENDBRANCH  21  22
ENDBRANCH   7  21
TORSDOF 4
ENDMDL
MODEL 4
REMARK VINA RESULT:     -10.8      1.255      3.867
REMARK  Name = 5326930
REMARK  4 active torsions:
REMARK  status: ('A' for Active; 'I' for Inactive)
REMARK    1  A    between atoms: C_7  and  C_21
REMARK    2  A    between atoms: C_21  and  C_22
REMARK    3  A    between atoms: C_22  and  C_23
REMARK    4  A    between atoms: C_28  and  O_29
REMARK                            x       y       z     vdW  Elec       q    Type
REMARK                         _______ _______ _______ _____ _____    ______ ____
ROOT
ATOM      1  O   UNL     1      31.367 -25.421 -12.997  0.00  0.00    -0.209 OA
ATOM      2  N   UNL     1      30.882 -23.670 -16.567  0.00  0.00    -0.275 N 
ATOM      3  N   UNL     1      36.042 -23.690 -14.658  0.00  0.00    -0.315 N 
ATOM      4  N   UNL     1      35.740 -22.727 -16.637  0.00  0.00    -0.316 N 
ATOM      5  N   UNL     1      29.956 -24.810 -14.694  0.00  0.00    -0.302 NA
ATOM      6  N   UNL     1      28.636 -24.124 -16.504  0.00  0.00    -0.320 N 
ATOM      7  C   UNL     1      33.256 -23.139 -16.736  0.00  0.00    +0.007 C 
ATOM      8  C   UNL     1      32.176 -23.701 -16.037  0.00  0.00    +0.060 C 
ATOM      9  C   UNL     1      34.538 -23.196 -16.161  0.00  0.00    +0.056 C 
ATOM     10  C   UNL     1      34.700 -23.805 -14.920  0.00  0.00    +0.060 C 
ATOM     11  C   UNL     1      32.380 -24.307 -14.788  0.00  0.00    +0.109 C 
ATOM     12  C   UNL     1      33.651 -24.374 -14.197  0.00  0.00    +0.029 C 
ATOM     13  C   UNL     1      31.197 -24.889 -14.090  0.00  0.00    +0.208 C 
ATOM     14  C   UNL     1      36.619 -23.039 -15.712  0.00  0.00    +0.182 C 
ATOM     15  C   UNL     1      29.842 -24.229 -15.859  0.00  0.00    +0.248 C 
ATOM     16  H   UNL     1      30.716 -23.250 -17.441  0.00  0.00    +0.156 HD
ATOM     17  H   UNL     1      36.505 -24.018 -13.854  0.00  0.00    +0.148 HD
ATOM     18  H   UNL     1      35.906 -22.258 -17.487  0.00  0.00    +0.148 HD
ATOM     19  H   UNL     1      28.583 -23.681 -17.381  0.00  0.00    +0.146 HD
ATOM     20  H   UNL     1      27.822 -24.491 -16.088  0.00  0.00    +0.146 HD
ENDROOT
BRANCH   7  21
ATOM     21  C   UNL     1      33.046 -22.491 -18.068  0.00  0.00    +0.034 C 
BRANCH  21  22
ATOM     22  C   UNL     1      34.065 -22.922 -19.139  0.00  0.00    +0.031 C 
BRANCH  22  23
ATOM     23  C   UNL     1      34.673 -21.760 -19.885  0.00  0.00    -0.022 C 
ATOM     24  C   UNL     1      36.048 -21.595 -19.882  0.00  0.00    -0.001 C 
ATOM     25  C   UNL     1      33.844 -20.877 -20.559  0.00  0.00    -0.001 C 
ATOM     26  C   UNL     1      36.611 -20.521 -20.571  0.00  0.00    +0.037 C 
ATOM     27  C   UNL     1      34.406 -19.802 -21.249  0.00  0.00    +0.037 C 
ATOM     28  C   UNL     1      35.789 -19.625 -21.255  0.00  0.00    +0.139 C 
BRANCH  28  29
ATOM     29  O   UNL     1      36.337 -18.576 -21.927  0.00  0.00    -0.471 OA
ATOM     30  C   UNL     1      35.909 -18.370 -23.272  0.00  0.00    +0.252 C 
ENDBRANCH  28  29
ENDBRANCH  22  23
ENDBRANCH  21  22
ENDBRANCH   7  21
TORSDOF 4
ENDMDL
MODEL 5
REMARK VINA RESULT:     -10.6      3.080      6.043
REMARK  Name = 5326930
REMARK  4 active torsions:
REMARK  status: ('A' for Active; 'I' for Inactive)
REMARK    1  A    between atoms: C_7  and  C_21
REMARK    2  A    between atoms: C_21  and  C_22
REMARK    3  A    between atoms: C_22  and  C_23
REMARK    4  A    between atoms: C_28  and  O_29
REMARK                            x       y       z     vdW  Elec       q    Type
REMARK                         _______ _______ _______ _____ _____    ______ ____
ROOT
ATOM      1  O   UNL     1      37.428 -21.917 -17.298  0.00  0.00    -0.209 OA
ATOM      2  N   UNL     1      33.821 -23.588 -16.808  0.00  0.00    -0.275 N 
ATOM      3  N   UNL     1      37.195 -24.005 -12.481  0.00  0.00    -0.315 N 
ATOM      4  N   UNL     1      35.185 -24.921 -12.241  0.00  0.00    -0.316 N 
ATOM      5  N   UNL     1      35.365 -22.396 -18.170  0.00  0.00    -0.302 NA
ATOM      6  N   UNL     1      33.220 -22.955 -18.927  0.00  0.00    -0.320 N 
ATOM      7  C   UNL     1      34.357 -24.308 -14.540  0.00  0.00    +0.007 C 
ATOM      8  C   UNL     1      34.717 -23.667 -15.736  0.00  0.00    +0.060 C 
ATOM      9  C   UNL     1      35.293 -24.360 -13.492  0.00  0.00    +0.056 C 
ATOM     10  C   UNL     1      36.545 -23.779 -13.669  0.00  0.00    +0.060 C 
ATOM     11  C   UNL     1      35.989 -23.092 -15.876  0.00  0.00    +0.109 C 
ATOM     12  C   UNL     1      36.937 -23.134 -14.842  0.00  0.00    +0.029 C 
ATOM     13  C   UNL     1      36.317 -22.423 -17.168  0.00  0.00    +0.208 C 
ATOM     14  C   UNL     1      36.342 -24.690 -11.662  0.00  0.00    +0.182 C 
ATOM     15  C   UNL     1      34.201 -22.953 -17.968  0.00  0.00    +0.248 C 
ATOM     16  H   UNL     1      32.924 -23.985 -16.731  0.00  0.00    +0.156 HD
ATOM     17  H   UNL     1      38.112 -23.723 -12.261  0.00  0.00    +0.148 HD
ATOM     18  H   UNL     1      34.409 -25.393 -11.860  0.00  0.00    +0.148 HD
ATOM     19  H   UNL     1      32.353 -23.383 -18.745  0.00  0.00    +0.146 HD
ATOM     20  H   UNL     1      33.384 -22.527 -19.799  0.00  0.00    +0.146 HD
ENDROOT
BRANCH   7  21
ATOM     21  C   UNL     1      33.002 -24.924 -14.384  0.00  0.00    +0.034 C 
BRANCH  21  22
ATOM     22  C   UNL     1      31.903 -23.921 -13.989  0.00  0.00    +0.031 C 
BRANCH  22  23
ATOM     23  C   UNL     1      30.783 -23.835 -14.997  0.00  0.00    -0.022 C 
ATOM     24  C   UNL     1      30.583 -22.653 -15.691  0.00  0.00    -0.001 C 
ATOM     25  C   UNL     1      29.975 -24.940 -15.209  0.00  0.00    -0.001 C 
ATOM     26  C   UNL     1      29.548 -22.573 -16.623  0.00  0.00    +0.037 C 
ATOM     27  C   UNL     1      28.939 -24.861 -16.141  0.00  0.00    +0.037 C 
ATOM     28  C   UNL     1      28.726 -23.678 -16.848  0.00  0.00    +0.139 C 
BRANCH  28  29
ATOM     29  O   UNL     1      27.716 -23.600 -17.756  0.00  0.00    -0.471 OA
ATOM     30  C   UNL     1      27.008 -22.364 -17.838  0.00  0.00    +0.252 C 
ENDBRANCH  28  29
ENDBRANCH  22  23
ENDBRANCH  21  22
ENDBRANCH   7  21
TORSDOF 4
ENDMDL
MODEL 6
REMARK VINA RESULT:     -10.3      3.260      5.605
REMARK  Name = 5326930
REMARK  4 active torsions:
REMARK  status: ('A' for Active; 'I' for Inactive)
REMARK    1  A    between atoms: C_7  and  C_21
REMARK    2  A    between atoms: C_21  and  C_22
REMARK    3  A    between atoms: C_22  and  C_23
REMARK    4  A    between atoms: C_28  and  O_29
REMARK                            x       y       z     vdW  Elec       q    Type
REMARK                         _______ _______ _______ _____ _____    ______ ____
ROOT
ATOM      1  O   UNL     1      38.120 -22.835 -13.458  0.00  0.00    -0.209 OA
ATOM      2  N   UNL     1      34.737 -24.749 -12.491  0.00  0.00    -0.275 N 
ATOM      3  N   UNL     1      34.882 -22.699 -17.595  0.00  0.00    -0.315 N 
ATOM      4  N   UNL     1      33.019 -23.768 -17.028  0.00  0.00    -0.316 N 
ATOM      5  N   UNL     1      36.912 -23.992 -11.894  0.00  0.00    -0.302 NA
ATOM      6  N   UNL     1      35.563 -25.188 -10.398  0.00  0.00    -0.320 N 
ATOM      7  C   UNL     1      33.763 -24.338 -14.689  0.00  0.00    +0.007 C 
ATOM      8  C   UNL     1      34.824 -24.209 -13.779  0.00  0.00    +0.060 C 
ATOM      9  C   UNL     1      33.900 -23.777 -15.972  0.00  0.00    +0.056 C 
ATOM     10  C   UNL     1      35.077 -23.113 -16.301  0.00  0.00    +0.060 C 
ATOM     11  C   UNL     1      35.996 -23.531 -14.149  0.00  0.00    +0.109 C 
ATOM     12  C   UNL     1      36.151 -22.965 -15.423  0.00  0.00    +0.029 C 
ATOM     13  C   UNL     1      37.091 -23.425 -13.143  0.00  0.00    +0.208 C 
ATOM     14  C   UNL     1      33.639 -23.114 -17.984  0.00  0.00    +0.182 C 
ATOM     15  C   UNL     1      35.793 -24.607 -11.620  0.00  0.00    +0.248 C 
ATOM     16  H   UNL     1      33.924 -25.227 -12.211  0.00  0.00    +0.156 HD
ATOM     17  H   UNL     1      35.524 -22.193 -18.144  0.00  0.00    +0.148 HD
ATOM     18  H   UNL     1      32.118 -24.166 -17.061  0.00  0.00    +0.148 HD
ATOM     19  H   UNL     1      34.709 -25.645 -10.223  0.00  0.00    +0.146 HD
ATOM     20  H   UNL     1      36.253 -25.147  -9.696  0.00  0.00    +0.146 HD
ENDROOT
BRANCH   7  21
ATOM     21  C   UNL     1      32.510 -25.058 -14.301  0.00  0.00    +0.034 C 
BRANCH  21  22
ATOM     22  C   UNL     1      31.358 -24.126 -13.884  0.00  0.00    +0.031 C 
BRANCH  22  23
ATOM     23  C   UNL     1      30.335 -23.920 -14.974  0.00  0.00    -0.022 C 
ATOM     24  C   UNL     1      29.984 -22.631 -15.342  0.00  0.00    -0.001 C 
ATOM     25  C   UNL     1      29.762 -25.023 -15.586  0.00  0.00    -0.001 C 
ATOM     26  C   UNL     1      29.038 -22.439 -16.348  0.00  0.00    +0.037 C 
ATOM     27  C   UNL     1      28.816 -24.832 -16.593  0.00  0.00    +0.037 C 
ATOM     28  C   UNL     1      28.454 -23.540 -16.974  0.00  0.00    +0.139 C 
BRANCH  28  29
ATOM     29  O   UNL     1      27.531 -23.354 -17.956  0.00  0.00    -0.471 OA
ATOM     30  C   UNL     1      26.752 -22.160 -17.899  0.00  0.00    +0.252 C 
ENDBRANCH  28  29
ENDBRANCH  22  23
ENDBRANCH  21  22
ENDBRANCH   7  21
TORSDOF 4
ENDMDL
MODEL 7
REMARK VINA RESULT:     -10.0      1.291      3.822
REMARK  Name = 5326930
REMARK  4 active torsions:
REMARK  status: ('A' for Active; 'I' for Inactive)
REMARK    1  A    between atoms: C_7  and  C_21
REMARK    2  A    between atoms: C_21  and  C_22
REMARK    3  A    between atoms: C_22  and  C_23
REMARK    4  A    between atoms: C_28  and  O_29
REMARK                            x       y       z     vdW  Elec       q    Type
REMARK                         _______ _______ _______ _____ _____    ______ ____
ROOT
ATOM      1  O   UNL     1      34.584 -24.985 -12.081  0.00  0.00    -0.209 OA
ATOM      2  N   UNL     1      32.446 -24.068 -15.341  0.00  0.00    -0.275 N 
ATOM      3  N   UNL     1      37.774 -22.719 -15.588  0.00  0.00    -0.315 N 
ATOM      4  N   UNL     1      36.561 -22.224 -17.382  0.00  0.00    -0.316 N 
ATOM      5  N   UNL     1      32.560 -24.993 -13.152  0.00  0.00    -0.302 NA
ATOM      6  N   UNL     1      30.559 -24.932 -14.368  0.00  0.00    -0.320 N 
ATOM      7  C   UNL     1      34.392 -23.125 -16.469  0.00  0.00    +0.007 C 
ATOM      8  C   UNL     1      33.807 -23.745 -15.354  0.00  0.00    +0.060 C 
ATOM      9  C   UNL     1      35.765 -22.821 -16.433  0.00  0.00    +0.056 C 
ATOM     10  C   UNL     1      36.502 -23.142 -15.297  0.00  0.00    +0.060 C 
ATOM     11  C   UNL     1      34.584 -24.053 -14.227  0.00  0.00    +0.109 C 
ATOM     12  C   UNL     1      35.955 -23.758 -14.171  0.00  0.00    +0.029 C 
ATOM     13  C   UNL     1      33.912 -24.713 -13.071  0.00  0.00    +0.208 C 
ATOM     14  C   UNL     1      37.758 -22.179 -16.843  0.00  0.00    +0.182 C 
ATOM     15  C   UNL     1      31.900 -24.676 -14.234  0.00  0.00    +0.248 C 
ATOM     16  H   UNL     1      31.882 -23.861 -16.121  0.00  0.00    +0.156 HD
ATOM     17  H   UNL     1      38.558 -22.792 -14.997  0.00  0.00    +0.148 HD
ATOM     18  H   UNL     1      36.292 -21.901 -18.273  0.00  0.00    +0.148 HD
ATOM     19  H   UNL     1      30.090 -24.682 -15.197  0.00  0.00    +0.146 HD
ATOM     20  H   UNL     1      30.065 -25.366 -13.634  0.00  0.00    +0.146 HD
ENDROOT
BRANCH   7  21
ATOM     21  C   UNL     1      33.569 -22.794 -17.674  0.00  0.00    +0.034 C 
BRANCH  21  22
ATOM     22  C   UNL     1      34.261 -23.119 -19.011  0.00  0.00    +0.031 C 
BRANCH  22  23
ATOM     23  C   UNL     1      34.506 -21.901 -19.867  0.00  0.00    -0.022 C 
ATOM     24  C   UNL     1      35.804 -21.566 -20.217  0.00  0.00    -0.001 C 
ATOM     25  C   UNL     1      33.428 -21.139 -20.287  0.00  0.00    -0.001 C 
ATOM     26  C   UNL     1      36.031 -20.440 -21.008  0.00  0.00    +0.037 C 
ATOM     27  C   UNL     1      33.654 -20.012 -21.078  0.00  0.00    +0.037 C 
ATOM     28  C   UNL     1      34.956 -19.663 -21.439  0.00  0.00    +0.139 C 
BRANCH  28  29
ATOM     29  O   UNL     1      35.176 -18.564 -22.210  0.00  0.00    -0.471 OA
ATOM     30  C   UNL     1      35.204 -18.756 -23.623  0.00  0.00    +0.252 C 
ENDBRANCH  28  29
ENDBRANCH  22  23
ENDBRANCH  21  22
ENDBRANCH   7  21
TORSDOF 4
ENDMDL
MODEL 8
REMARK VINA RESULT:      -9.9     11.202     14.182
REMARK  Name = 5326930
REMARK  4 active torsions:
REMARK  status: ('A' for Active; 'I' for Inactive)
REMARK    1  A    between atoms: C_7  and  C_21
REMARK    2  A    between atoms: C_21  and  C_22
REMARK    3  A    between atoms: C_22  and  C_23
REMARK    4  A    between atoms: C_28  and  O_29
REMARK                            x       y       z     vdW  Elec       q    Type
REMARK                         _______ _______ _______ _____ _____    ______ ____
ROOT
ATOM      1  O   UNL     1      31.964 -10.396 -18.102  0.00  0.00    -0.209 OA
ATOM      2  N   UNL     1      32.438 -11.846 -21.806  0.00  0.00    -0.275 N 
ATOM      3  N   UNL     1      32.647  -6.363 -21.401  0.00  0.00    -0.315 N 
ATOM      4  N   UNL     1      32.908  -7.198 -23.442  0.00  0.00    -0.316 N 
ATOM      5  N   UNL     1      32.079 -12.219 -19.483  0.00  0.00    -0.302 NA
ATOM      6  N   UNL     1      32.218 -13.986 -21.015  0.00  0.00    -0.320 N 
ATOM      7  C   UNL     1      32.687  -9.612 -22.751  0.00  0.00    +0.007 C 
ATOM      8  C   UNL     1      32.483 -10.456 -21.649  0.00  0.00    +0.060 C 
ATOM      9  C   UNL     1      32.724  -8.221 -22.541  0.00  0.00    +0.056 C 
ATOM     10  C   UNL     1      32.558  -7.724 -21.253  0.00  0.00    +0.060 C 
ATOM     11  C   UNL     1      32.320  -9.916 -20.364  0.00  0.00    +0.109 C 
ATOM     12  C   UNL     1      32.354  -8.533 -20.134  0.00  0.00    +0.029 C 
ATOM     13  C   UNL     1      32.107 -10.860 -19.229  0.00  0.00    +0.208 C 
ATOM     14  C   UNL     1      32.855  -6.099 -22.725  0.00  0.00    +0.182 C 
ATOM     15  C   UNL     1      32.237 -12.649 -20.707  0.00  0.00    +0.248 C 
ATOM     16  H   UNL     1      32.550 -12.246 -22.698  0.00  0.00    +0.156 HD
ATOM     17  H   UNL     1      32.573  -5.696 -20.680  0.00  0.00    +0.148 HD
ATOM     18  H   UNL     1      33.048  -7.274 -24.414  0.00  0.00    +0.148 HD
ATOM     19  H   UNL     1      32.341 -14.279 -21.947  0.00  0.00    +0.146 HD
ATOM     20  H   UNL     1      32.081 -14.653 -20.303  0.00  0.00    +0.146 HD
ENDROOT
BRANCH   7  21
ATOM     21  C   UNL     1      32.862 -10.181 -24.124  0.00  0.00    +0.034 C 
BRANCH  21  22
ATOM     22  C   UNL     1      34.221 -10.869 -24.346  0.00  0.00    +0.031 C 
BRANCH  22  23
ATOM     23  C   UNL     1      34.100 -12.250 -24.941  0.00  0.00    -0.022 C 
ATOM     24  C   UNL     1      33.788 -12.386 -26.284  0.00  0.00    -0.001 C 
ATOM     25  C   UNL     1      34.302 -13.357 -24.133  0.00  0.00    -0.001 C 
ATOM     26  C   UNL     1      33.676 -13.663 -26.835  0.00  0.00    +0.037 C 
ATOM     27  C   UNL     1      34.189 -14.635 -24.684  0.00  0.00    +0.037 C 
ATOM     28  C   UNL     1      33.877 -14.787 -26.034  0.00  0.00    +0.139 C 
BRANCH  28  29
ATOM     29  O   UNL     1      33.766 -16.033 -26.571  0.00  0.00    -0.471 OA
ATOM     30  C   UNL     1      34.206 -17.128 -25.768  0.00  0.00    +0.252 C 
ENDBRANCH  28  29
ENDBRANCH  22  23
ENDBRANCH  21  22
ENDBRANCH   7  21
TORSDOF 4
ENDMDL
MODEL 9
REMARK VINA RESULT:      -9.8      7.895     11.438
REMARK  Name = 5326930
REMARK  4 active torsions:
REMARK  status: ('A' for Active; 'I' for Inactive)
REMARK    1  A    between atoms: C_7  and  C_21
REMARK    2  A    between atoms: C_21  and  C_22
REMARK    3  A    between atoms: C_22  and  C_23
REMARK    4  A    between atoms: C_28  and  O_29
REMARK                            x       y       z     vdW  Elec       q    Type
REMARK                         _______ _______ _______ _____ _____    ______ ____
ROOT
ATOM      1  O   UNL     1      35.234 -20.089 -25.097  0.00  0.00    -0.209 OA
ATOM      2  N   UNL     1      35.553 -17.630 -21.951  0.00  0.00    -0.275 N 
ATOM      3  N   UNL     1      33.750 -15.272 -26.583  0.00  0.00    -0.315 N 
ATOM      4  N   UNL     1      33.937 -13.935 -24.819  0.00  0.00    -0.316 N 
ATOM      5  N   UNL     1      35.779 -19.804 -22.891  0.00  0.00    -0.302 NA
ATOM      6  N   UNL     1      36.298 -19.364 -20.649  0.00  0.00    -0.320 N 
ATOM      7  C   UNL     1      34.770 -15.717 -23.245  0.00  0.00    +0.007 C 
ATOM      8  C   UNL     1      35.099 -17.079 -23.154  0.00  0.00    +0.060 C 
ATOM      9  C   UNL     1      34.317 -15.211 -24.477  0.00  0.00    +0.056 C 
ATOM     10  C   UNL     1      34.209 -16.070 -25.566  0.00  0.00    +0.060 C 
ATOM     11  C   UNL     1      34.976 -17.913 -24.275  0.00  0.00    +0.109 C 
ATOM     12  C   UNL     1      34.527 -17.428 -25.512  0.00  0.00    +0.029 C 
ATOM     13  C   UNL     1      35.339 -19.352 -24.121  0.00  0.00    +0.208 C 
ATOM     14  C   UNL     1      33.604 -14.007 -26.088  0.00  0.00    +0.182 C 
ATOM     15  C   UNL     1      35.868 -18.968 -21.891  0.00  0.00    +0.248 C 
ATOM     16  H   UNL     1      35.647 -17.063 -21.152  0.00  0.00    +0.156 HD
ATOM     17  H   UNL     1      33.561 -15.560 -27.505  0.00  0.00    +0.148 HD
ATOM     18  H   UNL     1      33.919 -13.139 -24.239  0.00  0.00    +0.148 HD
ATOM     19  H   UNL     1      36.354 -18.710 -19.916  0.00  0.00    +0.146 HD
ATOM     20  H   UNL     1      36.550 -20.303 -20.492  0.00  0.00    +0.146 HD
ENDROOT
BRANCH   7  21
ATOM     21  C   UNL     1      34.898 -14.822 -22.053  0.00  0.00    +0.034 C 
BRANCH  21  22
ATOM     22  C   UNL     1      33.640 -14.777 -21.168  0.00  0.00    +0.031 C 
BRANCH  22  23
ATOM     23  C   UNL     1      33.027 -13.402 -21.070  0.00  0.00    -0.022 C 
ATOM     24  C   UNL     1      32.844 -12.656 -22.224  0.00  0.00    -0.001 C 
ATOM     25  C   UNL     1      32.661 -12.908 -19.829  0.00  0.00    -0.001 C 
ATOM     26  C   UNL     1      32.279 -11.385 -22.135  0.00  0.00    +0.037 C 
ATOM     27  C   UNL     1      32.095 -11.635 -19.739  0.00  0.00    +0.037 C 
ATOM     28  C   UNL     1      31.904 -10.874 -20.893  0.00  0.00    +0.139 C 
BRANCH  28  29
ATOM     29  O   UNL     1      31.353  -9.633 -20.805  0.00  0.00    -0.471 OA
ATOM     30  C   UNL     1      32.247  -8.536 -20.627  0.00  0.00    +0.252 C 
ENDBRANCH  28  29
ENDBRANCH  22  23
ENDBRANCH  21  22
ENDBRANCH   7  21
TORSDOF 4
ENDMDL
