MODEL 1
REMARK VINA RESULT:     -11.6      0.000      0.000
REMARK  Name = 5567
REMARK  8 active torsions:
REMARK  status: ('A' for Active; 'I' for Inactive)
REMARK    1  A    between atoms: N_1  and  C_20
REMARK    2  A    between atoms: C_2  and  C_8
REMARK    3  A    between atoms: C_2  and  O_18
REMARK    4  A    between atoms: C_11  and  C_17
REMARK    5  A    between atoms: C_20  and  C_21
REMARK    6  A    between atoms: C_21  and  C_22
REMARK    7  A    between atoms: C_22  and  C_24
REMARK    8  A    between atoms: C_24  and  C_26
REMARK                            x       y       z     vdW  Elec       q    Type
REMARK                         _______ _______ _______ _____ _____    ______ ____
ROOT
ATOM      1  N   UNL     1      35.611 -20.310 -20.466  0.00  0.00    +0.387 N 
ATOM      2  C   UNL     1      34.233 -22.440 -18.921  0.00  0.00    +0.103 C 
ATOM      3  C   UNL     1      33.500 -21.273 -19.618  0.00  0.00    +0.008 C 
ATOM      4  C   UNL     1      35.701 -22.024 -18.674  0.00  0.00    +0.008 C 
ATOM      5  C   UNL     1      34.255 -20.732 -20.838  0.00  0.00    -0.075 C 
ATOM      6  C   UNL     1      36.380 -21.430 -19.915  0.00  0.00    -0.075 C 
ATOM      7  H   UNL     1      35.530 -19.596 -19.742  0.00  0.00    -0.080 HD
ENDROOT
BRANCH   2   8
ATOM      8  C   UNL     1      33.586 -22.924 -17.622  0.00  0.00    +0.002 C 
ATOM      9  C   UNL     1      32.208 -22.808 -17.445  0.00  0.00    +0.002 C 
ATOM     10  C   UNL     1      34.376 -23.483 -16.619  0.00  0.00    -0.002 C 
ATOM     11  C   UNL     1      31.618 -23.251 -16.261  0.00  0.00    +0.071 C 
ATOM     12  C   UNL     1      33.786 -23.926 -15.435  0.00  0.00    -0.000 C 
ATOM     13  C   UNL     1      32.407 -23.810 -15.256  0.00  0.00    +0.004 C 
BRANCH  11  17
ATOM     14  F   UNL     1      29.509 -22.506 -17.108  0.00  0.00    -0.166 F 
ATOM     15  F   UNL     1      29.508 -24.325 -15.927  0.00  0.00    -0.166 F 
ATOM     16  F   UNL     1      29.819 -22.403 -14.958  0.00  0.00    -0.166 F 
ATOM     17  C   UNL     1      30.145 -23.125 -16.069  0.00  0.00    +0.419 C 
ENDBRANCH  11  17
ENDBRANCH   2   8
BRANCH   2  18
ATOM     18  O   UNL     1      34.200 -23.570 -19.807  0.00  0.00    -0.383 OA
ATOM     19  H   UNL     1      33.847 -23.295 -20.668  0.00  0.00    +0.211 HD
ENDBRANCH   2  18
BRANCH   1  20
ATOM     20  C   UNL     1      36.301 -19.730 -21.618  0.00  0.00    -0.077 C 
BRANCH  20  21
ATOM     21  C   UNL     1      35.285 -19.234 -22.649  0.00  0.00    -0.015 C 
BRANCH  21  22
ATOM     22  C   UNL     1      35.823 -18.064 -23.478  0.00  0.00    +0.067 C 
BRANCH  22  24
ATOM     23  O   UNL     1      35.359 -16.360 -21.833  0.00  0.00    -0.291 OA
ATOM     24  C   UNL     1      35.314 -16.708 -23.010  0.00  0.00    +0.173 C 
BRANCH  24  26
ATOM     25  F   UNL     1      33.253 -13.174 -26.810  0.00  0.00    -0.204 F 
ATOM     26  C   UNL     1      34.763 -15.765 -24.024  0.00  0.00    +0.035 C 
ATOM     27  C   UNL     1      34.567 -14.449 -23.667  0.00  0.00    +0.005 C 
ATOM     28  C   UNL     1      34.471 -16.243 -25.281  0.00  0.00    +0.005 C 
ATOM     29  C   UNL     1      34.052 -13.566 -24.616  0.00  0.00    +0.030 C 
ATOM     30  C   UNL     1      33.955 -15.360 -26.231  0.00  0.00    +0.030 C 
ATOM     31  C   UNL     1      33.747 -14.022 -25.899  0.00  0.00    +0.140 C 
ENDBRANCH  24  26
ENDBRANCH  22  24
ENDBRANCH  21  22
ENDBRANCH  20  21
ENDBRANCH   1  20
TORSDOF 8
ENDMDL
MODEL 2
REMARK VINA RESULT:     -11.4      1.825      2.387
REMARK  Name = 5567
REMARK  8 active torsions:
REMARK  status: ('A' for Active; 'I' for Inactive)
REMARK    1  A    between atoms: N_1  and  C_20
REMARK    2  A    between atoms: C_2  and  C_8
REMARK    3  A    between atoms: C_2  and  O_18
REMARK    4  A    between atoms: C_11  and  C_17
REMARK    5  A    between atoms: C_20  and  C_21
REMARK    6  A    between atoms: C_21  and  C_22
REMARK    7  A    between atoms: C_22  and  C_24
REMARK    8  A    between atoms: C_24  and  C_26
REMARK                            x       y       z     vdW  Elec       q    Type
REMARK                         _______ _______ _______ _____ _____    ______ ____
ROOT
ATOM      1  N   UNL     1      35.401 -20.113 -20.661  0.00  0.00    +0.387 N 
ATOM      2  C   UNL     1      34.214 -22.322 -19.069  0.00  0.00    +0.103 C 
ATOM      3  C   UNL     1      33.388 -21.189 -19.717  0.00  0.00    +0.008 C 
ATOM      4  C   UNL     1      35.669 -21.832 -18.892  0.00  0.00    +0.008 C 
ATOM      5  C   UNL     1      34.052 -20.601 -20.968  0.00  0.00    -0.075 C 
ATOM      6  C   UNL     1      36.253 -21.196 -20.160  0.00  0.00    -0.075 C 
ATOM      7  H   UNL     1      35.320 -19.409 -19.926  0.00  0.00    -0.080 HD
ENDROOT
BRANCH   2   8
ATOM      8  C   UNL     1      33.659 -22.848 -17.744  0.00  0.00    +0.002 C 
ATOM      9  C   UNL     1      32.281 -22.921 -17.546  0.00  0.00    +0.002 C 
ATOM     10  C   UNL     1      34.533 -23.256 -16.738  0.00  0.00    -0.002 C 
ATOM     11  C   UNL     1      31.775 -23.402 -16.338  0.00  0.00    +0.071 C 
ATOM     12  C   UNL     1      34.027 -23.737 -15.530  0.00  0.00    -0.000 C 
ATOM     13  C   UNL     1      32.649 -23.809 -15.330  0.00  0.00    +0.004 C 
BRANCH  11  17
ATOM     14  F   UNL     1      29.920 -23.194 -14.842  0.00  0.00    -0.166 F 
ATOM     15  F   UNL     1      29.590 -22.613 -16.906  0.00  0.00    -0.166 F 
ATOM     16  F   UNL     1      29.795 -24.716 -16.390  0.00  0.00    -0.166 F 
ATOM     17  C   UNL     1      30.302 -23.477 -16.123  0.00  0.00    +0.419 C 
ENDBRANCH  11  17
ENDBRANCH   2   8
BRANCH   2  18
ATOM     18  O   UNL     1      34.194 -23.446 -19.963  0.00  0.00    -0.383 OA
ATOM     19  H   UNL     1      34.682 -23.223 -20.772  0.00  0.00    +0.211 HD
ENDBRANCH   2  18
BRANCH   1  20
ATOM     20  C   UNL     1      36.002 -19.490 -21.840  0.00  0.00    -0.077 C 
BRANCH  20  21
ATOM     21  C   UNL     1      35.124 -18.340 -22.336  0.00  0.00    -0.015 C 
BRANCH  21  22
ATOM     22  C   UNL     1      35.540 -16.992 -21.739  0.00  0.00    +0.067 C 
BRANCH  22  24
ATOM     23  O   UNL     1      35.722 -15.622 -23.718  0.00  0.00    -0.291 OA
ATOM     24  C   UNL     1      35.191 -15.805 -22.626  0.00  0.00    +0.173 C 
BRANCH  24  26
ATOM     25  F   UNL     1      31.295 -12.213 -20.867  0.00  0.00    -0.204 F 
ATOM     26  C   UNL     1      34.152 -14.845 -22.156  0.00  0.00    +0.035 C 
ATOM     27  C   UNL     1      33.603 -13.968 -23.065  0.00  0.00    +0.005 C 
ATOM     28  C   UNL     1      33.778 -14.872 -20.832  0.00  0.00    +0.005 C 
ATOM     29  C   UNL     1      32.630 -13.070 -22.625  0.00  0.00    +0.030 C 
ATOM     30  C   UNL     1      32.805 -13.975 -20.392  0.00  0.00    +0.030 C 
ATOM     31  C   UNL     1      32.230 -13.074 -21.289  0.00  0.00    +0.140 C 
ENDBRANCH  24  26
ENDBRANCH  22  24
ENDBRANCH  21  22
ENDBRANCH  20  21
ENDBRANCH   1  20
TORSDOF 8
ENDMDL
MODEL 3
REMARK VINA RESULT:     -11.3      3.686     10.176
REMARK  Name = 5567
REMARK  8 active torsions:
REMARK  status: ('A' for Active; 'I' for Inactive)
REMARK    1  A    between atoms: N_1  and  C_20
REMARK    2  A    between atoms: C_2  and  C_8
REMARK    3  A    between atoms: C_2  and  O_18
REMARK    4  A    between atoms: C_11  and  C_17
REMARK    5  A    between atoms: C_20  and  C_21
REMARK    6  A    between atoms: C_21  and  C_22
REMARK    7  A    between atoms: C_22  and  C_24
REMARK    8  A    between atoms: C_24  and  C_26
REMARK                            x       y       z     vdW  Elec       q    Type
REMARK                         _______ _______ _______ _____ _____    ______ ____
ROOT
ATOM      1  N   UNL     1      34.334 -16.011 -24.530  0.00  0.00    +0.387 N 
ATOM      2  C   UNL     1      34.048 -13.096 -24.032  0.00  0.00    +0.103 C 
ATOM      3  C   UNL     1      34.723 -14.075 -23.046  0.00  0.00    +0.008 C 
ATOM      4  C   UNL     1      33.101 -13.899 -24.953  0.00  0.00    +0.008 C 
ATOM      5  C   UNL     1      35.341 -15.295 -23.739  0.00  0.00    -0.075 C 
ATOM      6  C   UNL     1      33.760 -15.143 -25.563  0.00  0.00    -0.075 C 
ATOM      7  H   UNL     1      33.582 -16.291 -23.901  0.00  0.00    -0.080 HD
ENDROOT
BRANCH   2   8
ATOM      8  C   UNL     1      33.301 -11.933 -23.377  0.00  0.00    +0.002 C 
ATOM      9  C   UNL     1      32.555 -12.149 -22.219  0.00  0.00    +0.002 C 
ATOM     10  C   UNL     1      33.371 -10.659 -23.937  0.00  0.00    -0.002 C 
ATOM     11  C   UNL     1      31.875 -11.088 -21.621  0.00  0.00    +0.071 C 
ATOM     12  C   UNL     1      32.690  -9.598 -23.338  0.00  0.00    -0.000 C 
ATOM     13  C   UNL     1      31.942  -9.813 -22.180  0.00  0.00    +0.004 C 
BRANCH  11  17
ATOM     14  F   UNL     1      31.512 -12.376 -19.638  0.00  0.00    -0.166 F 
ATOM     15  F   UNL     1      31.073 -10.255 -19.527  0.00  0.00    -0.166 F 
ATOM     16  F   UNL     1      29.761 -11.578 -20.649  0.00  0.00    -0.166 F 
ATOM     17  C   UNL     1      31.074 -11.319 -20.384  0.00  0.00    +0.419 C 
ENDBRANCH  11  17
ENDBRANCH   2   8
BRANCH   2  18
ATOM     18  O   UNL     1      35.081 -12.488 -24.823  0.00  0.00    -0.383 OA
ATOM     19  H   UNL     1      35.949 -12.767 -24.490  0.00  0.00    +0.211 HD
ENDBRANCH   2  18
BRANCH   1  20
ATOM     20  C   UNL     1      34.912 -17.212 -25.131  0.00  0.00    -0.077 C 
BRANCH  20  21
ATOM     21  C   UNL     1      34.608 -18.436 -24.265  0.00  0.00    -0.015 C 
BRANCH  21  22
ATOM     22  C   UNL     1      35.817 -18.874 -23.433  0.00  0.00    +0.067 C 
BRANCH  22  24
ATOM     23  O   UNL     1      35.747 -17.608 -21.379  0.00  0.00    -0.291 OA
ATOM     24  C   UNL     1      35.615 -18.695 -21.935  0.00  0.00    +0.173 C 
BRANCH  24  26
ATOM     25  F   UNL     1      34.146 -23.136 -18.886  0.00  0.00    -0.204 F 
ATOM     26  C   UNL     1      35.223 -19.881 -21.122  0.00  0.00    +0.035 C 
ATOM     27  C   UNL     1      36.214 -20.644 -20.543  0.00  0.00    +0.005 C 
ATOM     28  C   UNL     1      33.885 -20.171 -20.978  0.00  0.00    +0.005 C 
ATOM     29  C   UNL     1      35.846 -21.753 -19.781  0.00  0.00    +0.030 C 
ATOM     30  C   UNL     1      33.518 -21.280 -20.216  0.00  0.00    +0.030 C 
ATOM     31  C   UNL     1      34.498 -22.071 -19.617  0.00  0.00    +0.140 C 
ENDBRANCH  24  26
ENDBRANCH  22  24
ENDBRANCH  21  22
ENDBRANCH  20  21
ENDBRANCH   1  20
TORSDOF 8
ENDMDL
MODEL 4
REMARK VINA RESULT:     -11.2      3.501     10.800
REMARK  Name = 5567
REMARK  8 active torsions:
REMARK  status: ('A' for Active; 'I' for Inactive)
REMARK    1  A    between atoms: N_1  and  C_20
REMARK    2  A    between atoms: C_2  and  C_8
REMARK    3  A    between atoms: C_2  and  O_18
REMARK    4  A    between atoms: C_11  and  C_17
REMARK    5  A    between atoms: C_20  and  C_21
REMARK    6  A    between atoms: C_21  and  C_22
REMARK    7  A    between atoms: C_22  and  C_24
REMARK    8  A    between atoms: C_24  and  C_26
REMARK                            x       y       z     vdW  Elec       q    Type
REMARK                         _______ _______ _______ _____ _____    ______ ____
ROOT
ATOM      1  N   UNL     1      34.434 -16.049 -24.262  0.00  0.00    +0.387 N 
ATOM      2  C   UNL     1      33.871 -13.225 -23.527  0.00  0.00    +0.103 C 
ATOM      3  C   UNL     1      34.533 -14.246 -22.576  0.00  0.00    +0.008 C 
ATOM      4  C   UNL     1      33.077 -13.999 -24.605  0.00  0.00    +0.008 C 
ATOM      5  C   UNL     1      35.306 -15.344 -23.316  0.00  0.00    -0.075 C 
ATOM      6  C   UNL     1      33.885 -15.126 -25.261  0.00  0.00    -0.075 C 
ATOM      7  H   UNL     1      33.654 -16.443 -23.736  0.00  0.00    -0.080 HD
ENDROOT
BRANCH   2   8
ATOM      8  C   UNL     1      32.978 -12.190 -22.842  0.00  0.00    +0.002 C 
ATOM      9  C   UNL     1      33.029 -10.855 -23.239  0.00  0.00    +0.002 C 
ATOM     10  C   UNL     1      32.112 -12.585 -21.824  0.00  0.00    -0.002 C 
ATOM     11  C   UNL     1      32.213  -9.910 -22.615  0.00  0.00    +0.071 C 
ATOM     12  C   UNL     1      31.296 -11.640 -21.200  0.00  0.00    -0.000 C 
ATOM     13  C   UNL     1      31.347 -10.303 -21.596  0.00  0.00    +0.004 C 
BRANCH  11  17
ATOM     14  F   UNL     1      31.879  -8.278 -24.331  0.00  0.00    -0.166 F 
ATOM     15  F   UNL     1      31.473  -7.660 -22.292  0.00  0.00    -0.166 F 
ATOM     16  F   UNL     1      33.525  -7.956 -22.947  0.00  0.00    -0.166 F 
ATOM     17  C   UNL     1      32.269  -8.481 -23.038  0.00  0.00    +0.419 C 
ENDBRANCH  11  17
ENDBRANCH   2   8
BRANCH   2  18
ATOM     18  O   UNL     1      34.918 -12.470 -24.156  0.00  0.00    -0.383 OA
ATOM     19  H   UNL     1      35.503 -13.072 -24.642  0.00  0.00    +0.211 HD
ENDBRANCH   2  18
BRANCH   1  20
ATOM     20  C   UNL     1      35.158 -17.139 -24.914  0.00  0.00    -0.077 C 
BRANCH  20  21
ATOM     21  C   UNL     1      34.839 -18.470 -24.227  0.00  0.00    -0.015 C 
BRANCH  21  22
ATOM     22  C   UNL     1      35.970 -18.931 -23.303  0.00  0.00    +0.067 C 
BRANCH  22  24
ATOM     23  O   UNL     1      35.718 -17.678 -21.255  0.00  0.00    -0.291 OA
ATOM     24  C   UNL     1      35.647 -18.764 -21.824  0.00  0.00    +0.173 C 
BRANCH  24  26
ATOM     25  F   UNL     1      34.004 -23.248 -18.931  0.00  0.00    -0.204 F 
ATOM     26  C   UNL     1      35.208 -19.961 -21.051  0.00  0.00    +0.035 C 
ATOM     27  C   UNL     1      33.859 -20.207 -20.923  0.00  0.00    +0.005 C 
ATOM     28  C   UNL     1      36.168 -20.776 -20.494  0.00  0.00    +0.005 C 
ATOM     29  C   UNL     1      33.449 -21.328 -20.200  0.00  0.00    +0.030 C 
ATOM     30  C   UNL     1      35.757 -21.896 -19.771  0.00  0.00    +0.030 C 
ATOM     31  C   UNL     1      34.398 -22.173 -19.625  0.00  0.00    +0.140 C 
ENDBRANCH  24  26
ENDBRANCH  22  24
ENDBRANCH  21  22
ENDBRANCH  20  21
ENDBRANCH   1  20
TORSDOF 8
ENDMDL
MODEL 5
REMARK VINA RESULT:     -11.2      1.911      2.428
REMARK  Name = 5567
REMARK  8 active torsions:
REMARK  status: ('A' for Active; 'I' for Inactive)
REMARK    1  A    between atoms: N_1  and  C_20
REMARK    2  A    between atoms: C_2  and  C_8
REMARK    3  A    between atoms: C_2  and  O_18
REMARK    4  A    between atoms: C_11  and  C_17
REMARK    5  A    between atoms: C_20  and  C_21
REMARK    6  A    between atoms: C_21  and  C_22
REMARK    7  A    between atoms: C_22  and  C_24
REMARK    8  A    between atoms: C_24  and  C_26
REMARK                            x       y       z     vdW  Elec       q    Type
REMARK                         _______ _______ _______ _____ _____    ______ ____
ROOT
ATOM      1  N   UNL     1      35.548 -20.280 -20.596  0.00  0.00    +0.387 N 
ATOM      2  C   UNL     1      34.251 -22.418 -18.992  0.00  0.00    +0.103 C 
ATOM      3  C   UNL     1      33.479 -21.272 -19.681  0.00  0.00    +0.008 C 
ATOM      4  C   UNL     1      35.718 -21.972 -18.789  0.00  0.00    +0.008 C 
ATOM      5  C   UNL     1      34.191 -20.730 -20.927  0.00  0.00    -0.075 C 
ATOM      6  C   UNL     1      36.352 -21.379 -20.054  0.00  0.00    -0.075 C 
ATOM      7  H   UNL     1      35.473 -19.560 -19.878  0.00  0.00    -0.080 HD
ENDROOT
BRANCH   2   8
ATOM      8  C   UNL     1      33.649 -22.899 -17.671  0.00  0.00    +0.002 C 
ATOM      9  C   UNL     1      34.482 -23.370 -16.657  0.00  0.00    +0.002 C 
ATOM     10  C   UNL     1      32.269 -22.864 -17.483  0.00  0.00    -0.002 C 
ATOM     11  C   UNL     1      33.933 -23.808 -15.451  0.00  0.00    +0.071 C 
ATOM     12  C   UNL     1      31.720 -23.302 -16.277  0.00  0.00    -0.000 C 
ATOM     13  C   UNL     1      32.552 -23.774 -15.262  0.00  0.00    +0.004 C 
BRANCH  11  17
ATOM     14  F   UNL     1      35.545 -25.418 -14.722  0.00  0.00    -0.166 F 
ATOM     15  F   UNL     1      35.750 -23.401 -13.950  0.00  0.00    -0.166 F 
ATOM     16  F   UNL     1      34.132 -24.673 -13.246  0.00  0.00    -0.166 F 
ATOM     17  C   UNL     1      34.823 -24.313 -14.366  0.00  0.00    +0.419 C 
ENDBRANCH  11  17
ENDBRANCH   2   8
BRANCH   2  18
ATOM     18  O   UNL     1      34.216 -23.558 -19.865  0.00  0.00    -0.383 OA
ATOM     19  H   UNL     1      35.017 -23.569 -20.414  0.00  0.00    +0.211 HD
ENDBRANCH   2  18
BRANCH   1  20
ATOM     20  C   UNL     1      36.196 -19.700 -21.772  0.00  0.00    -0.077 C 
BRANCH  20  21
ATOM     21  C   UNL     1      35.144 -19.198 -22.763  0.00  0.00    -0.015 C 
BRANCH  21  22
ATOM     22  C   UNL     1      35.673 -18.066 -23.648  0.00  0.00    +0.067 C 
BRANCH  22  24
ATOM     23  O   UNL     1      35.413 -16.337 -21.984  0.00  0.00    -0.291 OA
ATOM     24  C   UNL     1      35.279 -16.680 -23.156  0.00  0.00    +0.173 C 
BRANCH  24  26
ATOM     25  F   UNL     1      33.238 -13.017 -26.843  0.00  0.00    -0.204 F 
ATOM     26  C   UNL     1      34.733 -15.702 -24.139  0.00  0.00    +0.035 C 
ATOM     27  C   UNL     1      34.609 -14.383 -23.762  0.00  0.00    +0.005 C 
ATOM     28  C   UNL     1      34.374 -16.153 -25.390  0.00  0.00    +0.005 C 
ATOM     29  C   UNL     1      34.099 -13.468 -24.683  0.00  0.00    +0.030 C 
ATOM     30  C   UNL     1      33.864 -15.238 -26.311  0.00  0.00    +0.030 C 
ATOM     31  C   UNL     1      33.727 -13.895 -25.958  0.00  0.00    +0.140 C 
ENDBRANCH  24  26
ENDBRANCH  22  24
ENDBRANCH  21  22
ENDBRANCH  20  21
ENDBRANCH   1  20
TORSDOF 8
ENDMDL
MODEL 6
REMARK VINA RESULT:     -11.1      3.489     11.176
REMARK  Name = 5567
REMARK  8 active torsions:
REMARK  status: ('A' for Active; 'I' for Inactive)
REMARK    1  A    between atoms: N_1  and  C_20
REMARK    2  A    between atoms: C_2  and  C_8
REMARK    3  A    between atoms: C_2  and  O_18
REMARK    4  A    between atoms: C_11  and  C_17
REMARK    5  A    between atoms: C_20  and  C_21
REMARK    6  A    between atoms: C_21  and  C_22
REMARK    7  A    between atoms: C_22  and  C_24
REMARK    8  A    between atoms: C_24  and  C_26
REMARK                            x       y       z     vdW  Elec       q    Type
REMARK                         _______ _______ _______ _____ _____    ______ ____
ROOT
ATOM      1  N   UNL     1      34.778 -15.795 -24.940  0.00  0.00    +0.387 N 
ATOM      2  C   UNL     1      33.721 -13.136 -24.137  0.00  0.00    +0.103 C 
ATOM      3  C   UNL     1      33.657 -13.688 -25.579  0.00  0.00    +0.008 C 
ATOM      4  C   UNL     1      34.855 -13.866 -23.380  0.00  0.00    +0.008 C 
ATOM      5  C   UNL     1      33.620 -15.220 -25.635  0.00  0.00    -0.075 C 
ATOM      6  C   UNL     1      34.800 -15.392 -23.530  0.00  0.00    -0.075 C 
ATOM      7  H   UNL     1      35.622 -15.434 -25.385  0.00  0.00    -0.080 HD
ENDROOT
BRANCH   2   8
ATOM      8  C   UNL     1      33.896 -11.620 -24.034  0.00  0.00    +0.002 C 
ATOM      9  C   UNL     1      32.965 -10.860 -23.328  0.00  0.00    +0.002 C 
ATOM     10  C   UNL     1      34.987 -11.003 -24.643  0.00  0.00    -0.002 C 
ATOM     11  C   UNL     1      33.124  -9.477 -23.232  0.00  0.00    +0.071 C 
ATOM     12  C   UNL     1      35.146  -9.620 -24.547  0.00  0.00    -0.000 C 
ATOM     13  C   UNL     1      34.215  -8.858 -23.842  0.00  0.00    +0.004 C 
BRANCH  11  17
ATOM     14  F   UNL     1      32.649  -7.517 -21.946  0.00  0.00    -0.166 F 
ATOM     15  F   UNL     1      31.072  -8.250 -23.241  0.00  0.00    -0.166 F 
ATOM     16  F   UNL     1      31.581  -9.339 -21.429  0.00  0.00    -0.166 F 
ATOM     17  C   UNL     1      32.128  -8.661 -22.480  0.00  0.00    +0.419 C 
ENDBRANCH  11  17
ENDBRANCH   2   8
BRANCH   2  18
ATOM     18  O   UNL     1      32.465 -13.421 -23.503  0.00  0.00    -0.383 OA
ATOM     19  H   UNL     1      32.463 -14.338 -23.187  0.00  0.00    +0.211 HD
ENDBRANCH   2  18
BRANCH   1  20
ATOM     20  C   UNL     1      34.774 -17.253 -25.057  0.00  0.00    -0.077 C 
BRANCH  20  21
ATOM     21  C   UNL     1      35.725 -17.868 -24.028  0.00  0.00    -0.015 C 
BRANCH  21  22
ATOM     22  C   UNL     1      35.075 -19.017 -23.252  0.00  0.00    +0.067 C 
BRANCH  22  24
ATOM     23  O   UNL     1      35.796 -17.957 -21.207  0.00  0.00    -0.291 OA
ATOM     24  C   UNL     1      35.330 -18.953 -21.752  0.00  0.00    +0.173 C 
BRANCH  24  26
ATOM     25  F   UNL     1      34.016 -23.394 -18.632  0.00  0.00    -0.204 F 
ATOM     26  C   UNL     1      34.979 -20.138 -20.918  0.00  0.00    +0.035 C 
ATOM     27  C   UNL     1      33.649 -20.448 -20.736  0.00  0.00    +0.005 C 
ATOM     28  C   UNL     1      35.996 -20.879 -20.362  0.00  0.00    +0.005 C 
ATOM     29  C   UNL     1      33.321 -21.558 -19.957  0.00  0.00    +0.030 C 
ATOM     30  C   UNL     1      35.668 -21.989 -19.583  0.00  0.00    +0.030 C 
ATOM     31  C   UNL     1      34.330 -22.328 -19.380  0.00  0.00    +0.140 C 
ENDBRANCH  24  26
ENDBRANCH  22  24
ENDBRANCH  21  22
ENDBRANCH  20  21
ENDBRANCH   1  20
TORSDOF 8
ENDMDL
MODEL 7
REMARK VINA RESULT:     -10.9      4.234     10.951
REMARK  Name = 5567
REMARK  8 active torsions:
REMARK  status: ('A' for Active; 'I' for Inactive)
REMARK    1  A    between atoms: N_1  and  C_20
REMARK    2  A    between atoms: C_2  and  C_8
REMARK    3  A    between atoms: C_2  and  O_18
REMARK    4  A    between atoms: C_11  and  C_17
REMARK    5  A    between atoms: C_20  and  C_21
REMARK    6  A    between atoms: C_21  and  C_22
REMARK    7  A    between atoms: C_22  and  C_24
REMARK    8  A    between atoms: C_24  and  C_26
REMARK                            x       y       z     vdW  Elec       q    Type
REMARK                         _______ _______ _______ _____ _____    ______ ____
ROOT
ATOM      1  N   UNL     1      34.806 -14.687 -22.889  0.00  0.00    +0.387 N 
ATOM      2  C   UNL     1      32.789 -12.758 -21.870  0.00  0.00    +0.103 C 
ATOM      3  C   UNL     1      33.382 -12.710 -23.296  0.00  0.00    +0.008 C 
ATOM      4  C   UNL     1      33.768 -13.529 -20.955  0.00  0.00    +0.008 C 
ATOM      5  C   UNL     1      33.833 -14.084 -23.806  0.00  0.00    -0.075 C 
ATOM      6  C   UNL     1      34.232 -14.864 -21.551  0.00  0.00    -0.075 C 
ATOM      7  H   UNL     1      35.599 -14.050 -22.809  0.00  0.00    -0.080 HD
ENDROOT
BRANCH   2   8
ATOM      8  C   UNL     1      32.451 -11.394 -21.266  0.00  0.00    +0.002 C 
ATOM      9  C   UNL     1      32.323 -10.279 -22.092  0.00  0.00    +0.002 C 
ATOM     10  C   UNL     1      32.268 -11.270 -19.890  0.00  0.00    -0.002 C 
ATOM     11  C   UNL     1      32.013  -9.035 -21.541  0.00  0.00    +0.071 C 
ATOM     12  C   UNL     1      31.957 -10.027 -19.339  0.00  0.00    -0.000 C 
ATOM     13  C   UNL     1      31.830  -8.910 -20.165  0.00  0.00    +0.004 C 
BRANCH  11  17
ATOM     14  F   UNL     1      30.956  -7.999 -23.420  0.00  0.00    -0.166 F 
ATOM     15  F   UNL     1      31.495  -6.711 -21.760  0.00  0.00    -0.166 F 
ATOM     16  F   UNL     1      33.045  -7.519 -23.053  0.00  0.00    -0.166 F 
ATOM     17  C   UNL     1      31.878  -7.841 -22.424  0.00  0.00    +0.419 C 
ENDBRANCH  11  17
ENDBRANCH   2   8
BRANCH   2  18
ATOM     18  O   UNL     1      31.542 -13.466 -21.938  0.00  0.00    -0.383 OA
ATOM     19  H   UNL     1      31.714 -14.413 -22.064  0.00  0.00    +0.211 HD
ENDBRANCH   2  18
BRANCH   1  20
ATOM     20  C   UNL     1      35.284 -15.965 -23.416  0.00  0.00    -0.077 C 
BRANCH  20  21
ATOM     21  C   UNL     1      35.630 -16.915 -22.267  0.00  0.00    -0.015 C 
BRANCH  21  22
ATOM     22  C   UNL     1      35.810 -18.359 -22.743  0.00  0.00    +0.067 C 
BRANCH  22  24
ATOM     23  O   UNL     1      37.662 -19.234 -21.466  0.00  0.00    -0.291 OA
ATOM     24  C   UNL     1      36.457 -19.262 -21.701  0.00  0.00    +0.173 C 
BRANCH  24  26
ATOM     25  F   UNL     1      33.206 -22.761 -18.808  0.00  0.00    -0.204 F 
ATOM     26  C   UNL     1      35.589 -20.195 -20.928  0.00  0.00    +0.035 C 
ATOM     27  C   UNL     1      34.222 -20.088 -21.058  0.00  0.00    +0.005 C 
ATOM     28  C   UNL     1      36.186 -21.131 -20.114  0.00  0.00    +0.005 C 
ATOM     29  C   UNL     1      33.410 -20.962 -20.335  0.00  0.00    +0.030 C 
ATOM     30  C   UNL     1      35.374 -22.005 -19.391  0.00  0.00    +0.030 C 
ATOM     31  C   UNL     1      33.986 -21.921 -19.502  0.00  0.00    +0.140 C 
ENDBRANCH  24  26
ENDBRANCH  22  24
ENDBRANCH  21  22
ENDBRANCH  20  21
ENDBRANCH   1  20
TORSDOF 8
ENDMDL
MODEL 8
REMARK VINA RESULT:     -10.9      2.823      3.483
REMARK  Name = 5567
REMARK  8 active torsions:
REMARK  status: ('A' for Active; 'I' for Inactive)
REMARK    1  A    between atoms: N_1  and  C_20
REMARK    2  A    between atoms: C_2  and  C_8
REMARK    3  A    between atoms: C_2  and  O_18
REMARK    4  A    between atoms: C_11  and  C_17
REMARK    5  A    between atoms: C_20  and  C_21
REMARK    6  A    between atoms: C_21  and  C_22
REMARK    7  A    between atoms: C_22  and  C_24
REMARK    8  A    between atoms: C_24  and  C_26
REMARK                            x       y       z     vdW  Elec       q    Type
REMARK                         _______ _______ _______ _____ _____    ______ ____
ROOT
ATOM      1  N   UNL     1      35.010 -20.079 -20.859  0.00  0.00    +0.387 N 
ATOM      2  C   UNL     1      34.189 -22.324 -19.095  0.00  0.00    +0.103 C 
ATOM      3  C   UNL     1      33.224 -21.226 -19.595  0.00  0.00    +0.008 C 
ATOM      4  C   UNL     1      35.634 -21.779 -19.161  0.00  0.00    +0.008 C 
ATOM      5  C   UNL     1      33.648 -20.620 -20.938  0.00  0.00    -0.075 C 
ATOM      6  C   UNL     1      35.974 -21.127 -20.508  0.00  0.00    -0.075 C 
ATOM      7  H   UNL     1      35.026 -19.376 -20.120  0.00  0.00    -0.080 HD
ENDROOT
BRANCH   2   8
ATOM      8  C   UNL     1      33.883 -22.864 -17.697  0.00  0.00    +0.002 C 
ATOM      9  C   UNL     1      34.926 -23.166 -16.824  0.00  0.00    +0.002 C 
ATOM     10  C   UNL     1      32.560 -23.051 -17.298  0.00  0.00    -0.002 C 
ATOM     11  C   UNL     1      34.647 -23.657 -15.548  0.00  0.00    +0.071 C 
ATOM     12  C   UNL     1      32.281 -23.542 -16.022  0.00  0.00    -0.000 C 
ATOM     13  C   UNL     1      33.325 -23.846 -15.148  0.00  0.00    +0.004 C 
BRANCH  11  17
ATOM     14  F   UNL     1      35.522 -23.609 -13.322  0.00  0.00    -0.166 F 
ATOM     15  F   UNL     1      36.051 -25.317 -14.550  0.00  0.00    -0.166 F 
ATOM     16  F   UNL     1      36.933 -23.372 -14.959  0.00  0.00    -0.166 F 
ATOM     17  C   UNL     1      35.763 -23.983 -14.614  0.00  0.00    +0.419 C 
ENDBRANCH  11  17
ENDBRANCH   2   8
BRANCH   2  18
ATOM     18  O   UNL     1      34.064 -23.452 -19.975  0.00  0.00    -0.383 OA
ATOM     19  H   UNL     1      34.947 -23.756 -20.238  0.00  0.00    +0.211 HD
ENDBRANCH   2  18
BRANCH   1  20
ATOM     20  C   UNL     1      35.382 -19.440 -22.120  0.00  0.00    -0.077 C 
BRANCH  20  21
ATOM     21  C   UNL     1      36.197 -18.173 -21.851  0.00  0.00    -0.015 C 
BRANCH  21  22
ATOM     22  C   UNL     1      35.325 -17.017 -21.352  0.00  0.00    +0.067 C 
BRANCH  22  24
ATOM     23  O   UNL     1      35.748 -15.897 -23.449  0.00  0.00    -0.291 OA
ATOM     24  C   UNL     1      35.131 -15.916 -22.387  0.00  0.00    +0.173 C 
BRANCH  24  26
ATOM     25  F   UNL     1      31.419 -11.882 -21.329  0.00  0.00    -0.204 F 
ATOM     26  C   UNL     1      34.141 -14.839 -22.104  0.00  0.00    +0.035 C 
ATOM     27  C   UNL     1      33.754 -14.009 -23.134  0.00  0.00    +0.005 C 
ATOM     28  C   UNL     1      33.649 -14.712 -20.825  0.00  0.00    +0.005 C 
ATOM     29  C   UNL     1      32.827 -13.001 -22.869  0.00  0.00    +0.030 C 
ATOM     30  C   UNL     1      32.721 -13.704 -20.561  0.00  0.00    +0.030 C 
ATOM     31  C   UNL     1      32.310 -12.849 -21.583  0.00  0.00    +0.140 C 
ENDBRANCH  24  26
ENDBRANCH  22  24
ENDBRANCH  21  22
ENDBRANCH  20  21
ENDBRANCH   1  20
TORSDOF 8
ENDMDL
MODEL 9
REMARK VINA RESULT:     -10.8      1.919     10.173
REMARK  Name = 5567
REMARK  8 active torsions:
REMARK  status: ('A' for Active; 'I' for Inactive)
REMARK    1  A    between atoms: N_1  and  C_20
REMARK    2  A    between atoms: C_2  and  C_8
REMARK    3  A    between atoms: C_2  and  O_18
REMARK    4  A    between atoms: C_11  and  C_17
REMARK    5  A    between atoms: C_20  and  C_21
REMARK    6  A    between atoms: C_21  and  C_22
REMARK    7  A    between atoms: C_22  and  C_24
REMARK    8  A    between atoms: C_24  and  C_26
REMARK                            x       y       z     vdW  Elec       q    Type
REMARK                         _______ _______ _______ _____ _____    ______ ____
ROOT
ATOM      1  N   UNL     1      36.169 -20.080 -20.254  0.00  0.00    +0.387 N 
ATOM      2  C   UNL     1      35.672 -18.662 -22.817  0.00  0.00    +0.103 C 
ATOM      3  C   UNL     1      36.932 -18.453 -21.949  0.00  0.00    +0.008 C 
ATOM      4  C   UNL     1      34.543 -19.222 -21.921  0.00  0.00    +0.008 C 
ATOM      5  C   UNL     1      37.294 -19.683 -21.109  0.00  0.00    -0.075 C 
ATOM      6  C   UNL     1      34.987 -20.409 -21.057  0.00  0.00    -0.075 C 
ATOM      7  H   UNL     1      35.934 -19.287 -19.657  0.00  0.00    -0.080 HD
ENDROOT
BRANCH   2   8
ATOM      8  C   UNL     1      35.193 -17.420 -23.570  0.00  0.00    +0.002 C 
ATOM      9  C   UNL     1      35.007 -16.220 -22.885  0.00  0.00    +0.002 C 
ATOM     10  C   UNL     1      34.947 -17.490 -24.940  0.00  0.00    -0.002 C 
ATOM     11  C   UNL     1      34.571 -15.086 -23.573  0.00  0.00    +0.071 C 
ATOM     12  C   UNL     1      34.512 -16.356 -25.627  0.00  0.00    -0.000 C 
ATOM     13  C   UNL     1      34.324 -15.155 -24.943  0.00  0.00    +0.004 C 
BRANCH  11  17
ATOM     14  F   UNL     1      33.060 -13.536 -22.556  0.00  0.00    -0.166 F 
ATOM     15  F   UNL     1      35.012 -13.753 -21.637  0.00  0.00    -0.166 F 
ATOM     16  F   UNL     1      34.818 -12.722 -23.542  0.00  0.00    -0.166 F 
ATOM     17  C   UNL     1      34.369 -13.803 -22.841  0.00  0.00    +0.419 C 
ENDBRANCH  11  17
ENDBRANCH   2   8
BRANCH   2  18
ATOM     18  O   UNL     1      35.994 -19.624 -23.834  0.00  0.00    -0.383 OA
ATOM     19  H   UNL     1      35.183 -19.890 -24.296  0.00  0.00    +0.211 HD
ENDBRANCH   2  18
BRANCH   1  20
ATOM     20  C   UNL     1      36.544 -21.210 -19.404  0.00  0.00    -0.077 C 
BRANCH  20  21
ATOM     21  C   UNL     1      35.475 -22.303 -19.475  0.00  0.00    -0.015 C 
BRANCH  21  22
ATOM     22  C   UNL     1      34.909 -22.651 -18.096  0.00  0.00    +0.067 C 
BRANCH  22  24
ATOM     23  O   UNL     1      32.701 -22.483 -19.057  0.00  0.00    -0.291 OA
ATOM     24  C   UNL     1      33.387 -22.704 -18.063  0.00  0.00    +0.173 C 
BRANCH  24  26
ATOM     25  F   UNL     1      30.863 -24.041 -13.265  0.00  0.00    -0.204 F 
ATOM     26  C   UNL     1      32.714 -23.060 -16.782  0.00  0.00    +0.035 C 
ATOM     27  C   UNL     1      31.339 -23.002 -16.719  0.00  0.00    +0.005 C 
ATOM     28  C   UNL     1      33.490 -23.435 -15.709  0.00  0.00    +0.005 C 
ATOM     29  C   UNL     1      30.708 -23.336 -15.521  0.00  0.00    +0.030 C 
ATOM     30  C   UNL     1      32.860 -23.768 -14.510  0.00  0.00    +0.030 C 
ATOM     31  C   UNL     1      31.469 -23.720 -14.416  0.00  0.00    +0.140 C 
ENDBRANCH  24  26
ENDBRANCH  22  24
ENDBRANCH  21  22
ENDBRANCH  20  21
ENDBRANCH   1  20
TORSDOF 8
ENDMDL
