MODEL 1
REMARK VINA RESULT:     -11.1      0.000      0.000
REMARK  Name = 176407
REMARK  5 active torsions:
REMARK  status: ('A' for Active; 'I' for Inactive)
REMARK    1  A    between atoms: N_1  and  C_20
REMARK    2  A    between atoms: C_11  and  C_16
REMARK    3  A    between atoms: C_20  and  C_21
REMARK    4  A    between atoms: C_21  and  C_22
REMARK    5  A    between atoms: C_27  and  O_28
REMARK                            x       y       z     vdW  Elec       q    Type
REMARK                         _______ _______ _______ _____ _____    ______ ____
ROOT
ATOM      1  N   UNL     1      36.412 -18.039 -22.900  0.00  0.00    -0.258 N 
ATOM      2  N   UNL     1      34.122 -14.866 -23.706  0.00  0.00    -0.059 N 
ATOM      3  N   UNL     1      35.244 -16.189 -22.126  0.00  0.00    -0.245 NA
ATOM      4  N   UNL     1      35.271 -16.687 -24.465  0.00  0.00    -0.294 NA
ATOM      5  N   UNL     1      33.355 -13.772 -23.823  0.00  0.00    -0.090 NA
ATOM      6  N   UNL     1      33.931 -14.184 -21.647  0.00  0.00    -0.267 NA
ATOM      7  N   UNL     1      34.118 -15.316 -26.020  0.00  0.00    -0.318 N 
ATOM      8  C   UNL     1      35.623 -16.938 -23.139  0.00  0.00    +0.213 C 
ATOM      9  C   UNL     1      34.469 -15.115 -22.409  0.00  0.00    +0.251 C 
ATOM     10  C   UNL     1      34.526 -15.662 -24.761  0.00  0.00    +0.282 C 
ATOM     11  C   UNL     1      33.268 -13.395 -22.546  0.00  0.00    +0.153 C 
ATOM     12  H   UNL     1      36.693 -18.597 -23.661  0.00  0.00    +0.160 HD
ATOM     13  H   UNL     1      33.554 -14.520 -26.154  0.00  0.00    +0.146 HD
ATOM     14  H   UNL     1      34.390 -15.862 -26.793  0.00  0.00    +0.146 HD
ENDROOT
BRANCH  11  16
ATOM     15  O   UNL     1      32.556 -11.003 -22.765  0.00  0.00    -0.439 OA
ATOM     16  C   UNL     1      32.506 -12.204 -22.131  0.00  0.00    +0.221 C 
ATOM     17  C   UNL     1      31.650 -12.146 -21.055  0.00  0.00    +0.052 C 
ATOM     18  C   UNL     1      31.142 -10.825 -21.027  0.00  0.00    +0.045 C 
ATOM     19  C   UNL     1      31.724 -10.170 -22.087  0.00  0.00    +0.181 C 
ENDBRANCH  11  16
BRANCH   1  20
ATOM     20  C   UNL     1      36.836 -18.397 -21.585  0.00  0.00    +0.103 C 
BRANCH  20  21
ATOM     21  C   UNL     1      36.988 -19.912 -21.453  0.00  0.00    +0.048 C 
BRANCH  21  22
ATOM     22  C   UNL     1      35.820 -20.566 -20.758  0.00  0.00    -0.020 C 
ATOM     23  C   UNL     1      34.534 -20.126 -21.030  0.00  0.00    -0.001 C 
ATOM     24  C   UNL     1      36.054 -21.595 -19.860  0.00  0.00    -0.001 C 
ATOM     25  C   UNL     1      33.454 -20.730 -20.387  0.00  0.00    +0.036 C 
ATOM     26  C   UNL     1      34.974 -22.200 -19.216  0.00  0.00    +0.036 C 
ATOM     27  C   UNL     1      33.674 -21.768 -19.480  0.00  0.00    +0.134 C 
BRANCH  27  28
ATOM     28  O   UNL     1      32.619 -22.357 -18.854  0.00  0.00    -0.506 OA
ATOM     29  H   UNL     1      31.851 -22.582 -19.340  0.00  0.00    +0.292 HD
ENDBRANCH  27  28
ENDBRANCH  21  22
ENDBRANCH  20  21
ENDBRANCH   1  20
TORSDOF 5
ENDMDL
MODEL 2
REMARK VINA RESULT:     -11.1      0.895      1.513
REMARK  Name = 176407
REMARK  5 active torsions:
REMARK  status: ('A' for Active; 'I' for Inactive)
REMARK    1  A    between atoms: N_1  and  C_20
REMARK    2  A    between atoms: C_11  and  C_16
REMARK    3  A    between atoms: C_20  and  C_21
REMARK    4  A    between atoms: C_21  and  C_22
REMARK    5  A    between atoms: C_27  and  O_28
REMARK                            x       y       z     vdW  Elec       q    Type
REMARK                         _______ _______ _______ _____ _____    ______ ____
ROOT
ATOM      1  N   UNL     1      35.913 -17.898 -23.151  0.00  0.00    -0.258 N 
ATOM      2  N   UNL     1      34.126 -14.541 -24.374  0.00  0.00    -0.059 N 
ATOM      3  N   UNL     1      35.092 -15.790 -22.638  0.00  0.00    -0.245 NA
ATOM      4  N   UNL     1      34.935 -16.615 -24.876  0.00  0.00    -0.294 NA
ATOM      5  N   UNL     1      33.539 -13.364 -24.637  0.00  0.00    -0.090 NA
ATOM      6  N   UNL     1      34.138 -13.548 -22.436  0.00  0.00    -0.267 NA
ATOM      7  N   UNL     1      33.947 -15.312 -26.595  0.00  0.00    -0.318 N 
ATOM      8  C   UNL     1      35.301 -16.728 -23.535  0.00  0.00    +0.213 C 
ATOM      9  C   UNL     1      34.486 -14.654 -23.061  0.00  0.00    +0.251 C 
ATOM     10  C   UNL     1      34.351 -15.536 -25.306  0.00  0.00    +0.282 C 
ATOM     11  C   UNL     1      33.570 -12.798 -23.428  0.00  0.00    +0.153 C 
ATOM     12  H   UNL     1      36.067 -18.598 -23.826  0.00  0.00    +0.160 HD
ATOM     13  H   UNL     1      33.512 -14.461 -26.834  0.00  0.00    +0.146 HD
ATOM     14  H   UNL     1      34.093 -16.000 -27.283  0.00  0.00    +0.146 HD
ENDROOT
BRANCH  11  16
ATOM     15  O   UNL     1      32.058 -11.170 -22.270  0.00  0.00    -0.439 OA
ATOM     16  C   UNL     1      33.027 -11.451 -23.180  0.00  0.00    +0.221 C 
ATOM     17  C   UNL     1      33.422 -10.306 -23.833  0.00  0.00    +0.052 C 
ATOM     18  C   UNL     1      32.647  -9.255 -23.287  0.00  0.00    +0.045 C 
ATOM     19  C   UNL     1      31.833  -9.832 -22.341  0.00  0.00    +0.181 C 
ENDBRANCH  11  16
BRANCH   1  20
ATOM     20  C   UNL     1      36.333 -18.128 -21.806  0.00  0.00    +0.103 C 
BRANCH  20  21
ATOM     21  C   UNL     1      36.711 -19.594 -21.595  0.00  0.00    +0.048 C 
BRANCH  21  22
ATOM     22  C   UNL     1      35.654 -20.378 -20.856  0.00  0.00    -0.020 C 
ATOM     23  C   UNL     1      36.039 -21.389 -19.990  0.00  0.00    -0.001 C 
ATOM     24  C   UNL     1      34.317 -20.072 -21.057  0.00  0.00    -0.001 C 
ATOM     25  C   UNL     1      35.062 -22.113 -19.308  0.00  0.00    +0.036 C 
ATOM     26  C   UNL     1      33.341 -20.797 -20.375  0.00  0.00    +0.036 C 
ATOM     27  C   UNL     1      33.713 -21.817 -19.500  0.00  0.00    +0.134 C 
BRANCH  27  28
ATOM     28  O   UNL     1      32.760 -22.525 -18.833  0.00  0.00    -0.506 OA
ATOM     29  H   UNL     1      32.031 -22.883 -19.299  0.00  0.00    +0.292 HD
ENDBRANCH  27  28
ENDBRANCH  21  22
ENDBRANCH  20  21
ENDBRANCH   1  20
TORSDOF 5
ENDMDL
MODEL 3
REMARK VINA RESULT:     -10.9      6.468     11.363
REMARK  Name = 176407
REMARK  5 active torsions:
REMARK  status: ('A' for Active; 'I' for Inactive)
REMARK    1  A    between atoms: N_1  and  C_20
REMARK    2  A    between atoms: C_11  and  C_16
REMARK    3  A    between atoms: C_20  and  C_21
REMARK    4  A    between atoms: C_21  and  C_22
REMARK    5  A    between atoms: C_27  and  O_28
REMARK                            x       y       z     vdW  Elec       q    Type
REMARK                         _______ _______ _______ _____ _____    ______ ____
ROOT
ATOM      1  N   UNL     1      32.788 -22.302 -18.915  0.00  0.00    -0.258 N 
ATOM      2  N   UNL     1      33.945 -23.912 -15.447  0.00  0.00    -0.059 N 
ATOM      3  N   UNL     1      34.486 -23.209 -17.619  0.00  0.00    -0.245 NA
ATOM      4  N   UNL     1      32.277 -23.020 -16.723  0.00  0.00    -0.294 NA
ATOM      5  N   UNL     1      34.476 -24.462 -14.345  0.00  0.00    -0.090 NA
ATOM      6  N   UNL     1      36.030 -24.200 -16.005  0.00  0.00    -0.267 NA
ATOM      7  N   UNL     1      31.784 -23.747 -14.520  0.00  0.00    -0.318 N 
ATOM      8  C   UNL     1      33.223 -22.859 -17.735  0.00  0.00    +0.213 C 
ATOM      9  C   UNL     1      34.869 -23.753 -16.439  0.00  0.00    +0.251 C 
ATOM     10  C   UNL     1      32.621 -23.541 -15.582  0.00  0.00    +0.282 C 
ATOM     11  C   UNL     1      35.744 -24.619 -14.735  0.00  0.00    +0.153 C 
ATOM     12  H   UNL     1      31.842 -22.042 -18.998  0.00  0.00    +0.160 HD
ATOM     13  H   UNL     1      32.131 -24.149 -13.690  0.00  0.00    +0.146 HD
ATOM     14  H   UNL     1      30.835 -23.493 -14.584  0.00  0.00    +0.146 HD
ENDROOT
BRANCH  11  16
ATOM     15  O   UNL     1      36.499 -25.840 -12.682  0.00  0.00    -0.439 OA
ATOM     16  C   UNL     1      36.768 -25.204 -13.852  0.00  0.00    +0.221 C 
ATOM     17  C   UNL     1      38.123 -25.183 -14.089  0.00  0.00    +0.052 C 
ATOM     18  C   UNL     1      38.725 -25.850 -12.995  0.00  0.00    +0.045 C 
ATOM     19  C   UNL     1      37.694 -26.230 -12.167  0.00  0.00    +0.181 C 
ENDBRANCH  11  16
BRANCH   1  20
ATOM     20  C   UNL     1      33.664 -22.087 -20.021  0.00  0.00    +0.103 C 
BRANCH  20  21
ATOM     21  C   UNL     1      33.473 -20.689 -20.606  0.00  0.00    +0.048 C 
BRANCH  21  22
ATOM     22  C   UNL     1      34.751 -20.092 -21.145  0.00  0.00    -0.020 C 
ATOM     23  C   UNL     1      35.939 -20.304 -20.464  0.00  0.00    -0.001 C 
ATOM     24  C   UNL     1      34.712 -19.344 -22.311  0.00  0.00    -0.001 C 
ATOM     25  C   UNL     1      37.119 -19.752 -20.961  0.00  0.00    +0.036 C 
ATOM     26  C   UNL     1      35.892 -18.793 -22.808  0.00  0.00    +0.036 C 
ATOM     27  C   UNL     1      37.096 -18.996 -22.134  0.00  0.00    +0.134 C 
BRANCH  27  28
ATOM     28  O   UNL     1      38.249 -18.459 -22.619  0.00  0.00    -0.506 OA
ATOM     29  H   UNL     1      39.069 -18.672 -22.220  0.00  0.00    +0.292 HD
ENDBRANCH  27  28
ENDBRANCH  21  22
ENDBRANCH  20  21
ENDBRANCH   1  20
TORSDOF 5
ENDMDL
MODEL 4
REMARK VINA RESULT:     -10.8      5.128      9.733
REMARK  Name = 176407
REMARK  5 active torsions:
REMARK  status: ('A' for Active; 'I' for Inactive)
REMARK    1  A    between atoms: N_1  and  C_20
REMARK    2  A    between atoms: C_11  and  C_16
REMARK    3  A    between atoms: C_20  and  C_21
REMARK    4  A    between atoms: C_21  and  C_22
REMARK    5  A    between atoms: C_27  and  O_28
REMARK                            x       y       z     vdW  Elec       q    Type
REMARK                         _______ _______ _______ _____ _____    ______ ____
ROOT
ATOM      1  N   UNL     1      36.293 -21.096 -20.080  0.00  0.00    -0.258 N 
ATOM      2  N   UNL     1      34.382 -23.008 -17.139  0.00  0.00    -0.059 N 
ATOM      3  N   UNL     1      34.295 -21.871 -19.189  0.00  0.00    -0.245 NA
ATOM      4  N   UNL     1      36.345 -22.245 -18.017  0.00  0.00    -0.294 NA
ATOM      5  N   UNL     1      33.609 -23.624 -16.232  0.00  0.00    -0.090 NA
ATOM      6  N   UNL     1      32.386 -22.809 -17.986  0.00  0.00    -0.267 NA
ATOM      7  N   UNL     1      36.377 -23.401 -15.946  0.00  0.00    -0.318 N 
ATOM      8  C   UNL     1      35.601 -21.748 -19.087  0.00  0.00    +0.213 C 
ATOM      9  C   UNL     1      33.655 -22.521 -18.187  0.00  0.00    +0.251 C 
ATOM     10  C   UNL     1      35.753 -22.872 -17.043  0.00  0.00    +0.282 C 
ATOM     11  C   UNL     1      32.406 -23.475 -16.792  0.00  0.00    +0.153 C 
ATOM     12  H   UNL     1      37.270 -21.006 -19.999  0.00  0.00    +0.160 HD
ATOM     13  H   UNL     1      35.849 -23.863 -15.254  0.00  0.00    +0.146 HD
ATOM     14  H   UNL     1      37.354 -23.322 -15.849  0.00  0.00    +0.146 HD
ENDROOT
BRANCH  11  16
ATOM     15  O   UNL     1      31.153 -25.014 -15.262  0.00  0.00    -0.439 OA
ATOM     16  C   UNL     1      31.180 -23.998 -16.163  0.00  0.00    +0.221 C 
ATOM     17  C   UNL     1      29.907 -23.533 -16.404  0.00  0.00    +0.052 C 
ATOM     18  C   UNL     1      29.045 -24.314 -15.598  0.00  0.00    +0.045 C 
ATOM     19  C   UNL     1      29.851 -25.200 -14.923  0.00  0.00    +0.181 C 
ENDBRANCH  11  16
BRANCH   1  20
ATOM     20  C   UNL     1      35.639 -20.545 -21.224  0.00  0.00    +0.103 C 
BRANCH  20  21
ATOM     21  C   UNL     1      36.246 -19.195 -21.603  0.00  0.00    +0.048 C 
BRANCH  21  22
ATOM     22  C   UNL     1      35.658 -18.615 -22.865  0.00  0.00    -0.020 C 
ATOM     23  C   UNL     1      35.735 -17.248 -23.085  0.00  0.00    -0.001 C 
ATOM     24  C   UNL     1      35.052 -19.459 -23.783  0.00  0.00    -0.001 C 
ATOM     25  C   UNL     1      35.191 -16.712 -24.252  0.00  0.00    +0.036 C 
ATOM     26  C   UNL     1      34.508 -18.923 -24.949  0.00  0.00    +0.036 C 
ATOM     27  C   UNL     1      34.578 -17.549 -25.184  0.00  0.00    +0.134 C 
BRANCH  27  28
ATOM     28  O   UNL     1      34.048 -17.025 -26.323  0.00  0.00    -0.506 OA
ATOM     29  H   UNL     1      34.225 -17.426 -27.151  0.00  0.00    +0.292 HD
ENDBRANCH  27  28
ENDBRANCH  21  22
ENDBRANCH  20  21
ENDBRANCH   1  20
TORSDOF 5
ENDMDL
MODEL 5
REMARK VINA RESULT:     -10.6      4.659      9.964
REMARK  Name = 176407
REMARK  5 active torsions:
REMARK  status: ('A' for Active; 'I' for Inactive)
REMARK    1  A    between atoms: N_1  and  C_20
REMARK    2  A    between atoms: C_11  and  C_16
REMARK    3  A    between atoms: C_20  and  C_21
REMARK    4  A    between atoms: C_21  and  C_22
REMARK    5  A    between atoms: C_27  and  O_28
REMARK                            x       y       z     vdW  Elec       q    Type
REMARK                         _______ _______ _______ _____ _____    ______ ____
ROOT
ATOM      1  N   UNL     1      34.661 -20.365 -21.267  0.00  0.00    -0.258 N 
ATOM      2  N   UNL     1      34.621 -22.579 -17.942  0.00  0.00    -0.059 N 
ATOM      3  N   UNL     1      35.836 -21.332 -19.516  0.00  0.00    -0.245 NA
ATOM      4  N   UNL     1      33.468 -21.626 -19.666  0.00  0.00    -0.294 NA
ATOM      5  N   UNL     1      34.762 -23.300 -16.820  0.00  0.00    -0.090 NA
ATOM      6  N   UNL     1      36.763 -22.474 -17.564  0.00  0.00    -0.267 NA
ATOM      7  N   UNL     1      32.288 -22.897 -18.048  0.00  0.00    -0.318 N 
ATOM      8  C   UNL     1      34.687 -21.122 -20.120  0.00  0.00    +0.213 C 
ATOM      9  C   UNL     1      35.813 -22.084 -18.389  0.00  0.00    +0.251 C 
ATOM     10  C   UNL     1      33.421 -22.351 -18.587  0.00  0.00    +0.282 C 
ATOM     11  C   UNL     1      36.081 -23.206 -16.632  0.00  0.00    +0.153 C 
ATOM     12  H   UNL     1      33.799 -20.210 -21.716  0.00  0.00    +0.160 HD
ATOM     13  H   UNL     1      32.344 -23.434 -17.224  0.00  0.00    +0.146 HD
ATOM     14  H   UNL     1      31.417 -22.753 -18.483  0.00  0.00    +0.146 HD
ENDROOT
BRANCH  11  16
ATOM     15  O   UNL     1      37.605 -23.213 -14.644  0.00  0.00    -0.439 OA
ATOM     16  C   UNL     1      36.756 -23.850 -15.491  0.00  0.00    +0.221 C 
ATOM     17  C   UNL     1      36.621 -25.172 -15.135  0.00  0.00    +0.052 C 
ATOM     18  C   UNL     1      37.440 -25.358 -13.995  0.00  0.00    +0.045 C 
ATOM     19  C   UNL     1      38.017 -24.137 -13.737  0.00  0.00    +0.181 C 
ENDBRANCH  11  16
BRANCH   1  20
ATOM     20  C   UNL     1      35.845 -19.796 -21.827  0.00  0.00    +0.103 C 
BRANCH  20  21
ATOM     21  C   UNL     1      35.785 -18.269 -21.795  0.00  0.00    +0.048 C 
BRANCH  21  22
ATOM     22  C   UNL     1      35.331 -17.667 -23.102  0.00  0.00    -0.020 C 
ATOM     23  C   UNL     1      34.904 -18.502 -24.123  0.00  0.00    -0.001 C 
ATOM     24  C   UNL     1      35.349 -16.290 -23.258  0.00  0.00    -0.001 C 
ATOM     25  C   UNL     1      34.485 -17.945 -25.331  0.00  0.00    +0.036 C 
ATOM     26  C   UNL     1      34.930 -15.733 -24.466  0.00  0.00    +0.036 C 
ATOM     27  C   UNL     1      34.498 -16.561 -25.503  0.00  0.00    +0.134 C 
BRANCH  27  28
ATOM     28  O   UNL     1      34.088 -16.019 -26.682  0.00  0.00    -0.506 OA
ATOM     29  H   UNL     1      34.468 -16.308 -27.488  0.00  0.00    +0.292 HD
ENDBRANCH  27  28
ENDBRANCH  21  22
ENDBRANCH  20  21
ENDBRANCH   1  20
TORSDOF 5
ENDMDL
MODEL 6
REMARK VINA RESULT:     -10.4      5.531     10.489
REMARK  Name = 176407
REMARK  5 active torsions:
REMARK  status: ('A' for Active; 'I' for Inactive)
REMARK    1  A    between atoms: N_1  and  C_20
REMARK    2  A    between atoms: C_11  and  C_16
REMARK    3  A    between atoms: C_20  and  C_21
REMARK    4  A    between atoms: C_21  and  C_22
REMARK    5  A    between atoms: C_27  and  O_28
REMARK                            x       y       z     vdW  Elec       q    Type
REMARK                         _______ _______ _______ _____ _____    ______ ____
ROOT
ATOM      1  N   UNL     1      34.051 -21.366 -20.404  0.00  0.00    -0.258 N 
ATOM      2  N   UNL     1      33.795 -23.201 -16.864  0.00  0.00    -0.059 N 
ATOM      3  N   UNL     1      35.128 -22.324 -18.585  0.00  0.00    -0.245 NA
ATOM      4  N   UNL     1      32.739 -22.258 -18.655  0.00  0.00    -0.294 NA
ATOM      5  N   UNL     1      33.865 -23.818 -15.676  0.00  0.00    -0.090 NA
ATOM      6  N   UNL     1      35.940 -23.394 -16.543  0.00  0.00    -0.267 NA
ATOM      7  N   UNL     1      31.438 -23.160 -16.888  0.00  0.00    -0.318 N 
ATOM      8  C   UNL     1      34.003 -21.998 -19.184  0.00  0.00    +0.213 C 
ATOM      9  C   UNL     1      35.031 -22.945 -17.385  0.00  0.00    +0.251 C 
ATOM     10  C   UNL     1      32.621 -22.854 -17.505  0.00  0.00    +0.282 C 
ATOM     11  C   UNL     1      35.188 -23.913 -15.525  0.00  0.00    +0.153 C 
ATOM     12  H   UNL     1      33.207 -21.125 -20.849  0.00  0.00    +0.160 HD
ATOM     13  H   UNL     1      31.441 -23.613 -16.013  0.00  0.00    +0.146 HD
ATOM     14  H   UNL     1      30.583 -22.925 -17.318  0.00  0.00    +0.146 HD
ENDROOT
BRANCH  11  16
ATOM     15  O   UNL     1      36.841 -25.406 -14.379  0.00  0.00    -0.439 OA
ATOM     16  C   UNL     1      35.798 -24.536 -14.338  0.00  0.00    +0.221 C 
ATOM     17  C   UNL     1      35.397 -24.325 -13.039  0.00  0.00    +0.052 C 
ATOM     18  C   UNL     1      36.248 -25.116 -12.230  0.00  0.00    +0.045 C 
ATOM     19  C   UNL     1      37.109 -25.754 -13.093  0.00  0.00    +0.181 C 
ENDBRANCH  11  16
BRANCH   1  20
ATOM     20  C   UNL     1      35.287 -21.048 -21.044  0.00  0.00    +0.103 C 
BRANCH  20  21
ATOM     21  C   UNL     1      35.549 -19.543 -21.009  0.00  0.00    +0.048 C 
BRANCH  21  22
ATOM     22  C   UNL     1      35.340 -18.874 -22.346  0.00  0.00    -0.020 C 
ATOM     23  C   UNL     1      35.629 -17.525 -22.483  0.00  0.00    -0.001 C 
ATOM     24  C   UNL     1      34.863 -19.620 -23.411  0.00  0.00    -0.001 C 
ATOM     25  C   UNL     1      35.435 -16.907 -23.718  0.00  0.00    +0.036 C 
ATOM     26  C   UNL     1      34.669 -19.002 -24.646  0.00  0.00    +0.036 C 
ATOM     27  C   UNL     1      34.955 -17.646 -24.800  0.00  0.00    +0.134 C 
BRANCH  27  28
ATOM     28  O   UNL     1      34.767 -17.041 -26.005  0.00  0.00    -0.506 OA
ATOM     29  H   UNL     1      35.316 -16.328 -26.263  0.00  0.00    +0.292 HD
ENDBRANCH  27  28
ENDBRANCH  21  22
ENDBRANCH  20  21
ENDBRANCH   1  20
TORSDOF 5
ENDMDL
MODEL 7
REMARK VINA RESULT:     -10.3      5.723      8.505
REMARK  Name = 176407
REMARK  5 active torsions:
REMARK  status: ('A' for Active; 'I' for Inactive)
REMARK    1  A    between atoms: N_1  and  C_20
REMARK    2  A    between atoms: C_11  and  C_16
REMARK    3  A    between atoms: C_20  and  C_21
REMARK    4  A    between atoms: C_21  and  C_22
REMARK    5  A    between atoms: C_27  and  O_28
REMARK                            x       y       z     vdW  Elec       q    Type
REMARK                         _______ _______ _______ _____ _____    ______ ____
ROOT
ATOM      1  N   UNL     1      36.568 -23.340 -16.202  0.00  0.00    -0.258 N 
ATOM      2  N   UNL     1      34.792 -21.622 -19.341  0.00  0.00    -0.059 N 
ATOM      3  N   UNL     1      36.726 -21.948 -18.052  0.00  0.00    -0.245 NA
ATOM      4  N   UNL     1      34.640 -22.991 -17.521  0.00  0.00    -0.294 NA
ATOM      5  N   UNL     1      34.334 -20.980 -20.425  0.00  0.00    -0.090 NA
ATOM      6  N   UNL     1      36.552 -20.553 -20.051  0.00  0.00    -0.267 NA
ATOM      7  N   UNL     1      32.715 -22.626 -18.857  0.00  0.00    -0.318 N 
ATOM      8  C   UNL     1      35.992 -22.731 -17.292  0.00  0.00    +0.213 C 
ATOM      9  C   UNL     1      36.115 -21.370 -19.114  0.00  0.00    +0.251 C 
ATOM     10  C   UNL     1      34.032 -22.447 -18.534  0.00  0.00    +0.282 C 
ATOM     11  C   UNL     1      35.440 -20.344 -20.820  0.00  0.00    +0.153 C 
ATOM     12  H   UNL     1      36.015 -23.925 -15.635  0.00  0.00    +0.160 HD
ATOM     13  H   UNL     1      32.336 -22.174 -19.646  0.00  0.00    +0.146 HD
ATOM     14  H   UNL     1      32.147 -23.208 -18.303  0.00  0.00    +0.146 HD
ENDROOT
BRANCH  11  16
ATOM     15  O   UNL     1      34.837 -19.764 -23.181  0.00  0.00    -0.439 OA
ATOM     16  C   UNL     1      35.462 -19.475 -22.010  0.00  0.00    +0.221 C 
ATOM     17  C   UNL     1      36.113 -18.266 -22.096  0.00  0.00    +0.052 C 
ATOM     18  C   UNL     1      35.872 -17.781 -23.403  0.00  0.00    +0.045 C 
ATOM     19  C   UNL     1      35.092 -18.728 -24.024  0.00  0.00    +0.181 C 
ENDBRANCH  11  16
BRANCH   1  20
ATOM     20  C   UNL     1      37.943 -23.151 -15.867  0.00  0.00    +0.103 C 
BRANCH  20  21
ATOM     21  C   UNL     1      38.443 -24.273 -14.958  0.00  0.00    +0.048 C 
BRANCH  21  22
ATOM     22  C   UNL     1      37.727 -24.323 -13.631  0.00  0.00    -0.020 C 
ATOM     23  C   UNL     1      37.051 -25.477 -13.267  0.00  0.00    -0.001 C 
ATOM     24  C   UNL     1      37.759 -23.215 -12.799  0.00  0.00    -0.001 C 
ATOM     25  C   UNL     1      36.388 -25.523 -12.041  0.00  0.00    +0.036 C 
ATOM     26  C   UNL     1      37.097 -23.261 -11.573  0.00  0.00    +0.036 C 
ATOM     27  C   UNL     1      36.412 -24.415 -11.193  0.00  0.00    +0.134 C 
BRANCH  27  28
ATOM     28  O   UNL     1      35.766 -24.462  -9.996  0.00  0.00    -0.506 OA
ATOM     29  H   UNL     1      36.101 -24.995  -9.303  0.00  0.00    +0.292 HD
ENDBRANCH  27  28
ENDBRANCH  21  22
ENDBRANCH  20  21
ENDBRANCH   1  20
TORSDOF 5
ENDMDL
MODEL 8
REMARK VINA RESULT:     -10.2      3.947      9.283
REMARK  Name = 176407
REMARK  5 active torsions:
REMARK  status: ('A' for Active; 'I' for Inactive)
REMARK    1  A    between atoms: N_1  and  C_20
REMARK    2  A    between atoms: C_11  and  C_16
REMARK    3  A    between atoms: C_20  and  C_21
REMARK    4  A    between atoms: C_21  and  C_22
REMARK    5  A    between atoms: C_27  and  O_28
REMARK                            x       y       z     vdW  Elec       q    Type
REMARK                         _______ _______ _______ _____ _____    ______ ____
ROOT
ATOM      1  N   UNL     1      35.802 -20.090 -21.796  0.00  0.00    -0.258 N 
ATOM      2  N   UNL     1      34.962 -22.167 -18.488  0.00  0.00    -0.059 N 
ATOM      3  N   UNL     1      34.210 -21.071 -20.422  0.00  0.00    -0.245 NA
ATOM      4  N   UNL     1      36.526 -21.202 -19.842  0.00  0.00    -0.294 NA
ATOM      5  N   UNL     1      34.531 -22.854 -17.420  0.00  0.00    -0.090 NA
ATOM      6  N   UNL     1      32.804 -22.200 -18.773  0.00  0.00    -0.267 NA
ATOM      7  N   UNL     1      37.233 -22.322 -17.874  0.00  0.00    -0.318 N 
ATOM      8  C   UNL     1      35.475 -20.804 -20.667  0.00  0.00    +0.213 C 
ATOM      9  C   UNL     1      33.935 -21.776 -19.298  0.00  0.00    +0.251 C 
ATOM     10  C   UNL     1      36.287 -21.879 -18.757  0.00  0.00    +0.282 C 
ATOM     11  C   UNL     1      33.213 -22.846 -17.639  0.00  0.00    +0.153 C 
ATOM     12  H   UNL     1      36.750 -19.892 -21.975  0.00  0.00    +0.160 HD
ATOM     13  H   UNL     1      36.962 -22.831 -17.075  0.00  0.00    +0.146 HD
ATOM     14  H   UNL     1      38.186 -22.134 -18.037  0.00  0.00    +0.146 HD
ENDROOT
BRANCH  11  16
ATOM     15  O   UNL     1      32.622 -24.330 -15.709  0.00  0.00    -0.439 OA
ATOM     16  C   UNL     1      32.263 -23.494 -16.718  0.00  0.00    +0.221 C 
ATOM     17  C   UNL     1      30.896 -23.342 -16.755  0.00  0.00    +0.052 C 
ATOM     18  C   UNL     1      30.383 -24.136 -15.702  0.00  0.00    +0.045 C 
ATOM     19  C   UNL     1      31.472 -24.716 -15.096  0.00  0.00    +0.181 C 
ENDBRANCH  11  16
BRANCH   1  20
ATOM     20  C   UNL     1      34.812 -19.629 -22.716  0.00  0.00    +0.103 C 
BRANCH  20  21
ATOM     21  C   UNL     1      35.460 -19.090 -23.990  0.00  0.00    +0.048 C 
BRANCH  21  22
ATOM     22  C   UNL     1      35.059 -17.669 -24.303  0.00  0.00    -0.020 C 
ATOM     23  C   UNL     1      34.456 -17.384 -25.518  0.00  0.00    -0.001 C 
ATOM     24  C   UNL     1      35.301 -16.674 -23.368  0.00  0.00    -0.001 C 
ATOM     25  C   UNL     1      34.087 -16.071 -25.807  0.00  0.00    +0.036 C 
ATOM     26  C   UNL     1      34.931 -15.361 -23.657  0.00  0.00    +0.036 C 
ATOM     27  C   UNL     1      34.324 -15.059 -24.876  0.00  0.00    +0.134 C 
BRANCH  27  28
ATOM     28  O   UNL     1      33.962 -13.778 -25.159  0.00  0.00    -0.506 OA
ATOM     29  H   UNL     1      33.987 -13.468 -26.042  0.00  0.00    +0.292 HD
ENDBRANCH  27  28
ENDBRANCH  21  22
ENDBRANCH  20  21
ENDBRANCH   1  20
TORSDOF 5
ENDMDL
MODEL 9
REMARK VINA RESULT:      -9.9      5.425      8.011
REMARK  Name = 176407
REMARK  5 active torsions:
REMARK  status: ('A' for Active; 'I' for Inactive)
REMARK    1  A    between atoms: N_1  and  C_20
REMARK    2  A    between atoms: C_11  and  C_16
REMARK    3  A    between atoms: C_20  and  C_21
REMARK    4  A    between atoms: C_21  and  C_22
REMARK    5  A    between atoms: C_27  and  O_28
REMARK                            x       y       z     vdW  Elec       q    Type
REMARK                         _______ _______ _______ _____ _____    ______ ____
ROOT
ATOM      1  N   UNL     1      36.780 -22.895 -16.692  0.00  0.00    -0.258 N 
ATOM      2  N   UNL     1      34.868 -21.323 -19.828  0.00  0.00    -0.059 N 
ATOM      3  N   UNL     1      36.811 -21.464 -18.519  0.00  0.00    -0.245 NA
ATOM      4  N   UNL     1      34.841 -22.730 -18.031  0.00  0.00    -0.294 NA
ATOM      5  N   UNL     1      34.358 -20.715 -20.909  0.00  0.00    -0.090 NA
ATOM      6  N   UNL     1      36.513 -20.062 -20.499  0.00  0.00    -0.267 NA
ATOM      7  N   UNL     1      32.904 -22.549 -19.388  0.00  0.00    -0.318 N 
ATOM      8  C   UNL     1      36.155 -22.333 -17.780  0.00  0.00    +0.213 C 
ATOM      9  C   UNL     1      36.155 -20.936 -19.580  0.00  0.00    +0.251 C 
ATOM     10  C   UNL     1      34.191 -22.236 -19.044  0.00  0.00    +0.282 C 
ATOM     11  C   UNL     1      35.395 -19.960 -21.279  0.00  0.00    +0.153 C 
ATOM     12  H   UNL     1      36.285 -23.544 -16.142  0.00  0.00    +0.160 HD
ATOM     13  H   UNL     1      32.488 -22.127 -20.175  0.00  0.00    +0.146 HD
ATOM     14  H   UNL     1      32.394 -23.197 -18.850  0.00  0.00    +0.146 HD
ENDROOT
BRANCH  11  16
ATOM     15  O   UNL     1      35.752 -17.780 -22.462  0.00  0.00    -0.439 OA
ATOM     16  C   UNL     1      35.338 -19.074 -22.456  0.00  0.00    +0.221 C 
ATOM     17  C   UNL     1      34.860 -19.434 -23.695  0.00  0.00    +0.052 C 
ATOM     18  C   UNL     1      34.989 -18.287 -24.515  0.00  0.00    +0.045 C 
ATOM     19  C   UNL     1      35.536 -17.308 -23.718  0.00  0.00    +0.181 C 
ENDBRANCH  11  16
BRANCH   1  20
ATOM     20  C   UNL     1      38.123 -22.567 -16.336  0.00  0.00    +0.103 C 
BRANCH  20  21
ATOM     21  C   UNL     1      38.949 -23.830 -16.100  0.00  0.00    +0.048 C 
BRANCH  21  22
ATOM     22  C   UNL     1      38.459 -24.649 -14.930  0.00  0.00    -0.020 C 
ATOM     23  C   UNL     1      38.423 -24.077 -13.668  0.00  0.00    -0.001 C 
ATOM     24  C   UNL     1      38.052 -25.957 -15.140  0.00  0.00    -0.001 C 
ATOM     25  C   UNL     1      37.971 -24.834 -12.588  0.00  0.00    +0.036 C 
ATOM     26  C   UNL     1      37.599 -26.713 -14.060  0.00  0.00    +0.036 C 
ATOM     27  C   UNL     1      37.558 -26.152 -12.784  0.00  0.00    +0.134 C 
BRANCH  27  28
ATOM     28  O   UNL     1      37.116 -26.889 -11.728  0.00  0.00    -0.506 OA
ATOM     29  H   UNL     1      36.909 -27.795 -11.844  0.00  0.00    +0.292 HD
ENDBRANCH  27  28
ENDBRANCH  21  22
ENDBRANCH  20  21
ENDBRANCH   1  20
TORSDOF 5
ENDMDL
