MODEL 1
REMARK VINA RESULT:     -11.8      0.000      0.000
REMARK  Name = 72696796
REMARK  9 active torsions:
REMARK  status: ('A' for Active; 'I' for Inactive)
REMARK    1  A    between atoms: N_2  and  C_29
REMARK    2  A    between atoms: C_10  and  C_12
REMARK    3  A    between atoms: C_13  and  C_16
REMARK    4  A    between atoms: N_15  and  C_18
REMARK    5  A    between atoms: C_18  and  C_20
REMARK    6  A    between atoms: C_29  and  O_30
REMARK    7  A    between atoms: O_30  and  P_31
REMARK    8  A    between atoms: P_31  and  O_33
REMARK    9  A    between atoms: P_31  and  O_35
REMARK                            x       y       z     vdW  Elec       q    Type
REMARK                         _______ _______ _______ _____ _____    ______ ____
ROOT
ATOM      1  O   UNL     1      35.965 -23.671 -15.460  0.00  0.00    -0.274 OA
ATOM      2  N   UNL     1      34.715 -22.892 -17.265  0.00  0.00    -0.217 N 
ATOM      3  N   UNL     1      33.482 -21.970 -19.114  0.00  0.00    -0.229 NA
ATOM      4  C   UNL     1      37.175 -21.951 -18.355  0.00  0.00    +0.039 C 
ATOM      5  C   UNL     1      35.867 -21.652 -19.017  0.00  0.00    +0.010 C 
ATOM      6  C   UNL     1      36.987 -22.035 -16.854  0.00  0.00    +0.090 C 
ATOM      7  C   UNL     1      34.674 -22.147 -18.487  0.00  0.00    +0.135 C 
ATOM      8  C   UNL     1      35.861 -22.973 -16.470  0.00  0.00    +0.233 C 
ATOM      9  C   UNL     1      35.821 -20.952 -20.226  0.00  0.00    +0.000 C 
ATOM     10  C   UNL     1      34.606 -20.750 -20.867  0.00  0.00    +0.019 C 
ATOM     11  C   UNL     1      33.475 -21.276 -20.274  0.00  0.00    +0.100 C 
ENDROOT
BRANCH  10  12
ATOM     12  C   UNL     1      34.525 -20.001 -22.106  0.00  0.00    +0.006 C 
ATOM     13  C   UNL     1      35.282 -18.923 -22.421  0.00  0.00    +0.058 C 
BRANCH  13  16
ATOM     14  O   UNL     1      34.889 -18.866 -24.748  0.00  0.00    -0.270 OA
ATOM     15  N   UNL     1      35.100 -16.818 -23.668  0.00  0.00    -0.267 N 
ATOM     16  C   UNL     1      35.081 -18.215 -23.719  0.00  0.00    +0.250 C 
ATOM     17  C   UNL     1      34.881 -16.054 -24.890  0.00  0.00    +0.116 C 
BRANCH  15  18
ATOM     18  C   UNL     1      35.292 -16.025 -22.456  0.00  0.00    +0.158 C 
BRANCH  18  20
ATOM     19  O   UNL     1      34.937 -13.879 -23.534  0.00  0.00    -0.456 OA
ATOM     20  C   UNL     1      34.566 -14.711 -22.525  0.00  0.00    +0.139 A 
ATOM     21  C   UNL     1      33.572 -14.142 -21.765  0.00  0.00    +0.013 A 
ATOM     22  C   UNL     1      33.306 -12.871 -22.339  0.00  0.00    +0.033 A 
ATOM     23  C   UNL     1      34.172 -12.757 -23.422  0.00  0.00    +0.145 A 
ATOM     24  C   UNL     1      32.913 -14.738 -20.587  0.00  0.00    +0.034 C 
ATOM     25  C   UNL     1      32.432 -11.806 -22.063  0.00  0.00    +0.003 C 
ATOM     26  C   UNL     1      34.231 -11.647 -24.262  0.00  0.00    +0.037 C 
ATOM     27  C   UNL     1      32.468 -10.674 -22.890  0.00  0.00    +0.000 C 
ATOM     28  C   UNL     1      33.353 -10.599 -23.969  0.00  0.00    +0.003 C 
ENDBRANCH  18  20
ENDBRANCH  15  18
ENDBRANCH  13  16
ENDBRANCH  10  12
BRANCH   2  29
ATOM     29  C   UNL     1      33.496 -23.588 -16.867  0.00  0.00    +0.257 C 
BRANCH  29  30
ATOM     30  O   UNL     1      33.070 -23.085 -15.615  0.00  0.00    -0.251 OA
BRANCH  30  31
ATOM     31  P   UNL     1      32.479 -24.127 -14.527  0.00  0.00    +0.475 P 
ATOM     32  O   UNL     1      31.226 -24.847 -14.934  0.00  0.00    -0.227 OA
BRANCH  31  33
ATOM     33  O   UNL     1      32.347 -23.231 -13.188  0.00  0.00    -0.303 OA
ATOM     34  H   UNL     1      33.217 -22.872 -12.952  0.00  0.00    +0.222 HD
ENDBRANCH  31  33
BRANCH  31  35
ATOM     35  O   UNL     1      33.736 -25.091 -14.198  0.00  0.00    -0.303 OA
ATOM     36  H   UNL     1      33.444 -26.016 -14.196  0.00  0.00    +0.222 HD
ENDBRANCH  31  35
ENDBRANCH  30  31
ENDBRANCH  29  30
ENDBRANCH   2  29
TORSDOF 9
ENDMDL
MODEL 2
REMARK VINA RESULT:     -11.8      1.918      3.331
REMARK  Name = 72696796
REMARK  9 active torsions:
REMARK  status: ('A' for Active; 'I' for Inactive)
REMARK    1  A    between atoms: N_2  and  C_29
REMARK    2  A    between atoms: C_10  and  C_12
REMARK    3  A    between atoms: C_13  and  C_16
REMARK    4  A    between atoms: N_15  and  C_18
REMARK    5  A    between atoms: C_18  and  C_20
REMARK    6  A    between atoms: C_29  and  O_30
REMARK    7  A    between atoms: O_30  and  P_31
REMARK    8  A    between atoms: P_31  and  O_33
REMARK    9  A    between atoms: P_31  and  O_35
REMARK                            x       y       z     vdW  Elec       q    Type
REMARK                         _______ _______ _______ _____ _____    ______ ____
ROOT
ATOM      1  O   UNL     1      35.059 -23.805 -15.016  0.00  0.00    -0.274 OA
ATOM      2  N   UNL     1      35.882 -22.567 -16.809  0.00  0.00    -0.217 N 
ATOM      3  N   UNL     1      36.687 -21.380 -18.742  0.00  0.00    -0.229 NA
ATOM      4  C   UNL     1      33.281 -22.794 -17.952  0.00  0.00    +0.039 C 
ATOM      5  C   UNL     1      34.408 -22.162 -18.705  0.00  0.00    +0.010 C 
ATOM      6  C   UNL     1      33.814 -23.882 -17.043  0.00  0.00    +0.090 C 
ATOM      7  C   UNL     1      35.669 -22.030 -18.119  0.00  0.00    +0.135 C 
ATOM      8  C   UNL     1      34.954 -23.394 -16.173  0.00  0.00    +0.233 C 
ATOM      9  C   UNL     1      34.201 -21.607 -19.972  0.00  0.00    +0.000 C 
ATOM     10  C   UNL     1      35.238 -20.957 -20.625  0.00  0.00    +0.019 C 
ATOM     11  C   UNL     1      36.452 -20.870 -19.971  0.00  0.00    +0.100 C 
ENDROOT
BRANCH  10  12
ATOM     12  C   UNL     1      35.060 -20.400 -21.953  0.00  0.00    +0.006 C 
ATOM     13  C   UNL     1      35.136 -19.085 -22.267  0.00  0.00    +0.058 C 
BRANCH  13  16
ATOM     14  O   UNL     1      34.384 -19.400 -24.483  0.00  0.00    -0.270 OA
ATOM     15  N   UNL     1      35.267 -17.314 -23.960  0.00  0.00    -0.267 N 
ATOM     16  C   UNL     1      34.899 -18.631 -23.669  0.00  0.00    +0.250 C 
ATOM     17  C   UNL     1      35.039 -16.787 -25.300  0.00  0.00    +0.116 C 
BRANCH  15  18
ATOM     18  C   UNL     1      35.846 -16.373 -23.004  0.00  0.00    +0.158 C 
BRANCH  18  20
ATOM     19  O   UNL     1      34.361 -15.495 -21.297  0.00  0.00    -0.456 OA
ATOM     20  C   UNL     1      34.849 -15.343 -22.556  0.00  0.00    +0.139 A 
ATOM     21  C   UNL     1      34.298 -14.237 -23.161  0.00  0.00    +0.013 A 
ATOM     22  C   UNL     1      33.409 -13.663 -22.215  0.00  0.00    +0.033 A 
ATOM     23  C   UNL     1      33.483 -14.474 -21.087  0.00  0.00    +0.145 A 
ATOM     24  C   UNL     1      34.580 -13.747 -24.524  0.00  0.00    +0.034 C 
ATOM     25  C   UNL     1      32.550 -12.551 -22.188  0.00  0.00    +0.003 C 
ATOM     26  C   UNL     1      32.756 -14.255 -19.919  0.00  0.00    +0.037 C 
ATOM     27  C   UNL     1      31.805 -12.304 -21.026  0.00  0.00    +0.000 C 
ATOM     28  C   UNL     1      31.908 -13.143 -19.913  0.00  0.00    +0.003 C 
ENDBRANCH  18  20
ENDBRANCH  15  18
ENDBRANCH  13  16
ENDBRANCH  10  12
BRANCH   2  29
ATOM     29  C   UNL     1      37.127 -22.210 -16.137  0.00  0.00    +0.257 C 
BRANCH  29  30
ATOM     30  O   UNL     1      38.104 -23.190 -16.431  0.00  0.00    -0.251 OA
BRANCH  30  31
ATOM     31  P   UNL     1      38.464 -24.284 -15.293  0.00  0.00    +0.475 P 
ATOM     32  O   UNL     1      38.293 -23.823 -13.875  0.00  0.00    -0.227 OA
BRANCH  31  33
ATOM     33  O   UNL     1      39.963 -24.747 -15.685  0.00  0.00    -0.303 OA
ATOM     34  H   UNL     1      40.107 -24.605 -16.634  0.00  0.00    +0.222 HD
ENDBRANCH  31  33
BRANCH  31  35
ATOM     35  O   UNL     1      37.567 -25.568 -15.700  0.00  0.00    -0.303 OA
ATOM     36  H   UNL     1      37.686 -25.761 -16.642  0.00  0.00    +0.222 HD
ENDBRANCH  31  35
ENDBRANCH  30  31
ENDBRANCH  29  30
ENDBRANCH   2  29
TORSDOF 9
ENDMDL
MODEL 3
REMARK VINA RESULT:     -11.8      1.568      2.777
REMARK  Name = 72696796
REMARK  9 active torsions:
REMARK  status: ('A' for Active; 'I' for Inactive)
REMARK    1  A    between atoms: N_2  and  C_29
REMARK    2  A    between atoms: C_10  and  C_12
REMARK    3  A    between atoms: C_13  and  C_16
REMARK    4  A    between atoms: N_15  and  C_18
REMARK    5  A    between atoms: C_18  and  C_20
REMARK    6  A    between atoms: C_29  and  O_30
REMARK    7  A    between atoms: O_30  and  P_31
REMARK    8  A    between atoms: P_31  and  O_33
REMARK    9  A    between atoms: P_31  and  O_35
REMARK                            x       y       z     vdW  Elec       q    Type
REMARK                         _______ _______ _______ _____ _____    ______ ____
ROOT
ATOM      1  O   UNL     1      34.082 -24.333 -14.800  0.00  0.00    -0.274 OA
ATOM      2  N   UNL     1      35.210 -23.173 -16.477  0.00  0.00    -0.217 N 
ATOM      3  N   UNL     1      36.312 -22.049 -18.297  0.00  0.00    -0.229 NA
ATOM      4  C   UNL     1      32.658 -22.737 -17.669  0.00  0.00    +0.039 C 
ATOM      5  C   UNL     1      33.918 -22.312 -18.354  0.00  0.00    +0.010 C 
ATOM      6  C   UNL     1      32.913 -23.981 -16.844  0.00  0.00    +0.090 C 
ATOM      7  C   UNL     1      35.159 -22.505 -17.742  0.00  0.00    +0.135 C 
ATOM      8  C   UNL     1      34.104 -23.823 -15.922  0.00  0.00    +0.233 C 
ATOM      9  C   UNL     1      33.875 -21.631 -19.574  0.00  0.00    +0.000 C 
ATOM     10  C   UNL     1      35.049 -21.177 -20.159  0.00  0.00    +0.019 C 
ATOM     11  C   UNL     1      36.231 -21.408 -19.484  0.00  0.00    +0.100 C 
ENDROOT
BRANCH  10  12
ATOM     12  C   UNL     1      35.037 -20.495 -21.440  0.00  0.00    +0.006 C 
ATOM     13  C   UNL     1      35.419 -19.213 -21.648  0.00  0.00    +0.058 C 
BRANCH  13  16
ATOM     14  O   UNL     1      35.272 -19.345 -24.001  0.00  0.00    -0.270 OA
ATOM     15  N   UNL     1      35.287 -17.216 -23.067  0.00  0.00    -0.267 N 
ATOM     16  C   UNL     1      35.329 -18.612 -23.011  0.00  0.00    +0.250 C 
ATOM     17  C   UNL     1      35.168 -16.555 -24.361  0.00  0.00    +0.116 C 
BRANCH  15  18
ATOM     18  C   UNL     1      35.317 -16.327 -21.907  0.00  0.00    +0.158 C 
BRANCH  18  20
ATOM     19  O   UNL     1      35.077 -14.341 -23.280  0.00  0.00    -0.456 OA
ATOM     20  C   UNL     1      34.637 -15.018 -22.187  0.00  0.00    +0.139 A 
ATOM     21  C   UNL     1      33.629 -14.325 -21.557  0.00  0.00    +0.013 A 
ATOM     22  C   UNL     1      33.429 -13.138 -22.310  0.00  0.00    +0.033 A 
ATOM     23  C   UNL     1      34.343 -13.195 -23.356  0.00  0.00    +0.145 A 
ATOM     24  C   UNL     1      32.902 -14.738 -20.342  0.00  0.00    +0.034 C 
ATOM     25  C   UNL     1      32.578 -12.023 -22.221  0.00  0.00    +0.003 C 
ATOM     26  C   UNL     1      34.473 -12.210 -24.334  0.00  0.00    +0.037 C 
ATOM     27  C   UNL     1      32.685 -11.016 -23.190  0.00  0.00    +0.000 C 
ATOM     28  C   UNL     1      33.617 -11.110 -24.227  0.00  0.00    +0.003 C 
ENDBRANCH  18  20
ENDBRANCH  15  18
ENDBRANCH  13  16
ENDBRANCH  10  12
BRANCH   2  29
ATOM     29  C   UNL     1      36.481 -23.150 -15.761  0.00  0.00    +0.257 C 
BRANCH  29  30
ATOM     30  O   UNL     1      37.170 -24.361 -16.012  0.00  0.00    -0.251 OA
BRANCH  30  31
ATOM     31  P   UNL     1      37.774 -25.179 -14.753  0.00  0.00    +0.475 P 
ATOM     32  O   UNL     1      38.638 -24.382 -13.819  0.00  0.00    -0.227 OA
BRANCH  31  33
ATOM     33  O   UNL     1      38.503 -26.444 -15.447  0.00  0.00    -0.303 OA
ATOM     34  H   UNL     1      37.854 -27.150 -15.594  0.00  0.00    +0.222 HD
ENDBRANCH  31  33
BRANCH  31  35
ATOM     35  O   UNL     1      36.467 -25.842 -14.066  0.00  0.00    -0.303 OA
ATOM     36  H   UNL     1      36.587 -25.872 -13.104  0.00  0.00    +0.222 HD
ENDBRANCH  31  35
ENDBRANCH  30  31
ENDBRANCH  29  30
ENDBRANCH   2  29
TORSDOF 9
ENDMDL
MODEL 4
REMARK VINA RESULT:     -11.7      5.574     12.135
REMARK  Name = 72696796
REMARK  9 active torsions:
REMARK  status: ('A' for Active; 'I' for Inactive)
REMARK    1  A    between atoms: N_2  and  C_29
REMARK    2  A    between atoms: C_10  and  C_12
REMARK    3  A    between atoms: C_13  and  C_16
REMARK    4  A    between atoms: N_15  and  C_18
REMARK    5  A    between atoms: C_18  and  C_20
REMARK    6  A    between atoms: C_29  and  O_30
REMARK    7  A    between atoms: O_30  and  P_31
REMARK    8  A    between atoms: P_31  and  O_33
REMARK    9  A    between atoms: P_31  and  O_35
REMARK                            x       y       z     vdW  Elec       q    Type
REMARK                         _______ _______ _______ _____ _____    ______ ____
ROOT
ATOM      1  O   UNL     1      32.015  -7.593 -20.424  0.00  0.00    -0.274 OA
ATOM      2  N   UNL     1      32.842  -8.998 -22.088  0.00  0.00    -0.217 N 
ATOM      3  N   UNL     1      33.738 -10.530 -23.713  0.00  0.00    -0.229 NA
ATOM      4  C   UNL     1      31.420 -11.102 -20.794  0.00  0.00    +0.039 C 
ATOM      5  C   UNL     1      32.320 -11.374 -21.958  0.00  0.00    +0.010 C 
ATOM      6  C   UNL     1      31.952  -9.933 -19.991  0.00  0.00    +0.090 C 
ATOM      7  C   UNL     1      32.986 -10.327 -22.600  0.00  0.00    +0.135 C 
ATOM      8  C   UNL     1      32.237  -8.725 -20.859  0.00  0.00    +0.233 C 
ATOM      9  C   UNL     1      32.442 -12.664 -22.483  0.00  0.00    +0.000 C 
ATOM     10  C   UNL     1      33.222 -12.885 -23.609  0.00  0.00    +0.019 C 
ATOM     11  C   UNL     1      33.843 -11.793 -24.183  0.00  0.00    +0.100 C 
ENDROOT
BRANCH  10  12
ATOM     12  C   UNL     1      33.391 -14.218 -24.157  0.00  0.00    +0.006 C 
ATOM     13  C   UNL     1      34.579 -14.803 -24.441  0.00  0.00    +0.058 C 
BRANCH  13  16
ATOM     14  O   UNL     1      34.275 -16.342 -26.206  0.00  0.00    -0.270 OA
ATOM     15  N   UNL     1      35.090 -17.190 -24.201  0.00  0.00    -0.267 N 
ATOM     16  C   UNL     1      34.621 -16.172 -25.035  0.00  0.00    +0.250 C 
ATOM     17  C   UNL     1      35.190 -18.550 -24.719  0.00  0.00    +0.116 C 
BRANCH  15  18
ATOM     18  C   UNL     1      35.538 -17.008 -22.822  0.00  0.00    +0.158 C 
BRANCH  18  20
ATOM     19  O   UNL     1      34.231 -18.741 -21.738  0.00  0.00    -0.456 OA
ATOM     20  C   UNL     1      35.476 -18.288 -22.038  0.00  0.00    +0.139 A 
ATOM     21  C   UNL     1      36.437 -19.135 -21.538  0.00  0.00    +0.013 A 
ATOM     22  C   UNL     1      35.742 -20.186 -20.883  0.00  0.00    +0.033 A 
ATOM     23  C   UNL     1      34.390 -19.896 -21.033  0.00  0.00    +0.145 A 
ATOM     24  C   UNL     1      37.899 -18.980 -21.661  0.00  0.00    +0.034 C 
ATOM     25  C   UNL     1      36.107 -21.346 -20.179  0.00  0.00    +0.003 C 
ATOM     26  C   UNL     1      33.361 -20.689 -20.529  0.00  0.00    +0.037 C 
ATOM     27  C   UNL     1      35.093 -22.164 -19.659  0.00  0.00    +0.000 C 
ATOM     28  C   UNL     1      33.746 -21.839 -19.832  0.00  0.00    +0.003 C 
ENDBRANCH  18  20
ENDBRANCH  15  18
ENDBRANCH  13  16
ENDBRANCH  10  12
BRANCH   2  29
ATOM     29  C   UNL     1      33.354  -7.907 -22.912  0.00  0.00    +0.257 C 
BRANCH  29  30
ATOM     30  O   UNL     1      32.263  -7.245 -23.524  0.00  0.00    -0.251 OA
BRANCH  30  31
ATOM     31  P   UNL     1      32.204  -5.629 -23.451  0.00  0.00    +0.475 P 
ATOM     32  O   UNL     1      30.880  -5.014 -23.800  0.00  0.00    -0.227 OA
BRANCH  31  33
ATOM     33  O   UNL     1      33.439  -5.171 -24.388  0.00  0.00    -0.303 OA
ATOM     34  H   UNL     1      33.467  -5.728 -25.182  0.00  0.00    +0.222 HD
ENDBRANCH  31  33
BRANCH  31  35
ATOM     35  O   UNL     1      32.733  -5.294 -21.959  0.00  0.00    -0.303 OA
ATOM     36  H   UNL     1      32.109  -4.696 -21.521  0.00  0.00    +0.222 HD
ENDBRANCH  31  35
ENDBRANCH  30  31
ENDBRANCH  29  30
ENDBRANCH   2  29
TORSDOF 9
ENDMDL
MODEL 5
REMARK VINA RESULT:     -11.2      1.143      1.847
REMARK  Name = 72696796
REMARK  9 active torsions:
REMARK  status: ('A' for Active; 'I' for Inactive)
REMARK    1  A    between atoms: N_2  and  C_29
REMARK    2  A    between atoms: C_10  and  C_12
REMARK    3  A    between atoms: C_13  and  C_16
REMARK    4  A    between atoms: N_15  and  C_18
REMARK    5  A    between atoms: C_18  and  C_20
REMARK    6  A    between atoms: C_29  and  O_30
REMARK    7  A    between atoms: O_30  and  P_31
REMARK    8  A    between atoms: P_31  and  O_33
REMARK    9  A    between atoms: P_31  and  O_35
REMARK                            x       y       z     vdW  Elec       q    Type
REMARK                         _______ _______ _______ _____ _____    ______ ____
ROOT
ATOM      1  O   UNL     1      36.595 -23.523 -15.077  0.00  0.00    -0.274 OA
ATOM      2  N   UNL     1      35.198 -22.984 -16.862  0.00  0.00    -0.217 N 
ATOM      3  N   UNL     1      33.796 -22.303 -18.695  0.00  0.00    -0.229 NA
ATOM      4  C   UNL     1      37.471 -21.749 -18.059  0.00  0.00    +0.039 C 
ATOM      5  C   UNL     1      36.116 -21.656 -18.686  0.00  0.00    +0.010 C 
ATOM      6  C   UNL     1      37.340 -21.809 -16.551  0.00  0.00    +0.090 C 
ATOM      7  C   UNL     1      35.019 -22.293 -18.103  0.00  0.00    +0.135 C 
ATOM      8  C   UNL     1      36.366 -22.879 -16.103  0.00  0.00    +0.233 C 
ATOM      9  C   UNL     1      35.938 -21.010 -19.913  0.00  0.00    +0.000 C 
ATOM     10  C   UNL     1      34.689 -20.999 -20.518  0.00  0.00    +0.019 C 
ATOM     11  C   UNL     1      33.660 -21.656 -19.874  0.00  0.00    +0.100 C 
ENDROOT
BRANCH  10  12
ATOM     12  C   UNL     1      34.469 -20.310 -21.776  0.00  0.00    +0.006 C 
ATOM     13  C   UNL     1      35.383 -19.546 -22.421  0.00  0.00    +0.058 C 
BRANCH  13  16
ATOM     14  O   UNL     1      34.560 -19.511 -24.633  0.00  0.00    -0.270 OA
ATOM     15  N   UNL     1      35.224 -17.476 -23.728  0.00  0.00    -0.267 N 
ATOM     16  C   UNL     1      35.025 -18.859 -23.696  0.00  0.00    +0.250 C 
ATOM     17  C   UNL     1      34.869 -16.729 -24.928  0.00  0.00    +0.116 C 
BRANCH  15  18
ATOM     18  C   UNL     1      35.741 -16.676 -22.620  0.00  0.00    +0.158 C 
BRANCH  18  20
ATOM     19  O   UNL     1      34.235 -15.636 -21.026  0.00  0.00    -0.456 OA
ATOM     20  C   UNL     1      34.809 -15.555 -22.254  0.00  0.00    +0.139 A 
ATOM     21  C   UNL     1      34.392 -14.422 -22.913  0.00  0.00    +0.013 A 
ATOM     22  C   UNL     1      33.499 -13.754 -22.035  0.00  0.00    +0.033 A 
ATOM     23  C   UNL     1      33.436 -14.541 -20.890  0.00  0.00    +0.145 A 
ATOM     24  C   UNL     1      34.797 -13.990 -24.264  0.00  0.00    +0.034 C 
ATOM     25  C   UNL     1      32.738 -12.574 -22.082  0.00  0.00    +0.003 C 
ATOM     26  C   UNL     1      32.661 -14.234 -19.773  0.00  0.00    +0.037 C 
ATOM     27  C   UNL     1      31.948 -12.238 -20.974  0.00  0.00    +0.000 C 
ATOM     28  C   UNL     1      31.911 -13.056 -19.842  0.00  0.00    +0.003 C 
ENDBRANCH  18  20
ENDBRANCH  15  18
ENDBRANCH  13  16
ENDBRANCH  10  12
BRANCH   2  29
ATOM     29  C   UNL     1      34.100 -23.828 -16.404  0.00  0.00    +0.257 C 
BRANCH  29  30
ATOM     30  O   UNL     1      33.419 -23.165 -15.355  0.00  0.00    -0.251 OA
BRANCH  30  31
ATOM     31  P   UNL     1      33.090 -23.995 -14.005  0.00  0.00    +0.475 P 
ATOM     32  O   UNL     1      32.442 -25.333 -14.210  0.00  0.00    -0.227 OA
BRANCH  31  33
ATOM     33  O   UNL     1      32.228 -22.946 -13.126  0.00  0.00    -0.303 OA
ATOM     34  H   UNL     1      32.309 -23.169 -12.186  0.00  0.00    +0.222 HD
ENDBRANCH  31  33
BRANCH  31  35
ATOM     35  O   UNL     1      34.509 -24.042 -13.229  0.00  0.00    -0.303 OA
ATOM     36  H   UNL     1      34.510 -23.384 -12.517  0.00  0.00    +0.222 HD
ENDBRANCH  31  35
ENDBRANCH  30  31
ENDBRANCH  29  30
ENDBRANCH   2  29
TORSDOF 9
ENDMDL
MODEL 6
REMARK VINA RESULT:     -10.7      2.261      3.523
REMARK  Name = 72696796
REMARK  9 active torsions:
REMARK  status: ('A' for Active; 'I' for Inactive)
REMARK    1  A    between atoms: N_2  and  C_29
REMARK    2  A    between atoms: C_10  and  C_12
REMARK    3  A    between atoms: C_13  and  C_16
REMARK    4  A    between atoms: N_15  and  C_18
REMARK    5  A    between atoms: C_18  and  C_20
REMARK    6  A    between atoms: C_29  and  O_30
REMARK    7  A    between atoms: O_30  and  P_31
REMARK    8  A    between atoms: P_31  and  O_33
REMARK    9  A    between atoms: P_31  and  O_35
REMARK                            x       y       z     vdW  Elec       q    Type
REMARK                         _______ _______ _______ _____ _____    ______ ____
ROOT
ATOM      1  O   UNL     1      34.566 -23.519 -18.017  0.00  0.00    -0.274 OA
ATOM      2  N   UNL     1      35.747 -21.831 -19.106  0.00  0.00    -0.217 N 
ATOM      3  N   UNL     1      36.909 -20.125 -20.342  0.00  0.00    -0.229 NA
ATOM      4  C   UNL     1      33.243 -20.992 -20.178  0.00  0.00    +0.039 C 
ATOM      5  C   UNL     1      34.525 -20.348 -20.602  0.00  0.00    +0.010 C 
ATOM      6  C   UNL     1      33.482 -22.451 -19.847  0.00  0.00    +0.090 C 
ATOM      7  C   UNL     1      35.740 -20.751 -20.044  0.00  0.00    +0.135 C 
ATOM      8  C   UNL     1      34.629 -22.637 -18.876  0.00  0.00    +0.233 C 
ATOM      9  C   UNL     1      34.524 -19.272 -21.495  0.00  0.00    +0.000 C 
ATOM     10  C   UNL     1      35.715 -18.637 -21.820  0.00  0.00    +0.019 C 
ATOM     11  C   UNL     1      36.870 -19.098 -21.219  0.00  0.00    +0.100 C 
ENDROOT
BRANCH  10  12
ATOM     12  C   UNL     1      35.748 -17.538 -22.766  0.00  0.00    +0.006 C 
ATOM     13  C   UNL     1      35.044 -16.387 -22.653  0.00  0.00    +0.058 C 
BRANCH  13  16
ATOM     14  O   UNL     1      35.978 -15.448 -24.608  0.00  0.00    -0.270 OA
ATOM     15  N   UNL     1      34.216 -14.293 -23.628  0.00  0.00    -0.267 N 
ATOM     16  C   UNL     1      35.137 -15.340 -23.714  0.00  0.00    +0.250 C 
ATOM     17  C   UNL     1      34.223 -13.248 -24.644  0.00  0.00    +0.116 C 
BRANCH  15  18
ATOM     18  C   UNL     1      33.187 -14.161 -22.598  0.00  0.00    +0.158 C 
BRANCH  18  20
ATOM     19  O   UNL     1      33.066 -11.847 -23.318  0.00  0.00    -0.456 OA
ATOM     20  C   UNL     1      32.877 -12.723 -22.296  0.00  0.00    +0.139 A 
ATOM     21  C   UNL     1      32.426 -12.070 -21.173  0.00  0.00    +0.013 A 
ATOM     22  C   UNL     1      32.328 -10.697 -21.519  0.00  0.00    +0.033 A 
ATOM     23  C   UNL     1      32.734 -10.612 -22.847  0.00  0.00    +0.145 A 
ATOM     24  C   UNL     1      32.106 -12.681 -19.868  0.00  0.00    +0.034 C 
ATOM     25  C   UNL     1      31.944  -9.518 -20.857  0.00  0.00    +0.003 C 
ATOM     26  C   UNL     1      32.785  -9.424 -23.573  0.00  0.00    +0.037 C 
ATOM     27  C   UNL     1      31.984  -8.307 -21.562  0.00  0.00    +0.000 C 
ATOM     28  C   UNL     1      32.398  -8.264 -22.896  0.00  0.00    +0.003 C 
ENDBRANCH  18  20
ENDBRANCH  15  18
ENDBRANCH  13  16
ENDBRANCH  10  12
BRANCH   2  29
ATOM     29  C   UNL     1      36.985 -22.070 -18.371  0.00  0.00    +0.257 C 
BRANCH  29  30
ATOM     30  O   UNL     1      36.742 -21.880 -16.990  0.00  0.00    -0.251 OA
BRANCH  30  31
ATOM     31  P   UNL     1      37.424 -22.905 -15.940  0.00  0.00    +0.475 P 
ATOM     32  O   UNL     1      37.458 -22.443 -14.513  0.00  0.00    -0.227 OA
BRANCH  31  33
ATOM     33  O   UNL     1      38.872 -23.200 -16.597  0.00  0.00    -0.303 OA
ATOM     34  H   UNL     1      39.469 -22.458 -16.412  0.00  0.00    +0.222 HD
ENDBRANCH  31  33
BRANCH  31  35
ATOM     35  O   UNL     1      36.624 -24.291 -16.184  0.00  0.00    -0.303 OA
ATOM     36  H   UNL     1      37.038 -24.999 -15.667  0.00  0.00    +0.222 HD
ENDBRANCH  31  35
ENDBRANCH  30  31
ENDBRANCH  29  30
ENDBRANCH   2  29
TORSDOF 9
ENDMDL
MODEL 7
REMARK VINA RESULT:     -10.5      3.323      5.813
REMARK  Name = 72696796
REMARK  9 active torsions:
REMARK  status: ('A' for Active; 'I' for Inactive)
REMARK    1  A    between atoms: N_2  and  C_29
REMARK    2  A    between atoms: C_10  and  C_12
REMARK    3  A    between atoms: C_13  and  C_16
REMARK    4  A    between atoms: N_15  and  C_18
REMARK    5  A    between atoms: C_18  and  C_20
REMARK    6  A    between atoms: C_29  and  O_30
REMARK    7  A    between atoms: O_30  and  P_31
REMARK    8  A    between atoms: P_31  and  O_33
REMARK    9  A    between atoms: P_31  and  O_35
REMARK                            x       y       z     vdW  Elec       q    Type
REMARK                         _______ _______ _______ _____ _____    ______ ____
ROOT
ATOM      1  O   UNL     1      37.941 -24.832 -11.052  0.00  0.00    -0.274 OA
ATOM      2  N   UNL     1      37.683 -24.121 -13.255  0.00  0.00    -0.217 N 
ATOM      3  N   UNL     1      37.327 -23.480 -15.547  0.00  0.00    -0.229 NA
ATOM      4  C   UNL     1      34.885 -24.014 -12.724  0.00  0.00    +0.039 C 
ATOM      5  C   UNL     1      35.425 -23.765 -14.097  0.00  0.00    +0.010 C 
ATOM      6  C   UNL     1      35.764 -25.010 -11.996  0.00  0.00    +0.090 C 
ATOM      7  C   UNL     1      36.802 -23.791 -14.333  0.00  0.00    +0.135 C 
ATOM      8  C   UNL     1      37.226 -24.618 -12.033  0.00  0.00    +0.233 C 
ATOM      9  C   UNL     1      34.574 -23.411 -15.148  0.00  0.00    +0.000 C 
ATOM     10  C   UNL     1      35.099 -23.110 -16.397  0.00  0.00    +0.019 C 
ATOM     11  C   UNL     1      36.471 -23.157 -16.542  0.00  0.00    +0.100 C 
ENDROOT
BRANCH  10  12
ATOM     12  C   UNL     1      34.237 -22.770 -17.513  0.00  0.00    +0.006 C 
ATOM     13  C   UNL     1      34.619 -22.087 -18.618  0.00  0.00    +0.058 C 
BRANCH  13  16
ATOM     14  O   UNL     1      32.521 -22.311 -19.677  0.00  0.00    -0.270 OA
ATOM     15  N   UNL     1      34.030 -20.828 -20.640  0.00  0.00    -0.267 N 
ATOM     16  C   UNL     1      33.628 -21.769 -19.687  0.00  0.00    +0.250 C 
ATOM     17  C   UNL     1      33.106 -20.442 -21.699  0.00  0.00    +0.116 C 
BRANCH  15  18
ATOM     18  C   UNL     1      35.322 -20.146 -20.654  0.00  0.00    +0.158 C 
BRANCH  18  20
ATOM     19  O   UNL     1      35.099 -17.745 -20.922  0.00  0.00    -0.456 OA
ATOM     20  C   UNL     1      35.308 -18.935 -21.542  0.00  0.00    +0.139 A 
ATOM     21  C   UNL     1      35.466 -18.757 -22.897  0.00  0.00    +0.013 A 
ATOM     22  C   UNL     1      35.347 -17.362 -23.134  0.00  0.00    +0.033 A 
ATOM     23  C   UNL     1      35.121 -16.785 -21.889  0.00  0.00    +0.145 A 
ATOM     24  C   UNL     1      35.711 -19.810 -23.901  0.00  0.00    +0.034 C 
ATOM     25  C   UNL     1      35.403 -16.526 -24.262  0.00  0.00    +0.003 C 
ATOM     26  C   UNL     1      34.946 -15.418 -21.682  0.00  0.00    +0.037 C 
ATOM     27  C   UNL     1      35.231 -15.146 -24.086  0.00  0.00    +0.000 C 
ATOM     28  C   UNL     1      35.006 -14.605 -22.817  0.00  0.00    +0.003 C 
ENDBRANCH  18  20
ENDBRANCH  15  18
ENDBRANCH  13  16
ENDBRANCH  10  12
BRANCH   2  29
ATOM     29  C   UNL     1      39.111 -23.911 -13.473  0.00  0.00    +0.257 C 
BRANCH  29  30
ATOM     30  O   UNL     1      39.756 -25.169 -13.527  0.00  0.00    -0.251 OA
BRANCH  30  31
ATOM     31  P   UNL     1      40.075 -25.810 -14.979  0.00  0.00    +0.475 P 
ATOM     32  O   UNL     1      41.258 -26.732 -15.033  0.00  0.00    -0.227 OA
BRANCH  31  33
ATOM     33  O   UNL     1      40.171 -24.515 -15.942  0.00  0.00    -0.303 OA
ATOM     34  H   UNL     1      39.289 -24.126 -16.050  0.00  0.00    +0.222 HD
ENDBRANCH  31  33
BRANCH  31  35
ATOM     35  O   UNL     1      38.670 -26.485 -15.415  0.00  0.00    -0.303 OA
ATOM     36  H   UNL     1      38.651 -27.410 -15.123  0.00  0.00    +0.222 HD
ENDBRANCH  31  35
ENDBRANCH  30  31
ENDBRANCH  29  30
ENDBRANCH   2  29
TORSDOF 9
ENDMDL
MODEL 8
REMARK VINA RESULT:     -10.5      2.486      3.858
REMARK  Name = 72696796
REMARK  9 active torsions:
REMARK  status: ('A' for Active; 'I' for Inactive)
REMARK    1  A    between atoms: N_2  and  C_29
REMARK    2  A    between atoms: C_10  and  C_12
REMARK    3  A    between atoms: C_13  and  C_16
REMARK    4  A    between atoms: N_15  and  C_18
REMARK    5  A    between atoms: C_18  and  C_20
REMARK    6  A    between atoms: C_29  and  O_30
REMARK    7  A    between atoms: O_30  and  P_31
REMARK    8  A    between atoms: P_31  and  O_33
REMARK    9  A    between atoms: P_31  and  O_35
REMARK                            x       y       z     vdW  Elec       q    Type
REMARK                         _______ _______ _______ _____ _____    ______ ____
ROOT
ATOM      1  O   UNL     1      31.105 -24.895 -14.523  0.00  0.00    -0.274 OA
ATOM      2  N   UNL     1      31.751 -23.777 -16.462  0.00  0.00    -0.217 N 
ATOM      3  N   UNL     1      32.487 -22.540 -18.390  0.00  0.00    -0.229 NA
ATOM      4  C   UNL     1      34.432 -24.046 -15.532  0.00  0.00    +0.039 C 
ATOM      5  C   UNL     1      34.112 -23.262 -16.766  0.00  0.00    +0.010 C 
ATOM      6  C   UNL     1      33.287 -23.944 -14.545  0.00  0.00    +0.090 C 
ATOM      7  C   UNL     1      32.797 -23.166 -17.225  0.00  0.00    +0.135 C 
ATOM      8  C   UNL     1      31.954 -24.286 -15.177  0.00  0.00    +0.233 C 
ATOM      9  C   UNL     1      35.131 -22.690 -17.534  0.00  0.00    +0.000 C 
ATOM     10  C   UNL     1      34.824 -22.031 -18.716  0.00  0.00    +0.019 C 
ATOM     11  C   UNL     1      33.497 -21.986 -19.097  0.00  0.00    +0.100 C 
ENDROOT
BRANCH  10  12
ATOM     12  C   UNL     1      35.857 -21.401 -19.516  0.00  0.00    +0.006 C 
ATOM     13  C   UNL     1      35.670 -20.351 -20.350  0.00  0.00    +0.058 C 
BRANCH  13  16
ATOM     14  O   UNL     1      37.966 -19.977 -20.754  0.00  0.00    -0.270 OA
ATOM     15  N   UNL     1      36.474 -19.156 -22.337  0.00  0.00    -0.267 N 
ATOM     16  C   UNL     1      36.809 -19.810 -21.148  0.00  0.00    +0.250 C 
ATOM     17  C   UNL     1      37.533 -18.628 -23.187  0.00  0.00    +0.116 C 
BRANCH  15  18
ATOM     18  C   UNL     1      35.114 -18.977 -22.842  0.00  0.00    +0.158 C 
BRANCH  18  20
ATOM     19  O   UNL     1      34.568 -17.437 -24.636  0.00  0.00    -0.456 OA
ATOM     20  C   UNL     1      34.874 -17.573 -23.319  0.00  0.00    +0.139 A 
ATOM     21  C   UNL     1      34.895 -16.348 -22.695  0.00  0.00    +0.013 A 
ATOM     22  C   UNL     1      34.582 -15.385 -23.690  0.00  0.00    +0.033 A 
ATOM     23  C   UNL     1      34.390 -16.105 -24.865  0.00  0.00    +0.145 A 
ATOM     24  C   UNL     1      35.186 -16.089 -21.271  0.00  0.00    +0.034 C 
ATOM     25  C   UNL     1      34.440 -13.987 -23.728  0.00  0.00    +0.003 C 
ATOM     26  C   UNL     1      34.063 -15.528 -26.090  0.00  0.00    +0.037 C 
ATOM     27  C   UNL     1      34.111 -13.377 -24.946  0.00  0.00    +0.000 C 
ATOM     28  C   UNL     1      33.927 -14.136 -26.105  0.00  0.00    +0.003 C 
ENDBRANCH  18  20
ENDBRANCH  15  18
ENDBRANCH  13  16
ENDBRANCH  10  12
BRANCH   2  29
ATOM     29  C   UNL     1      30.433 -23.860 -17.084  0.00  0.00    +0.257 C 
BRANCH  29  30
ATOM     30  O   UNL     1      29.608 -22.844 -16.545  0.00  0.00    -0.251 OA
BRANCH  30  31
ATOM     31  P   UNL     1      28.026 -22.878 -16.884  0.00  0.00    +0.475 P 
ATOM     32  O   UNL     1      27.502 -21.697 -17.647  0.00  0.00    -0.227 OA
BRANCH  31  33
ATOM     33  O   UNL     1      27.342 -23.116 -15.438  0.00  0.00    -0.303 OA
ATOM     34  H   UNL     1      27.838 -23.794 -14.953  0.00  0.00    +0.222 HD
ENDBRANCH  31  33
BRANCH  31  35
ATOM     35  O   UNL     1      27.823 -24.304 -17.622  0.00  0.00    -0.303 OA
ATOM     36  H   UNL     1      26.935 -24.345 -18.009  0.00  0.00    +0.222 HD
ENDBRANCH  31  35
ENDBRANCH  30  31
ENDBRANCH  29  30
ENDBRANCH   2  29
TORSDOF 9
ENDMDL
MODEL 9
REMARK VINA RESULT:     -10.4      2.739      4.672
REMARK  Name = 72696796
REMARK  9 active torsions:
REMARK  status: ('A' for Active; 'I' for Inactive)
REMARK    1  A    between atoms: N_2  and  C_29
REMARK    2  A    between atoms: C_10  and  C_12
REMARK    3  A    between atoms: C_13  and  C_16
REMARK    4  A    between atoms: N_15  and  C_18
REMARK    5  A    between atoms: C_18  and  C_20
REMARK    6  A    between atoms: C_29  and  O_30
REMARK    7  A    between atoms: O_30  and  P_31
REMARK    8  A    between atoms: P_31  and  O_33
REMARK    9  A    between atoms: P_31  and  O_35
REMARK                            x       y       z     vdW  Elec       q    Type
REMARK                         _______ _______ _______ _____ _____    ______ ____
ROOT
ATOM      1  O   UNL     1      30.455 -25.424 -13.415  0.00  0.00    -0.274 OA
ATOM      2  N   UNL     1      31.281 -24.562 -15.416  0.00  0.00    -0.217 N 
ATOM      3  N   UNL     1      32.179 -23.569 -17.415  0.00  0.00    -0.229 NA
ATOM      4  C   UNL     1      33.780 -24.278 -14.075  0.00  0.00    +0.039 C 
ATOM      5  C   UNL     1      33.582 -23.766 -15.466  0.00  0.00    +0.010 C 
ATOM      6  C   UNL     1      32.482 -24.182 -13.300  0.00  0.00    +0.090 C 
ATOM      7  C   UNL     1      32.361 -23.941 -16.121  0.00  0.00    +0.135 C 
ATOM      8  C   UNL     1      31.324 -24.815 -14.042  0.00  0.00    +0.233 C 
ATOM      9  C   UNL     1      34.640 -23.186 -16.173  0.00  0.00    +0.000 C 
ATOM     10  C   UNL     1      34.461 -22.786 -17.490  0.00  0.00    +0.019 C 
ATOM     11  C   UNL     1      33.222 -23.000 -18.060  0.00  0.00    +0.100 C 
ENDROOT
BRANCH  10  12
ATOM     12  C   UNL     1      35.532 -22.154 -18.237  0.00  0.00    +0.006 C 
ATOM     13  C   UNL     1      35.381 -21.471 -19.396  0.00  0.00    +0.058 C 
BRANCH  13  16
ATOM     14  O   UNL     1      37.703 -21.233 -19.748  0.00  0.00    -0.270 OA
ATOM     15  N   UNL     1      36.300 -19.995 -21.127  0.00  0.00    -0.267 N 
ATOM     16  C   UNL     1      36.569 -20.892 -20.089  0.00  0.00    +0.250 C 
ATOM     17  C   UNL     1      37.408 -19.411 -21.873  0.00  0.00    +0.116 C 
BRANCH  15  18
ATOM     18  C   UNL     1      34.965 -19.602 -21.573  0.00  0.00    +0.158 C 
BRANCH  18  20
ATOM     19  O   UNL     1      34.880 -17.208 -21.181  0.00  0.00    -0.456 OA
ATOM     20  C   UNL     1      34.944 -18.199 -22.109  0.00  0.00    +0.139 A 
ATOM     21  C   UNL     1      34.975 -17.674 -23.380  0.00  0.00    +0.013 A 
ATOM     22  C   UNL     1      34.928 -16.263 -23.232  0.00  0.00    +0.033 A 
ATOM     23  C   UNL     1      34.870 -16.028 -21.862  0.00  0.00    +0.145 A 
ATOM     24  C   UNL     1      35.044 -18.431 -24.644  0.00  0.00    +0.034 C 
ATOM     25  C   UNL     1      34.927 -15.160 -24.103  0.00  0.00    +0.003 C 
ATOM     26  C   UNL     1      34.811 -14.760 -21.289  0.00  0.00    +0.037 C 
ATOM     27  C   UNL     1      34.869 -13.870 -23.556  0.00  0.00    +0.000 C 
ATOM     28  C   UNL     1      34.811 -13.677 -22.173  0.00  0.00    +0.003 C 
ENDBRANCH  18  20
ENDBRANCH  15  18
ENDBRANCH  13  16
ENDBRANCH  10  12
BRANCH   2  29
ATOM     29  C   UNL     1      30.106 -24.940 -16.194  0.00  0.00    +0.257 C 
BRANCH  29  30
ATOM     30  O   UNL     1      29.005 -24.160 -15.768  0.00  0.00    -0.251 OA
BRANCH  30  31
ATOM     31  P   UNL     1      28.289 -23.186 -16.844  0.00  0.00    +0.475 P 
ATOM     32  O   UNL     1      27.646 -23.875 -18.013  0.00  0.00    -0.227 OA
BRANCH  31  33
ATOM     33  O   UNL     1      29.456 -22.135 -17.227  0.00  0.00    -0.303 OA
ATOM     34  H   UNL     1      30.262 -22.353 -16.733  0.00  0.00    +0.222 HD
ENDBRANCH  31  33
BRANCH  31  35
ATOM     35  O   UNL     1      27.279 -22.298 -15.944  0.00  0.00    -0.303 OA
ATOM     36  H   UNL     1      26.465 -22.127 -16.443  0.00  0.00    +0.222 HD
ENDBRANCH  31  35
ENDBRANCH  30  31
ENDBRANCH  29  30
ENDBRANCH   2  29
TORSDOF 9
ENDMDL
