MODEL 1
REMARK VINA RESULT:     -10.9      0.000      0.000
REMARK  Name = 20055414
REMARK  5 active torsions:
REMARK  status: ('A' for Active; 'I' for Inactive)
REMARK    1  A    between atoms: N_1  and  C_18
REMARK    2  A    between atoms: N_2  and  C_8
REMARK    3  A    between atoms: C_11  and  C_17
REMARK    4  A    between atoms: C_18  and  C_19
REMARK    5  A    between atoms: C_19  and  C_30
REMARK                            x       y       z     vdW  Elec       q    Type
REMARK                         _______ _______ _______ _____ _____    ______ ____
ROOT
ATOM      1  N   UNL     1      32.962 -11.903 -22.646  0.00  0.00    +0.390 N 
ATOM      2  N   UNL     1      32.517  -9.104 -23.008  0.00  0.00    -0.312 N 
ATOM      3  C   UNL     1      31.730 -11.276 -22.152  0.00  0.00    -0.055 C 
ATOM      4  C   UNL     1      33.405 -11.234 -23.875  0.00  0.00    -0.055 C 
ATOM      5  C   UNL     1      31.951  -9.794 -21.844  0.00  0.00    +0.068 C 
ATOM      6  C   UNL     1      33.684  -9.751 -23.624  0.00  0.00    +0.068 C 
ATOM      7  H   UNL     1      33.688 -11.803 -21.937  0.00  0.00    -0.080 HD
ENDROOT
BRANCH   2   8
ATOM      8  C   UNL     1      32.403  -7.714 -23.115  0.00  0.00    +0.048 C 
ATOM      9  C   UNL     1      33.032  -7.040 -24.162  0.00  0.00    +0.018 C 
ATOM     10  C   UNL     1      31.659  -7.001 -22.173  0.00  0.00    +0.015 C 
ATOM     11  C   UNL     1      32.918  -5.655 -24.267  0.00  0.00    +0.073 C 
ATOM     12  C   UNL     1      31.545  -5.615 -22.279  0.00  0.00    +0.001 C 
ATOM     13  C   UNL     1      32.174  -4.942 -23.326  0.00  0.00    +0.004 C 
BRANCH  11  17
ATOM     14  F   UNL     1      33.349  -3.589 -25.394  0.00  0.00    -0.166 F 
ATOM     15  F   UNL     1      34.952  -5.050 -25.370  0.00  0.00    -0.166 F 
ATOM     16  F   UNL     1      33.198  -5.385 -26.612  0.00  0.00    -0.166 F 
ATOM     17  C   UNL     1      33.591  -4.934 -25.385  0.00  0.00    +0.419 C 
ENDBRANCH  11  17
ENDBRANCH   2   8
BRANCH   1  18
ATOM     18  C   UNL     1      32.752 -13.330 -22.886  0.00  0.00    -0.069 C 
BRANCH  18  19
ATOM     19  C   UNL     1      34.023 -14.031 -23.412  0.00  0.00    +0.043 C 
BRANCH  19  30
ATOM     20  N   UNL     1      35.131 -16.176 -22.850  0.00  0.00    -0.302 N 
ATOM     21  N   UNL     1      35.157 -16.157 -20.675  0.00  0.00    -0.134 NA
ATOM     22  N   UNL     1      34.550 -14.989 -21.150  0.00  0.00    -0.134 NA
ATOM     23  C   UNL     1      36.013 -18.212 -23.606  0.00  0.00    +0.030 C 
ATOM     24  C   UNL     1      36.135 -18.140 -22.040  0.00  0.00    +0.061 C 
ATOM     25  C   UNL     1      35.067 -19.387 -23.887  0.00  0.00    +0.002 C 
ATOM     26  C   UNL     1      35.353 -19.339 -21.514  0.00  0.00    +0.008 C 
ATOM     27  C   UNL     1      35.463 -16.843 -24.085  0.00  0.00    +0.109 C 
ATOM     28  C   UNL     1      34.308 -19.618 -22.588  0.00  0.00    +0.001 C 
ATOM     29  C   UNL     1      35.491 -16.849 -21.733  0.00  0.00    +0.143 A 
ATOM     30  C   UNL     1      34.550 -15.032 -22.472  0.00  0.00    +0.141 A 
ENDBRANCH  19  30
ENDBRANCH  18  19
ENDBRANCH   1  18
TORSDOF 5
ENDMDL
MODEL 2
REMARK VINA RESULT:     -10.8      9.401     12.897
REMARK  Name = 20055414
REMARK  5 active torsions:
REMARK  status: ('A' for Active; 'I' for Inactive)
REMARK    1  A    between atoms: N_1  and  C_18
REMARK    2  A    between atoms: N_2  and  C_8
REMARK    3  A    between atoms: C_11  and  C_17
REMARK    4  A    between atoms: C_18  and  C_19
REMARK    5  A    between atoms: C_19  and  C_30
REMARK                            x       y       z     vdW  Elec       q    Type
REMARK                         _______ _______ _______ _____ _____    ______ ____
ROOT
ATOM      1  N   UNL     1      34.009 -23.014 -18.101  0.00  0.00    +0.390 N 
ATOM      2  N   UNL     1      35.113 -21.128 -19.942  0.00  0.00    -0.312 N 
ATOM      3  C   UNL     1      35.307 -22.382 -17.831  0.00  0.00    -0.055 C 
ATOM      4  C   UNL     1      33.136 -22.075 -18.815  0.00  0.00    -0.055 C 
ATOM      5  C   UNL     1      36.000 -21.967 -19.130  0.00  0.00    +0.068 C 
ATOM      6  C   UNL     1      33.756 -21.652 -20.148  0.00  0.00    +0.068 C 
ATOM      7  H   UNL     1      34.161 -23.834 -18.689  0.00  0.00    -0.080 HD
ENDROOT
BRANCH   2   8
ATOM      8  C   UNL     1      35.655 -20.298 -20.930  0.00  0.00    +0.048 C 
ATOM      9  C   UNL     1      34.981 -20.120 -22.138  0.00  0.00    +0.018 C 
ATOM     10  C   UNL     1      36.869 -19.649 -20.706  0.00  0.00    +0.015 C 
ATOM     11  C   UNL     1      35.522 -19.293 -23.122  0.00  0.00    +0.073 C 
ATOM     12  C   UNL     1      37.409 -18.821 -21.690  0.00  0.00    +0.001 C 
ATOM     13  C   UNL     1      36.736 -18.643 -22.898  0.00  0.00    +0.004 C 
BRANCH  11  17
ATOM     14  F   UNL     1      33.443 -19.184 -24.302  0.00  0.00    -0.166 F 
ATOM     15  F   UNL     1      35.039 -17.889 -24.998  0.00  0.00    -0.166 F 
ATOM     16  F   UNL     1      35.149 -20.033 -25.350  0.00  0.00    -0.166 F 
ATOM     17  C   UNL     1      34.802 -19.102 -24.414  0.00  0.00    +0.419 C 
ENDBRANCH  11  17
ENDBRANCH   2   8
BRANCH   1  18
ATOM     18  C   UNL     1      33.383 -23.453 -16.856  0.00  0.00    -0.069 C 
BRANCH  18  19
ATOM     19  C   UNL     1      34.301 -23.246 -15.632  0.00  0.00    +0.043 C 
BRANCH  19  30
ATOM     20  N   UNL     1      35.779 -24.613 -14.186  0.00  0.00    -0.302 N 
ATOM     21  N   UNL     1      36.227 -26.337 -15.436  0.00  0.00    -0.134 NA
ATOM     22  N   UNL     1      35.387 -25.457 -16.127  0.00  0.00    -0.134 NA
ATOM     23  C   UNL     1      36.977 -24.795 -12.179  0.00  0.00    +0.030 C 
ATOM     24  C   UNL     1      37.202 -26.091 -13.039  0.00  0.00    +0.061 C 
ATOM     25  C   UNL     1      38.359 -24.139 -12.062  0.00  0.00    +0.002 C 
ATOM     26  C   UNL     1      38.708 -26.171 -13.270  0.00  0.00    +0.008 C 
ATOM     27  C   UNL     1      35.936 -23.923 -12.930  0.00  0.00    +0.109 C 
ATOM     28  C   UNL     1      39.185 -24.727 -13.197  0.00  0.00    +0.001 C 
ATOM     29  C   UNL     1      36.443 -25.790 -14.268  0.00  0.00    +0.143 A 
ATOM     30  C   UNL     1      35.135 -24.423 -15.343  0.00  0.00    +0.141 A 
ENDBRANCH  19  30
ENDBRANCH  18  19
ENDBRANCH   1  18
TORSDOF 5
ENDMDL
MODEL 3
REMARK VINA RESULT:     -10.7      7.305     12.056
REMARK  Name = 20055414
REMARK  5 active torsions:
REMARK  status: ('A' for Active; 'I' for Inactive)
REMARK    1  A    between atoms: N_1  and  C_18
REMARK    2  A    between atoms: N_2  and  C_8
REMARK    3  A    between atoms: C_11  and  C_17
REMARK    4  A    between atoms: C_18  and  C_19
REMARK    5  A    between atoms: C_19  and  C_30
REMARK                            x       y       z     vdW  Elec       q    Type
REMARK                         _______ _______ _______ _____ _____    ______ ____
ROOT
ATOM      1  N   UNL     1      35.473 -18.432 -23.404  0.00  0.00    +0.390 N 
ATOM      2  N   UNL     1      35.783 -20.152 -21.144  0.00  0.00    -0.312 N 
ATOM      3  C   UNL     1      36.810 -18.736 -22.879  0.00  0.00    -0.055 C 
ATOM      4  C   UNL     1      34.591 -19.592 -23.228  0.00  0.00    -0.055 C 
ATOM      5  C   UNL     1      36.752 -19.079 -21.389  0.00  0.00    +0.068 C 
ATOM      6  C   UNL     1      34.458 -19.962 -21.749  0.00  0.00    +0.068 C 
ATOM      7  H   UNL     1      35.088 -17.644 -22.883  0.00  0.00    -0.080 HD
ENDROOT
BRANCH   2   8
ATOM      8  C   UNL     1      35.868 -20.910 -19.971  0.00  0.00    +0.048 C 
ATOM      9  C   UNL     1      34.767 -21.650 -19.537  0.00  0.00    +0.018 C 
ATOM     10  C   UNL     1      37.053 -20.926 -19.235  0.00  0.00    +0.015 C 
ATOM     11  C   UNL     1      34.853 -22.404 -18.368  0.00  0.00    +0.073 C 
ATOM     12  C   UNL     1      37.137 -21.681 -18.065  0.00  0.00    +0.001 C 
ATOM     13  C   UNL     1      36.038 -22.420 -17.632  0.00  0.00    +0.004 C 
BRANCH  11  17
ATOM     14  F   UNL     1      32.485 -22.544 -18.053  0.00  0.00    -0.166 F 
ATOM     15  F   UNL     1      33.519 -24.381 -18.564  0.00  0.00    -0.166 F 
ATOM     16  F   UNL     1      33.752 -23.521 -16.580  0.00  0.00    -0.166 F 
ATOM     17  C   UNL     1      33.677 -23.195 -17.903  0.00  0.00    +0.419 C 
ENDBRANCH  11  17
ENDBRANCH   2   8
BRANCH   1  18
ATOM     18  C   UNL     1      35.550 -18.054 -24.814  0.00  0.00    -0.069 C 
BRANCH  18  19
ATOM     19  C   UNL     1      34.178 -17.627 -25.383  0.00  0.00    +0.043 C 
BRANCH  19  30
ATOM     20  N   UNL     1      34.331 -15.306 -24.528  0.00  0.00    -0.302 N 
ATOM     21  N   UNL     1      33.683 -14.115 -26.229  0.00  0.00    -0.134 NA
ATOM     22  N   UNL     1      33.649 -15.473 -26.563  0.00  0.00    -0.134 NA
ATOM     23  C   UNL     1      34.724 -13.883 -22.707  0.00  0.00    +0.030 C 
ATOM     24  C   UNL     1      34.368 -13.022 -23.973  0.00  0.00    +0.061 C 
ATOM     25  C   UNL     1      33.596 -13.614 -21.701  0.00  0.00    +0.002 C 
ATOM     26  C   UNL     1      33.129 -12.222 -23.587  0.00  0.00    +0.008 C 
ATOM     27  C   UNL     1      34.805 -15.363 -23.167  0.00  0.00    +0.109 C 
ATOM     28  C   UNL     1      32.439 -13.068 -22.526  0.00  0.00    +0.001 C 
ATOM     29  C   UNL     1      34.097 -14.056 -24.991  0.00  0.00    +0.143 A 
ATOM     30  C   UNL     1      34.047 -16.168 -25.511  0.00  0.00    +0.141 A 
ENDBRANCH  19  30
ENDBRANCH  18  19
ENDBRANCH   1  18
TORSDOF 5
ENDMDL
MODEL 4
REMARK VINA RESULT:     -10.7      6.574     10.608
REMARK  Name = 20055414
REMARK  5 active torsions:
REMARK  status: ('A' for Active; 'I' for Inactive)
REMARK    1  A    between atoms: N_1  and  C_18
REMARK    2  A    between atoms: N_2  and  C_8
REMARK    3  A    between atoms: C_11  and  C_17
REMARK    4  A    between atoms: C_18  and  C_19
REMARK    5  A    between atoms: C_19  and  C_30
REMARK                            x       y       z     vdW  Elec       q    Type
REMARK                         _______ _______ _______ _____ _____    ______ ____
ROOT
ATOM      1  N   UNL     1      35.901 -21.469 -19.890  0.00  0.00    +0.390 N 
ATOM      2  N   UNL     1      35.577 -19.093 -21.443  0.00  0.00    -0.312 N 
ATOM      3  C   UNL     1      36.906 -20.400 -19.833  0.00  0.00    -0.055 C 
ATOM      4  C   UNL     1      34.567 -20.890 -20.092  0.00  0.00    -0.055 C 
ATOM      5  C   UNL     1      36.921 -19.588 -21.129  0.00  0.00    +0.068 C 
ATOM      6  C   UNL     1      34.505 -20.096 -21.398  0.00  0.00    +0.068 C 
ATOM      7  H   UNL     1      36.117 -22.080 -20.677  0.00  0.00    -0.080 HD
ENDROOT
BRANCH   2   8
ATOM      8  C   UNL     1      35.423 -18.004 -22.307  0.00  0.00    +0.048 C 
ATOM      9  C   UNL     1      35.094 -16.748 -21.795  0.00  0.00    +0.018 C 
ATOM     10  C   UNL     1      35.598 -18.172 -23.681  0.00  0.00    +0.015 C 
ATOM     11  C   UNL     1      34.940 -15.663 -22.657  0.00  0.00    +0.073 C 
ATOM     12  C   UNL     1      35.444 -17.086 -24.542  0.00  0.00    +0.001 C 
ATOM     13  C   UNL     1      35.115 -15.832 -24.031  0.00  0.00    +0.004 C 
BRANCH  11  17
ATOM     14  F   UNL     1      33.245 -14.134 -21.940  0.00  0.00    -0.166 F 
ATOM     15  F   UNL     1      35.140 -14.066 -20.887  0.00  0.00    -0.166 F 
ATOM     16  F   UNL     1      35.000 -13.301 -22.917  0.00  0.00    -0.166 F 
ATOM     17  C   UNL     1      34.587 -14.321 -22.110  0.00  0.00    +0.419 C 
ENDBRANCH  11  17
ENDBRANCH   2   8
BRANCH   1  18
ATOM     18  C   UNL     1      35.933 -22.271 -18.668  0.00  0.00    -0.069 C 
BRANCH  18  19
ATOM     19  C   UNL     1      36.825 -21.639 -17.576  0.00  0.00    +0.043 C 
BRANCH  19  30
ATOM     20  N   UNL     1      36.585 -23.474 -15.926  0.00  0.00    -0.302 N 
ATOM     21  N   UNL     1      38.645 -23.909 -15.377  0.00  0.00    -0.134 NA
ATOM     22  N   UNL     1      38.616 -22.874 -16.318  0.00  0.00    -0.134 NA
ATOM     23  C   UNL     1      35.154 -24.811 -14.639  0.00  0.00    +0.030 C 
ATOM     24  C   UNL     1      36.646 -25.201 -14.333  0.00  0.00    +0.061 C 
ATOM     25  C   UNL     1      34.597 -24.266 -13.317  0.00  0.00    +0.002 C 
ATOM     26  C   UNL     1      36.830 -24.970 -12.837  0.00  0.00    +0.008 C 
ATOM     27  C   UNL     1      35.180 -23.762 -15.781  0.00  0.00    +0.109 C 
ATOM     28  C   UNL     1      35.816 -23.889 -12.487  0.00  0.00    +0.001 C 
ATOM     29  C   UNL     1      37.399 -24.242 -15.164  0.00  0.00    +0.143 A 
ATOM     30  C   UNL     1      37.353 -22.634 -16.630  0.00  0.00    +0.141 A 
ENDBRANCH  19  30
ENDBRANCH  18  19
ENDBRANCH   1  18
TORSDOF 5
ENDMDL
MODEL 5
REMARK VINA RESULT:     -10.7      5.929     11.324
REMARK  Name = 20055414
REMARK  5 active torsions:
REMARK  status: ('A' for Active; 'I' for Inactive)
REMARK    1  A    between atoms: N_1  and  C_18
REMARK    2  A    between atoms: N_2  and  C_8
REMARK    3  A    between atoms: C_11  and  C_17
REMARK    4  A    between atoms: C_18  and  C_19
REMARK    5  A    between atoms: C_19  and  C_30
REMARK                            x       y       z     vdW  Elec       q    Type
REMARK                         _______ _______ _______ _____ _____    ______ ____
ROOT
ATOM      1  N   UNL     1      34.888 -15.074 -23.677  0.00  0.00    +0.390 N 
ATOM      2  N   UNL     1      35.326 -17.528 -22.282  0.00  0.00    -0.312 N 
ATOM      3  C   UNL     1      34.786 -16.358 -24.381  0.00  0.00    -0.055 C 
ATOM      4  C   UNL     1      34.438 -15.229 -22.289  0.00  0.00    -0.055 C 
ATOM      5  C   UNL     1      35.651 -17.426 -23.708  0.00  0.00    +0.068 C 
ATOM      6  C   UNL     1      35.292 -16.257 -21.545  0.00  0.00    +0.068 C 
ATOM      7  H   UNL     1      35.864 -14.777 -23.676  0.00  0.00    -0.080 HD
ENDROOT
BRANCH   2   8
ATOM      8  C   UNL     1      35.658 -18.689 -21.575  0.00  0.00    +0.048 C 
ATOM      9  C   UNL     1      34.660 -19.589 -21.201  0.00  0.00    +0.018 C 
ATOM     10  C   UNL     1      36.989 -18.947 -21.243  0.00  0.00    +0.015 C 
ATOM     11  C   UNL     1      34.992 -20.745 -20.497  0.00  0.00    +0.073 C 
ATOM     12  C   UNL     1      37.321 -20.104 -20.539  0.00  0.00    +0.001 C 
ATOM     13  C   UNL     1      36.323 -21.003 -20.165  0.00  0.00    +0.004 C 
BRANCH  11  17
ATOM     14  F   UNL     1      34.285 -23.017 -20.247  0.00  0.00    -0.166 F 
ATOM     15  F   UNL     1      33.546 -21.591 -18.789  0.00  0.00    -0.166 F 
ATOM     16  F   UNL     1      32.781 -21.555 -20.825  0.00  0.00    -0.166 F 
ATOM     17  C   UNL     1      33.926 -21.708 -20.097  0.00  0.00    +0.419 C 
ENDBRANCH  11  17
ENDBRANCH   2   8
BRANCH   1  18
ATOM     18  C   UNL     1      34.100 -14.050 -24.362  0.00  0.00    -0.069 C 
BRANCH  18  19
ATOM     19  C   UNL     1      34.509 -12.620 -23.947  0.00  0.00    +0.043 C 
BRANCH  19  30
ATOM     20  N   UNL     1      33.248 -10.560 -23.392  0.00  0.00    -0.302 N 
ATOM     21  N   UNL     1      31.631 -11.300 -22.138  0.00  0.00    -0.134 NA
ATOM     22  N   UNL     1      32.445 -12.366 -22.537  0.00  0.00    -0.134 NA
ATOM     23  C   UNL     1      33.112  -8.223 -23.509  0.00  0.00    +0.030 C 
ATOM     24  C   UNL     1      31.882  -8.776 -22.702  0.00  0.00    +0.061 C 
ATOM     25  C   UNL     1      33.904  -7.369 -22.509  0.00  0.00    +0.002 C 
ATOM     26  C   UNL     1      31.969  -8.122 -21.327  0.00  0.00    +0.008 C 
ATOM     27  C   UNL     1      33.900  -9.449 -24.040  0.00  0.00    +0.109 C 
ATOM     28  C   UNL     1      33.451  -7.831 -21.132  0.00  0.00    +0.001 C 
ATOM     29  C   UNL     1      32.151 -10.226 -22.672  0.00  0.00    +0.143 A 
ATOM     30  C   UNL     1      33.415 -11.884 -23.295  0.00  0.00    +0.141 A 
ENDBRANCH  19  30
ENDBRANCH  18  19
ENDBRANCH   1  18
TORSDOF 5
ENDMDL
MODEL 6
REMARK VINA RESULT:     -10.7      6.063      9.955
REMARK  Name = 20055414
REMARK  5 active torsions:
REMARK  status: ('A' for Active; 'I' for Inactive)
REMARK    1  A    between atoms: N_1  and  C_18
REMARK    2  A    between atoms: N_2  and  C_8
REMARK    3  A    between atoms: C_11  and  C_17
REMARK    4  A    between atoms: C_18  and  C_19
REMARK    5  A    between atoms: C_19  and  C_30
REMARK                            x       y       z     vdW  Elec       q    Type
REMARK                         _______ _______ _______ _____ _____    ______ ____
ROOT
ATOM      1  N   UNL     1      36.321 -20.299 -20.208  0.00  0.00    +0.390 N 
ATOM      2  N   UNL     1      35.588 -18.527 -22.325  0.00  0.00    -0.312 N 
ATOM      3  C   UNL     1      35.125 -20.562 -21.018  0.00  0.00    -0.055 C 
ATOM      4  C   UNL     1      37.354 -19.663 -21.034  0.00  0.00    -0.055 C 
ATOM      5  C   UNL     1      34.554 -19.266 -21.595  0.00  0.00    +0.068 C 
ATOM      6  C   UNL     1      36.857 -18.335 -21.610  0.00  0.00    +0.068 C 
ATOM      7  H   UNL     1      36.069 -19.665 -19.449  0.00  0.00    -0.080 HD
ENDROOT
BRANCH   2   8
ATOM      8  C   UNL     1      35.217 -17.568 -23.274  0.00  0.00    +0.048 C 
ATOM      9  C   UNL     1      35.017 -16.243 -22.887  0.00  0.00    +0.018 C 
ATOM     10  C   UNL     1      35.048 -17.937 -24.609  0.00  0.00    +0.015 C 
ATOM     11  C   UNL     1      34.647 -15.288 -23.833  0.00  0.00    +0.073 C 
ATOM     12  C   UNL     1      34.679 -16.981 -25.556  0.00  0.00    +0.001 C 
ATOM     13  C   UNL     1      34.478 -15.657 -25.168  0.00  0.00    +0.004 C 
BRANCH  11  17
ATOM     14  F   UNL     1      35.095 -13.529 -22.275  0.00  0.00    -0.166 F 
ATOM     15  F   UNL     1      34.839 -12.961 -24.353  0.00  0.00    -0.166 F 
ATOM     16  F   UNL     1      33.119 -13.589 -23.180  0.00  0.00    -0.166 F 
ATOM     17  C   UNL     1      34.432 -13.872 -23.419  0.00  0.00    +0.419 C 
ENDBRANCH  11  17
ENDBRANCH   2   8
BRANCH   1  18
ATOM     18  C   UNL     1      36.825 -21.539 -19.619  0.00  0.00    -0.069 C 
BRANCH  18  19
ATOM     19  C   UNL     1      36.979 -21.440 -18.085  0.00  0.00    +0.043 C 
BRANCH  19  30
ATOM     20  N   UNL     1      36.565 -23.042 -16.240  0.00  0.00    -0.302 N 
ATOM     21  N   UNL     1      34.596 -23.836 -16.716  0.00  0.00    -0.134 NA
ATOM     22  N   UNL     1      34.975 -22.902 -17.686  0.00  0.00    -0.134 NA
ATOM     23  C   UNL     1      37.393 -24.141 -14.343  0.00  0.00    +0.030 C 
ATOM     24  C   UNL     1      35.924 -24.625 -14.626  0.00  0.00    +0.061 C 
ATOM     25  C   UNL     1      38.272 -25.388 -14.515  0.00  0.00    +0.002 C 
ATOM     26  C   UNL     1      36.023 -26.133 -14.829  0.00  0.00    +0.008 C 
ATOM     27  C   UNL     1      37.707 -23.014 -15.361  0.00  0.00    +0.109 C 
ATOM     28  C   UNL     1      37.440 -26.361 -15.339  0.00  0.00    +0.001 C 
ATOM     29  C   UNL     1      35.585 -23.895 -15.862  0.00  0.00    +0.143 A 
ATOM     30  C   UNL     1      36.173 -22.440 -17.369  0.00  0.00    +0.141 A 
ENDBRANCH  19  30
ENDBRANCH  18  19
ENDBRANCH   1  18
TORSDOF 5
ENDMDL
MODEL 7
REMARK VINA RESULT:     -10.6      7.820     12.910
REMARK  Name = 20055414
REMARK  5 active torsions:
REMARK  status: ('A' for Active; 'I' for Inactive)
REMARK    1  A    between atoms: N_1  and  C_18
REMARK    2  A    between atoms: N_2  and  C_8
REMARK    3  A    between atoms: C_11  and  C_17
REMARK    4  A    between atoms: C_18  and  C_19
REMARK    5  A    between atoms: C_19  and  C_30
REMARK                            x       y       z     vdW  Elec       q    Type
REMARK                         _______ _______ _______ _____ _____    ______ ____
ROOT
ATOM      1  N   UNL     1      35.455 -20.403 -21.431  0.00  0.00    +0.390 N 
ATOM      2  N   UNL     1      34.488 -21.717 -19.087  0.00  0.00    -0.312 N 
ATOM      3  C   UNL     1      34.105 -20.125 -20.926  0.00  0.00    -0.055 C 
ATOM      4  C   UNL     1      36.360 -20.682 -20.310  0.00  0.00    -0.055 C 
ATOM      5  C   UNL     1      33.553 -21.317 -20.143  0.00  0.00    +0.068 C 
ATOM      6  C   UNL     1      35.884 -21.895 -19.508  0.00  0.00    +0.068 C 
ATOM      7  H   UNL     1      35.416 -21.224 -22.035  0.00  0.00    -0.080 HD
ENDROOT
BRANCH   2   8
ATOM      8  C   UNL     1      34.028 -22.471 -18.001  0.00  0.00    +0.048 C 
ATOM      9  C   UNL     1      32.662 -22.538 -17.726  0.00  0.00    +0.018 C 
ATOM     10  C   UNL     1      34.936 -23.155 -17.192  0.00  0.00    +0.015 C 
ATOM     11  C   UNL     1      32.205 -23.289 -16.644  0.00  0.00    +0.073 C 
ATOM     12  C   UNL     1      34.478 -23.906 -16.110  0.00  0.00    +0.001 C 
ATOM     13  C   UNL     1      33.113 -23.973 -15.836  0.00  0.00    +0.004 C 
BRANCH  11  17
ATOM     14  F   UNL     1      30.418 -22.934 -15.093  0.00  0.00    -0.166 F 
ATOM     15  F   UNL     1      29.979 -22.604 -17.192  0.00  0.00    -0.166 F 
ATOM     16  F   UNL     1      30.251 -24.629 -16.446  0.00  0.00    -0.166 F 
ATOM     17  C   UNL     1      30.745 -23.361 -16.350  0.00  0.00    +0.419 C 
ENDBRANCH  11  17
ENDBRANCH   2   8
BRANCH   1  18
ATOM     18  C   UNL     1      35.949 -19.277 -22.223  0.00  0.00    -0.069 C 
BRANCH  18  19
ATOM     19  C   UNL     1      35.035 -18.960 -23.426  0.00  0.00    +0.043 C 
BRANCH  19  30
ATOM     20  N   UNL     1      35.033 -16.538 -22.897  0.00  0.00    -0.302 N 
ATOM     21  N   UNL     1      35.090 -15.609 -24.863  0.00  0.00    -0.134 NA
ATOM     22  N   UNL     1      35.085 -17.001 -24.999  0.00  0.00    -0.134 NA
ATOM     23  C   UNL     1      34.866 -14.864 -21.266  0.00  0.00    +0.030 C 
ATOM     24  C   UNL     1      35.025 -14.198 -22.681  0.00  0.00    +0.061 C 
ATOM     25  C   UNL     1      33.481 -14.431 -20.766  0.00  0.00    +0.002 C 
ATOM     26  C   UNL     1      33.784 -13.332 -22.867  0.00  0.00    +0.008 C 
ATOM     27  C   UNL     1      35.005 -16.396 -21.462  0.00  0.00    +0.109 C 
ATOM     28  C   UNL     1      32.717 -14.001 -22.010  0.00  0.00    +0.001 C 
ATOM     29  C   UNL     1      35.054 -15.369 -23.578  0.00  0.00    +0.143 A 
ATOM     30  C   UNL     1      35.050 -17.534 -23.790  0.00  0.00    +0.141 A 
ENDBRANCH  19  30
ENDBRANCH  18  19
ENDBRANCH   1  18
TORSDOF 5
ENDMDL
MODEL 8
REMARK VINA RESULT:     -10.6      8.244     13.151
REMARK  Name = 20055414
REMARK  5 active torsions:
REMARK  status: ('A' for Active; 'I' for Inactive)
REMARK    1  A    between atoms: N_1  and  C_18
REMARK    2  A    between atoms: N_2  and  C_8
REMARK    3  A    between atoms: C_11  and  C_17
REMARK    4  A    between atoms: C_18  and  C_19
REMARK    5  A    between atoms: C_19  and  C_30
REMARK                            x       y       z     vdW  Elec       q    Type
REMARK                         _______ _______ _______ _____ _____    ______ ____
ROOT
ATOM      1  N   UNL     1      35.658 -20.186 -21.579  0.00  0.00    +0.390 N 
ATOM      2  N   UNL     1      34.812 -21.587 -19.237  0.00  0.00    -0.312 N 
ATOM      3  C   UNL     1      34.308 -19.985 -21.038  0.00  0.00    -0.055 C 
ATOM      4  C   UNL     1      36.601 -20.438 -20.482  0.00  0.00    -0.055 C 
ATOM      5  C   UNL     1      33.834 -21.217 -20.265  0.00  0.00    +0.068 C 
ATOM      6  C   UNL     1      36.205 -21.686 -19.692  0.00  0.00    +0.068 C 
ATOM      7  H   UNL     1      35.647 -20.998 -22.196  0.00  0.00    -0.080 HD
ENDROOT
BRANCH   2   8
ATOM      8  C   UNL     1      34.416 -22.381 -18.155  0.00  0.00    +0.048 C 
ATOM      9  C   UNL     1      35.357 -22.801 -17.215  0.00  0.00    +0.018 C 
ATOM     10  C   UNL     1      33.078 -22.753 -18.016  0.00  0.00    +0.015 C 
ATOM     11  C   UNL     1      34.961 -23.592 -16.137  0.00  0.00    +0.073 C 
ATOM     12  C   UNL     1      32.683 -23.545 -16.937  0.00  0.00    +0.001 C 
ATOM     13  C   UNL     1      33.624 -23.964 -15.998  0.00  0.00    +0.004 C 
BRANCH  11  17
ATOM     14  F   UNL     1      35.711 -25.280 -14.617  0.00  0.00    -0.166 F 
ATOM     15  F   UNL     1      37.239 -24.118 -15.629  0.00  0.00    -0.166 F 
ATOM     16  F   UNL     1      36.045 -23.206 -14.057  0.00  0.00    -0.166 F 
ATOM     17  C   UNL     1      35.968 -24.041 -15.133  0.00  0.00    +0.419 C 
ENDBRANCH  11  17
ENDBRANCH   2   8
BRANCH   1  18
ATOM     18  C   UNL     1      36.076 -19.024 -22.360  0.00  0.00    -0.069 C 
BRANCH  18  19
ATOM     19  C   UNL     1      35.115 -18.728 -23.532  0.00  0.00    +0.043 C 
BRANCH  19  30
ATOM     20  N   UNL     1      35.025 -16.310 -22.995  0.00  0.00    -0.302 N 
ATOM     21  N   UNL     1      35.054 -15.372 -24.957  0.00  0.00    -0.134 NA
ATOM     22  N   UNL     1      35.100 -16.763 -25.098  0.00  0.00    -0.134 NA
ATOM     23  C   UNL     1      34.793 -14.648 -21.358  0.00  0.00    +0.030 C 
ATOM     24  C   UNL     1      34.932 -13.972 -22.771  0.00  0.00    +0.061 C 
ATOM     25  C   UNL     1      33.391 -14.267 -20.862  0.00  0.00    +0.002 C 
ATOM     26  C   UNL     1      33.661 -13.151 -22.958  0.00  0.00    +0.008 C 
ATOM     27  C   UNL     1      34.987 -16.174 -21.560  0.00  0.00    +0.109 C 
ATOM     28  C   UNL     1      32.616 -13.860 -22.106  0.00  0.00    +0.001 C 
ATOM     29  C   UNL     1      35.006 -15.138 -23.672  0.00  0.00    +0.143 A 
ATOM     30  C   UNL     1      35.080 -17.302 -23.891  0.00  0.00    +0.141 A 
ENDBRANCH  19  30
ENDBRANCH  18  19
ENDBRANCH   1  18
TORSDOF 5
ENDMDL
MODEL 9
REMARK VINA RESULT:     -10.5      1.818      2.681
REMARK  Name = 20055414
REMARK  5 active torsions:
REMARK  status: ('A' for Active; 'I' for Inactive)
REMARK    1  A    between atoms: N_1  and  C_18
REMARK    2  A    between atoms: N_2  and  C_8
REMARK    3  A    between atoms: C_11  and  C_17
REMARK    4  A    between atoms: C_18  and  C_19
REMARK    5  A    between atoms: C_19  and  C_30
REMARK                            x       y       z     vdW  Elec       q    Type
REMARK                         _______ _______ _______ _____ _____    ______ ____
ROOT
ATOM      1  N   UNL     1      32.439 -10.554 -20.795  0.00  0.00    +0.390 N 
ATOM      2  N   UNL     1      32.032  -7.982 -21.970  0.00  0.00    -0.312 N 
ATOM      3  C   UNL     1      32.301  -9.362 -19.948  0.00  0.00    -0.055 C 
ATOM      4  C   UNL     1      31.610 -10.410 -21.997  0.00  0.00    -0.055 C 
ATOM      5  C   UNL     1      32.744  -8.102 -20.694  0.00  0.00    +0.068 C 
ATOM      6  C   UNL     1      32.031  -9.186 -22.812  0.00  0.00    +0.068 C 
ATOM      7  H   UNL     1      33.415 -10.645 -21.077  0.00  0.00    -0.080 HD
ENDROOT
BRANCH   2   8
ATOM      8  C   UNL     1      31.946  -6.737 -22.602  0.00  0.00    +0.048 C 
ATOM      9  C   UNL     1      32.786  -6.439 -23.676  0.00  0.00    +0.018 C 
ATOM     10  C   UNL     1      31.019  -5.793 -22.160  0.00  0.00    +0.015 C 
ATOM     11  C   UNL     1      32.699  -5.198 -24.305  0.00  0.00    +0.073 C 
ATOM     12  C   UNL     1      30.932  -4.551 -22.790  0.00  0.00    +0.001 C 
ATOM     13  C   UNL     1      31.772  -4.254 -23.862  0.00  0.00    +0.004 C 
BRANCH  11  17
ATOM     14  F   UNL     1      33.612  -3.554 -25.784  0.00  0.00    -0.166 F 
ATOM     15  F   UNL     1      34.905  -5.205 -25.229  0.00  0.00    -0.166 F 
ATOM     16  F   UNL     1      33.245  -5.539 -26.594  0.00  0.00    -0.166 F 
ATOM     17  C   UNL     1      33.597  -4.879 -25.452  0.00  0.00    +0.419 C 
ENDBRANCH  11  17
ENDBRANCH   2   8
BRANCH   1  18
ATOM     18  C   UNL     1      32.064 -11.757 -20.053  0.00  0.00    -0.069 C 
BRANCH  18  19
ATOM     19  C   UNL     1      31.705 -12.934 -20.986  0.00  0.00    +0.043 C 
BRANCH  19  30
ATOM     20  N   UNL     1      33.458 -13.778 -22.520  0.00  0.00    -0.302 N 
ATOM     21  N   UNL     1      34.559 -15.184 -21.278  0.00  0.00    -0.134 NA
ATOM     22  N   UNL     1      33.517 -14.616 -20.538  0.00  0.00    -0.134 NA
ATOM     23  C   UNL     1      34.340 -13.827 -24.692  0.00  0.00    +0.030 C 
ATOM     24  C   UNL     1      35.203 -14.752 -23.758  0.00  0.00    +0.061 C 
ATOM     25  C   UNL     1      33.723 -14.766 -25.737  0.00  0.00    +0.002 C 
ATOM     26  C   UNL     1      35.129 -16.143 -24.381  0.00  0.00    +0.008 C 
ATOM     27  C   UNL     1      33.291 -13.122 -23.793  0.00  0.00    +0.109 C 
ATOM     28  C   UNL     1      33.803 -16.159 -25.129  0.00  0.00    +0.001 C 
ATOM     29  C   UNL     1      34.488 -14.655 -22.471  0.00  0.00    +0.143 A 
ATOM     30  C   UNL     1      32.869 -13.769 -21.320  0.00  0.00    +0.141 A 
ENDBRANCH  19  30
ENDBRANCH  18  19
ENDBRANCH   1  18
TORSDOF 5
ENDMDL
