MODEL 1
REMARK VINA RESULT:     -11.9      0.000      0.000
REMARK  Name = 16040294
REMARK  4 active torsions:
REMARK  status: ('A' for Active; 'I' for Inactive)
REMARK    1  A    between atoms: N_6  and  C_21
REMARK    2  A    between atoms: C_7  and  C_30
REMARK    3  A    between atoms: C_24  and  C_27
REMARK    4  A    between atoms: C_27  and  C_29
REMARK                            x       y       z     vdW  Elec       q    Type
REMARK                         _______ _______ _______ _____ _____    ______ ____
ROOT
ATOM      1  N   UNL     1      31.360 -23.694 -16.856  0.00  0.00    -0.239 N 
ATOM      2  N   UNL     1      32.672 -23.633 -16.575  0.00  0.00    -0.166 NA
ATOM      3  N   UNL     1      33.804 -23.439 -14.468  0.00  0.00    -0.271 N 
ATOM      4  N   UNL     1      35.534 -22.899 -15.969  0.00  0.00    -0.312 NA
ATOM      5  N   UNL     1      37.833 -23.369 -15.416  0.00  0.00    -0.332 NA
ATOM      6  N   UNL     1      37.262 -22.365 -17.458  0.00  0.00    -0.238 N 
ATOM      7  C   UNL     1      30.556 -23.634 -15.755  0.00  0.00    +0.045 C 
ATOM      8  C   UNL     1      31.404 -23.526 -14.679  0.00  0.00    +0.048 C 
ATOM      9  C   UNL     1      32.655 -23.534 -15.270  0.00  0.00    +0.152 C 
ATOM     10  C   UNL     1      35.187 -23.422 -14.777  0.00  0.00    +0.201 C 
ATOM     11  C   UNL     1      36.098 -23.934 -13.859  0.00  0.00    +0.072 C 
ATOM     12  C   UNL     1      37.450 -23.884 -14.234  0.00  0.00    +0.131 C 
ATOM     13  C   UNL     1      36.854 -22.904 -16.219  0.00  0.00    +0.204 C 
ATOM     14  C   UNL     1      35.710 -24.475 -12.620  0.00  0.00    +0.006 C 
ATOM     15  C   UNL     1      38.392 -24.387 -13.339  0.00  0.00    +0.086 C 
ATOM     16  C   UNL     1      36.673 -24.971 -11.746  0.00  0.00    -0.004 C 
ATOM     17  C   UNL     1      38.015 -24.927 -12.106  0.00  0.00    -0.019 C 
ATOM     18  H   UNL     1      31.010 -23.775 -17.773  0.00  0.00    +0.174 HD
ATOM     19  H   UNL     1      33.612 -23.371 -13.506  0.00  0.00    +0.156 HD
ATOM     20  H   UNL     1      38.236 -22.390 -17.599  0.00  0.00    +0.166 HD
ENDROOT
BRANCH   6  21
ATOM     21  C   UNL     1      36.549 -21.799 -18.531  0.00  0.00    +0.058 C 
ATOM     22  C   UNL     1      35.230 -22.185 -18.778  0.00  0.00    +0.015 C 
ATOM     23  C   UNL     1      37.158 -20.847 -19.352  0.00  0.00    +0.015 C 
ATOM     24  C   UNL     1      35.135 -20.673 -20.660  0.00  0.00    -0.007 C 
ATOM     25  C   UNL     1      34.524 -21.623 -19.841  0.00  0.00    -0.002 C 
ATOM     26  C   UNL     1      36.452 -20.286 -20.415  0.00  0.00    -0.002 C 
BRANCH  24  27
ATOM     27  C   UNL     1      34.380 -20.073 -21.797  0.00  0.00    +0.132 C 
BRANCH  27  29
ATOM     28  N   UNL     1      35.913 -18.665 -23.410  0.00  0.00    -0.196 NA
ATOM     29  C   UNL     1      35.241 -19.284 -22.696  0.00  0.00    +0.078 C 
ENDBRANCH  27  29
ENDBRANCH  24  27
ENDBRANCH   6  21
BRANCH   7  30
ATOM     30  C   UNL     1      29.034 -23.679 -15.735  0.00  0.00    +0.037 C 
ATOM     31  C   UNL     1      28.277 -23.541 -17.031  0.00  0.00    +0.006 C 
ATOM     32  C   UNL     1      28.258 -22.421 -16.033  0.00  0.00    +0.006 C 
ENDBRANCH   7  30
TORSDOF 4
ENDMDL
MODEL 2
REMARK VINA RESULT:     -11.5      2.044      7.379
REMARK  Name = 16040294
REMARK  4 active torsions:
REMARK  status: ('A' for Active; 'I' for Inactive)
REMARK    1  A    between atoms: N_6  and  C_21
REMARK    2  A    between atoms: C_7  and  C_30
REMARK    3  A    between atoms: C_24  and  C_27
REMARK    4  A    between atoms: C_27  and  C_29
REMARK                            x       y       z     vdW  Elec       q    Type
REMARK                         _______ _______ _______ _____ _____    ______ ____
ROOT
ATOM      1  N   UNL     1      35.308 -22.433 -19.826  0.00  0.00    -0.239 N 
ATOM      2  N   UNL     1      34.628 -22.966 -18.796  0.00  0.00    -0.166 NA
ATOM      3  N   UNL     1      32.550 -22.303 -17.797  0.00  0.00    -0.271 N 
ATOM      4  N   UNL     1      33.405 -23.756 -16.155  0.00  0.00    -0.312 NA
ATOM      5  N   UNL     1      31.921 -25.013 -14.732  0.00  0.00    -0.332 NA
ATOM      6  N   UNL     1      34.249 -25.205 -14.519  0.00  0.00    -0.238 N 
ATOM      7  C   UNL     1      34.705 -21.341 -20.379  0.00  0.00    +0.045 C 
ATOM      8  C   UNL     1      33.551 -21.146 -19.660  0.00  0.00    +0.048 C 
ATOM      9  C   UNL     1      33.590 -22.171 -18.731  0.00  0.00    +0.152 C 
ATOM     10  C   UNL     1      32.317 -23.229 -16.749  0.00  0.00    +0.201 C 
ATOM     11  C   UNL     1      31.010 -23.542 -16.393  0.00  0.00    +0.072 C 
ATOM     12  C   UNL     1      30.857 -24.467 -15.347  0.00  0.00    +0.131 C 
ATOM     13  C   UNL     1      33.137 -24.628 -15.169  0.00  0.00    +0.204 C 
ATOM     14  C   UNL     1      29.889 -22.977 -17.028  0.00  0.00    +0.006 C 
ATOM     15  C   UNL     1      29.561 -24.804 -14.962  0.00  0.00    +0.086 C 
ATOM     16  C   UNL     1      28.607 -23.332 -16.622  0.00  0.00    -0.004 C 
ATOM     17  C   UNL     1      28.443 -24.247 -15.589  0.00  0.00    -0.019 C 
ATOM     18  H   UNL     1      36.163 -22.798 -20.152  0.00  0.00    +0.174 HD
ATOM     19  H   UNL     1      31.847 -21.621 -17.887  0.00  0.00    +0.156 HD
ATOM     20  H   UNL     1      34.006 -25.838 -13.806  0.00  0.00    +0.166 HD
ENDROOT
BRANCH   6  21
ATOM     21  C   UNL     1      35.637 -25.054 -14.693  0.00  0.00    +0.058 C 
ATOM     22  C   UNL     1      36.263 -23.858 -14.334  0.00  0.00    +0.015 C 
ATOM     23  C   UNL     1      36.395 -26.100 -15.224  0.00  0.00    +0.015 C 
ATOM     24  C   UNL     1      38.393 -24.755 -15.035  0.00  0.00    -0.007 C 
ATOM     25  C   UNL     1      37.638 -23.709 -14.505  0.00  0.00    -0.002 C 
ATOM     26  C   UNL     1      37.771 -25.950 -15.395  0.00  0.00    -0.002 C 
BRANCH  24  27
ATOM     27  C   UNL     1      39.864 -24.595 -15.220  0.00  0.00    +0.132 C 
BRANCH  27  29
ATOM     28  N   UNL     1      41.229 -26.696 -14.409  0.00  0.00    -0.196 NA
ATOM     29  C   UNL     1      40.624 -25.772 -14.763  0.00  0.00    +0.078 C 
ENDBRANCH  27  29
ENDBRANCH  24  27
ENDBRANCH   6  21
BRANCH   7  30
ATOM     30  C   UNL     1      35.217 -20.516 -21.552  0.00  0.00    +0.037 C 
ATOM     31  C   UNL     1      36.423 -19.632 -21.359  0.00  0.00    +0.006 C 
ATOM     32  C   UNL     1      35.064 -19.016 -21.518  0.00  0.00    +0.006 C 
ENDBRANCH   7  30
TORSDOF 4
ENDMDL
MODEL 3
REMARK VINA RESULT:     -11.3      1.523      6.736
REMARK  Name = 16040294
REMARK  4 active torsions:
REMARK  status: ('A' for Active; 'I' for Inactive)
REMARK    1  A    between atoms: N_6  and  C_21
REMARK    2  A    between atoms: C_7  and  C_30
REMARK    3  A    between atoms: C_24  and  C_27
REMARK    4  A    between atoms: C_27  and  C_29
REMARK                            x       y       z     vdW  Elec       q    Type
REMARK                         _______ _______ _______ _____ _____    ______ ____
ROOT
ATOM      1  N   UNL     1      32.054 -23.248 -15.184  0.00  0.00    -0.239 N 
ATOM      2  N   UNL     1      33.108 -22.855 -15.920  0.00  0.00    -0.166 NA
ATOM      3  N   UNL     1      33.344 -22.621 -18.295  0.00  0.00    -0.271 N 
ATOM      4  N   UNL     1      35.593 -22.564 -17.604  0.00  0.00    -0.312 NA
ATOM      5  N   UNL     1      37.237 -21.333 -18.865  0.00  0.00    -0.332 NA
ATOM      6  N   UNL     1      37.833 -22.502 -16.920  0.00  0.00    -0.238 N 
ATOM      7  C   UNL     1      30.951 -23.560 -15.924  0.00  0.00    +0.045 C 
ATOM      8  C   UNL     1      31.309 -23.357 -17.234  0.00  0.00    +0.048 C 
ATOM      9  C   UNL     1      32.623 -22.934 -17.133  0.00  0.00    +0.152 C 
ATOM     10  C   UNL     1      34.673 -22.171 -18.505  0.00  0.00    +0.201 C 
ATOM     11  C   UNL     1      34.955 -21.367 -19.604  0.00  0.00    +0.072 C 
ATOM     12  C   UNL     1      36.292 -20.960 -19.746  0.00  0.00    +0.131 C 
ATOM     13  C   UNL     1      36.836 -22.115 -17.841  0.00  0.00    +0.204 C 
ATOM     14  C   UNL     1      33.976 -20.971 -20.532  0.00  0.00    +0.006 C 
ATOM     15  C   UNL     1      36.614 -20.154 -20.836  0.00  0.00    +0.086 C 
ATOM     16  C   UNL     1      34.326 -20.165 -21.611  0.00  0.00    -0.004 C 
ATOM     17  C   UNL     1      35.646 -19.756 -21.763  0.00  0.00    -0.019 C 
ATOM     18  H   UNL     1      32.076 -23.304 -14.201  0.00  0.00    +0.174 HD
ATOM     19  H   UNL     1      32.829 -22.735 -19.126  0.00  0.00    +0.156 HD
ATOM     20  H   UNL     1      38.726 -22.149 -17.133  0.00  0.00    +0.166 HD
ENDROOT
BRANCH   6  21
ATOM     21  C   UNL     1      37.798 -23.293 -15.756  0.00  0.00    +0.058 C 
ATOM     22  C   UNL     1      36.885 -23.005 -14.740  0.00  0.00    +0.015 C 
ATOM     23  C   UNL     1      38.676 -24.370 -15.615  0.00  0.00    +0.015 C 
ATOM     24  C   UNL     1      37.729 -24.864 -13.449  0.00  0.00    -0.007 C 
ATOM     25  C   UNL     1      36.851 -23.789 -13.587  0.00  0.00    -0.002 C 
ATOM     26  C   UNL     1      38.642 -25.154 -14.463  0.00  0.00    -0.002 C 
BRANCH  24  27
ATOM     27  C   UNL     1      37.693 -25.702 -12.216  0.00  0.00    +0.132 C 
BRANCH  27  29
ATOM     28  N   UNL     1      35.604 -25.187 -10.696  0.00  0.00    -0.196 NA
ATOM     29  C   UNL     1      36.521 -25.416 -11.369  0.00  0.00    +0.078 C 
ENDBRANCH  27  29
ENDBRANCH  24  27
ENDBRANCH   6  21
BRANCH   7  30
ATOM     30  C   UNL     1      29.604 -24.035 -15.394  0.00  0.00    +0.037 C 
ATOM     31  C   UNL     1      28.576 -24.558 -16.365  0.00  0.00    +0.006 C 
ATOM     32  C   UNL     1      28.367 -23.228 -15.701  0.00  0.00    +0.006 C 
ENDBRANCH   7  30
TORSDOF 4
ENDMDL
MODEL 4
REMARK VINA RESULT:      -9.8      1.769      6.366
REMARK  Name = 16040294
REMARK  4 active torsions:
REMARK  status: ('A' for Active; 'I' for Inactive)
REMARK    1  A    between atoms: N_6  and  C_21
REMARK    2  A    between atoms: C_7  and  C_30
REMARK    3  A    between atoms: C_24  and  C_27
REMARK    4  A    between atoms: C_27  and  C_29
REMARK                            x       y       z     vdW  Elec       q    Type
REMARK                         _______ _______ _______ _____ _____    ______ ____
ROOT
ATOM      1  N   UNL     1      33.602 -21.353 -19.154  0.00  0.00    -0.239 N 
ATOM      2  N   UNL     1      33.561 -21.965 -17.959  0.00  0.00    -0.166 NA
ATOM      3  N   UNL     1      35.143 -23.433 -16.910  0.00  0.00    -0.271 N 
ATOM      4  N   UNL     1      33.231 -23.799 -15.587  0.00  0.00    -0.312 NA
ATOM      5  N   UNL     1      33.440 -24.418 -13.268  0.00  0.00    -0.332 NA
ATOM      6  N   UNL     1      31.332 -24.164 -14.265  0.00  0.00    -0.238 N 
ATOM      7  C   UNL     1      34.730 -21.620 -19.873  0.00  0.00    +0.045 C 
ATOM      8  C   UNL     1      35.479 -22.466 -19.093  0.00  0.00    +0.048 C 
ATOM      9  C   UNL     1      34.696 -22.617 -17.962  0.00  0.00    +0.152 C 
ATOM     10  C   UNL     1      34.575 -23.772 -15.656  0.00  0.00    +0.201 C 
ATOM     11  C   UNL     1      35.414 -24.054 -14.582  0.00  0.00    +0.072 C 
ATOM     12  C   UNL     1      34.780 -24.382 -13.372  0.00  0.00    +0.131 C 
ATOM     13  C   UNL     1      32.738 -24.124 -14.381  0.00  0.00    +0.204 C 
ATOM     14  C   UNL     1      36.816 -24.020 -14.678  0.00  0.00    +0.006 C 
ATOM     15  C   UNL     1      35.588 -24.672 -12.274  0.00  0.00    +0.086 C 
ATOM     16  C   UNL     1      37.597 -24.314 -13.565  0.00  0.00    -0.004 C 
ATOM     17  C   UNL     1      36.982 -24.640 -12.362  0.00  0.00    -0.019 C 
ATOM     18  H   UNL     1      32.883 -20.764 -19.482  0.00  0.00    +0.174 HD
ATOM     19  H   UNL     1      36.018 -23.850 -17.075  0.00  0.00    +0.156 HD
ATOM     20  H   UNL     1      31.016 -24.405 -13.365  0.00  0.00    +0.166 HD
ENDROOT
BRANCH   6  21
ATOM     21  C   UNL     1      30.293 -23.925 -15.184  0.00  0.00    +0.058 C 
ATOM     22  C   UNL     1      29.778 -24.974 -15.948  0.00  0.00    +0.015 C 
ATOM     23  C   UNL     1      29.774 -22.637 -15.334  0.00  0.00    +0.015 C 
ATOM     24  C   UNL     1      28.232 -23.450 -17.006  0.00  0.00    -0.007 C 
ATOM     25  C   UNL     1      28.749 -24.737 -16.859  0.00  0.00    -0.002 C 
ATOM     26  C   UNL     1      28.745 -22.400 -16.245  0.00  0.00    -0.002 C 
BRANCH  24  27
ATOM     27  C   UNL     1      27.131 -23.195 -17.981  0.00  0.00    +0.132 C 
BRANCH  27  29
ATOM     28  N   UNL     1      26.320 -20.690 -17.975  0.00  0.00    -0.196 NA
ATOM     29  C   UNL     1      26.681 -21.792 -17.974  0.00  0.00    +0.078 C 
ENDBRANCH  27  29
ENDBRANCH  24  27
ENDBRANCH   6  21
BRANCH   7  30
ATOM     30  C   UNL     1      35.078 -21.084 -21.256  0.00  0.00    +0.037 C 
ATOM     31  C   UNL     1      36.055 -19.942 -21.377  0.00  0.00    +0.006 C 
ATOM     32  C   UNL     1      34.599 -19.711 -21.654  0.00  0.00    +0.006 C 
ENDBRANCH   7  30
TORSDOF 4
ENDMDL
MODEL 5
REMARK VINA RESULT:      -9.0      1.713      6.398
REMARK  Name = 16040294
REMARK  4 active torsions:
REMARK  status: ('A' for Active; 'I' for Inactive)
REMARK    1  A    between atoms: N_6  and  C_21
REMARK    2  A    between atoms: C_7  and  C_30
REMARK    3  A    between atoms: C_24  and  C_27
REMARK    4  A    between atoms: C_27  and  C_29
REMARK                            x       y       z     vdW  Elec       q    Type
REMARK                         _______ _______ _______ _____ _____    ______ ____
ROOT
ATOM      1  N   UNL     1      34.652 -21.591 -18.422  0.00  0.00    -0.239 N 
ATOM      2  N   UNL     1      34.575 -22.182 -17.218  0.00  0.00    -0.166 NA
ATOM      3  N   UNL     1      36.133 -23.612 -16.085  0.00  0.00    -0.271 N 
ATOM      4  N   UNL     1      34.178 -23.977 -14.826  0.00  0.00    -0.312 NA
ATOM      5  N   UNL     1      34.310 -24.552 -12.490  0.00  0.00    -0.332 NA
ATOM      6  N   UNL     1      32.237 -24.341 -13.567  0.00  0.00    -0.238 N 
ATOM      7  C   UNL     1      35.809 -21.858 -19.094  0.00  0.00    +0.045 C 
ATOM      8  C   UNL     1      36.538 -22.681 -18.272  0.00  0.00    +0.048 C 
ATOM      9  C   UNL     1      35.716 -22.821 -17.167  0.00  0.00    +0.152 C 
ATOM     10  C   UNL     1      35.524 -23.936 -14.846  0.00  0.00    +0.201 C 
ATOM     11  C   UNL     1      36.326 -24.189 -13.738  0.00  0.00    +0.072 C 
ATOM     12  C   UNL     1      35.652 -24.502 -12.546  0.00  0.00    +0.131 C 
ATOM     13  C   UNL     1      33.646 -24.287 -13.633  0.00  0.00    +0.204 C 
ATOM     14  C   UNL     1      37.730 -24.140 -13.784  0.00  0.00    +0.006 C 
ATOM     15  C   UNL     1      36.422 -24.763 -11.414  0.00  0.00    +0.086 C 
ATOM     16  C   UNL     1      38.473 -24.405 -12.638  0.00  0.00    -0.004 C 
ATOM     17  C   UNL     1      37.819 -24.716 -11.452  0.00  0.00    -0.019 C 
ATOM     18  H   UNL     1      33.939 -21.017 -18.786  0.00  0.00    +0.174 HD
ATOM     19  H   UNL     1      37.019 -24.022 -16.211  0.00  0.00    +0.156 HD
ATOM     20  H   UNL     1      31.891 -24.569 -12.675  0.00  0.00    +0.166 HD
ENDROOT
BRANCH   6  21
ATOM     21  C   UNL     1      31.230 -24.130 -14.528  0.00  0.00    +0.058 C 
ATOM     22  C   UNL     1      31.175 -22.926 -15.234  0.00  0.00    +0.015 C 
ATOM     23  C   UNL     1      30.282 -25.125 -14.779  0.00  0.00    +0.015 C 
ATOM     24  C   UNL     1      29.233 -23.714 -16.435  0.00  0.00    -0.007 C 
ATOM     25  C   UNL     1      30.178 -22.718 -16.186  0.00  0.00    -0.002 C 
ATOM     26  C   UNL     1      29.285 -24.917 -15.730  0.00  0.00    -0.002 C 
BRANCH  24  27
ATOM     27  C   UNL     1      28.166 -23.491 -17.452  0.00  0.00    +0.132 C 
BRANCH  27  29
ATOM     28  N   UNL     1      26.218 -21.956 -16.566  0.00  0.00    -0.196 NA
ATOM     29  C   UNL     1      27.075 -22.635 -16.952  0.00  0.00    +0.078 C 
ENDBRANCH  27  29
ENDBRANCH  24  27
ENDBRANCH   6  21
BRANCH   7  30
ATOM     30  C   UNL     1      36.201 -21.342 -20.473  0.00  0.00    +0.037 C 
ATOM     31  C   UNL     1      36.719 -19.933 -20.611  0.00  0.00    +0.006 C 
ATOM     32  C   UNL     1      35.354 -20.281 -21.129  0.00  0.00    +0.006 C 
ENDBRANCH   7  30
TORSDOF 4
ENDMDL
