MODEL 1
REMARK VINA RESULT:     -11.9      0.000      0.000
REMARK  Name = 11974440
REMARK  4 active torsions:
REMARK  status: ('A' for Active; 'I' for Inactive)
REMARK    1  A    between atoms: C_1  and  C_25
REMARK    2  A    between atoms: C_2  and  N_31
REMARK    3  A    between atoms: C_5  and  C_12
REMARK    4  A    between atoms: C_17  and  C_21
REMARK                            x       y       z     vdW  Elec       q    Type
REMARK                         _______ _______ _______ _____ _____    ______ ____
ROOT
ATOM      1  C   UNL     1      34.846 -19.958 -20.689  0.00  0.00    +0.009 C 
ATOM      2  C   UNL     1      35.898 -21.085 -20.524  0.00  0.00    -0.057 C 
ATOM      3  C   UNL     1      35.703 -21.814 -19.179  0.00  0.00    +0.009 C 
ATOM      4  C   UNL     1      33.413 -20.538 -20.613  0.00  0.00    +0.028 C 
ATOM      5  C   UNL     1      34.266 -22.127 -18.890  0.00  0.00    +0.025 C 
ATOM      6  C   UNL     1      33.234 -21.568 -19.536  0.00  0.00    -0.026 C 
ENDROOT
BRANCH   5  12
ATOM      7  O   UNL     1      32.960 -23.826 -17.995  0.00  0.00    -0.270 OA
ATOM      8  N   UNL     1      34.830 -23.208 -16.760  0.00  0.00    -0.267 N 
ATOM      9  N   UNL     1      37.056 -24.328 -15.583  0.00  0.00    -0.292 N 
ATOM     10  N   UNL     1      35.997 -25.893 -14.494  0.00  0.00    -0.132 NA
ATOM     11  N   UNL     1      37.358 -26.080 -14.331  0.00  0.00    -0.125 NA
ATOM     12  C   UNL     1      33.960 -23.123 -17.843  0.00  0.00    +0.245 C 
ATOM     13  C   UNL     1      35.992 -22.333 -16.507  0.00  0.00    +0.119 C 
ATOM     14  C   UNL     1      34.560 -24.199 -15.706  0.00  0.00    +0.160 C 
ATOM     15  C   UNL     1      37.265 -23.174 -16.430  0.00  0.00    +0.130 C 
ATOM     16  C   UNL     1      35.827 -24.831 -15.255  0.00  0.00    +0.164 A 
ATOM     17  C   UNL     1      37.977 -25.128 -14.995  0.00  0.00    +0.238 A 
BRANCH  17  21
ATOM     18  F   UNL     1      40.094 -25.961 -15.735  0.00  0.00    -0.163 F 
ATOM     19  F   UNL     1      39.793 -23.816 -15.832  0.00  0.00    -0.163 F 
ATOM     20  F   UNL     1      40.063 -24.787 -13.905  0.00  0.00    -0.163 F 
ATOM     21  C   UNL     1      39.432 -24.930 -15.115  0.00  0.00    +0.452 C 
ENDBRANCH  17  21
ENDBRANCH   5  12
BRANCH   1  25
ATOM     22  F   UNL     1      35.865 -17.310 -20.703  0.00  0.00    -0.204 F 
ATOM     23  F   UNL     1      34.458 -19.453 -25.534  0.00  0.00    -0.202 F 
ATOM     24  F   UNL     1      35.455 -16.911 -25.400  0.00  0.00    -0.202 F 
ATOM     25  C   UNL     1      35.012 -19.135 -21.957  0.00  0.00    +0.006 C 
ATOM     26  C   UNL     1      35.520 -17.842 -21.883  0.00  0.00    +0.138 C 
ATOM     27  C   UNL     1      34.652 -19.684 -23.184  0.00  0.00    +0.030 C 
ATOM     28  C   UNL     1      34.803 -18.931 -24.349  0.00  0.00    +0.167 C 
ATOM     29  C   UNL     1      35.671 -17.090 -23.048  0.00  0.00    +0.061 C 
ATOM     30  C   UNL     1      35.312 -17.635 -24.281  0.00  0.00    +0.170 C 
ENDBRANCH   1  25
BRANCH   2  31
ATOM     31  N   UNL     1      37.264 -20.558 -20.596  0.00  0.00    +0.382 N 
ATOM     32  H   UNL     1      37.776 -21.044 -21.333  0.00  0.00    -0.089 HD
ATOM     33  H   UNL     1      37.732 -20.705 -19.703  0.00  0.00    -0.089 HD
ATOM     34  H   UNL     1      37.233 -19.561 -20.806  0.00  0.00    -0.089 HD
ENDBRANCH   2  31
TORSDOF 4
ENDMDL
MODEL 2
REMARK VINA RESULT:     -11.8      3.832      4.752
REMARK  Name = 11974440
REMARK  4 active torsions:
REMARK  status: ('A' for Active; 'I' for Inactive)
REMARK    1  A    between atoms: C_1  and  C_25
REMARK    2  A    between atoms: C_2  and  N_31
REMARK    3  A    between atoms: C_5  and  C_12
REMARK    4  A    between atoms: C_17  and  C_21
REMARK                            x       y       z     vdW  Elec       q    Type
REMARK                         _______ _______ _______ _____ _____    ______ ____
ROOT
ATOM      1  C   UNL     1      35.458 -19.953 -21.805  0.00  0.00    +0.009 C 
ATOM      2  C   UNL     1      34.248 -20.081 -20.844  0.00  0.00    -0.057 C 
ATOM      3  C   UNL     1      34.451 -21.263 -19.874  0.00  0.00    +0.009 C 
ATOM      4  C   UNL     1      36.767 -19.750 -21.005  0.00  0.00    +0.028 C 
ATOM      5  C   UNL     1      35.833 -21.309 -19.296  0.00  0.00    +0.025 C 
ATOM      6  C   UNL     1      36.874 -20.625 -19.790  0.00  0.00    -0.026 C 
ENDROOT
BRANCH   5  12
ATOM      7  O   UNL     1      37.136 -22.001 -17.501  0.00  0.00    -0.270 OA
ATOM      8  N   UNL     1      35.060 -23.025 -17.721  0.00  0.00    -0.267 N 
ATOM      9  N   UNL     1      32.790 -23.548 -16.249  0.00  0.00    -0.292 N 
ATOM     10  N   UNL     1      33.810 -24.417 -14.527  0.00  0.00    -0.132 NA
ATOM     11  N   UNL     1      32.460 -24.313 -14.240  0.00  0.00    -0.125 NA
ATOM     12  C   UNL     1      36.068 -22.142 -18.099  0.00  0.00    +0.245 C 
ATOM     13  C   UNL     1      33.803 -23.276 -18.454  0.00  0.00    +0.119 C 
ATOM     14  C   UNL     1      35.258 -23.861 -16.526  0.00  0.00    +0.160 C 
ATOM     15  C   UNL     1      32.609 -22.957 -17.557  0.00  0.00    +0.130 C 
ATOM     16  C   UNL     1      33.997 -23.949 -15.744  0.00  0.00    +0.164 A 
ATOM     17  C   UNL     1      31.865 -23.787 -15.288  0.00  0.00    +0.238 A 
BRANCH  17  21
ATOM     18  F   UNL     1      30.092 -22.192 -15.108  0.00  0.00    -0.163 F 
ATOM     19  F   UNL     1      29.948 -23.646 -16.711  0.00  0.00    -0.163 F 
ATOM     20  F   UNL     1      29.624 -24.266 -14.652  0.00  0.00    -0.163 F 
ATOM     21  C   UNL     1      30.432 -23.481 -15.436  0.00  0.00    +0.452 C 
ENDBRANCH  17  21
ENDBRANCH   5  12
BRANCH   1  25
ATOM     22  F   UNL     1      34.925 -20.476 -24.542  0.00  0.00    -0.204 F 
ATOM     23  F   UNL     1      35.418 -15.233 -23.069  0.00  0.00    -0.202 F 
ATOM     24  F   UNL     1      34.904 -15.882 -25.674  0.00  0.00    -0.202 F 
ATOM     25  C   UNL     1      35.307 -18.857 -22.849  0.00  0.00    +0.006 C 
ATOM     26  C   UNL     1      35.045 -19.193 -24.174  0.00  0.00    +0.138 C 
ATOM     27  C   UNL     1      35.434 -17.524 -22.471  0.00  0.00    +0.030 C 
ATOM     28  C   UNL     1      35.297 -16.518 -23.426  0.00  0.00    +0.167 C 
ATOM     29  C   UNL     1      34.908 -18.187 -25.129  0.00  0.00    +0.061 C 
ATOM     30  C   UNL     1      35.033 -16.849 -24.755  0.00  0.00    +0.170 C 
ENDBRANCH   1  25
BRANCH   2  31
ATOM     31  N   UNL     1      32.995 -20.270 -21.581  0.00  0.00    +0.382 N 
ATOM     32  H   UNL     1      32.971 -21.212 -21.973  0.00  0.00    -0.089 HD
ATOM     33  H   UNL     1      32.939 -19.587 -22.335  0.00  0.00    -0.089 HD
ATOM     34  H   UNL     1      32.206 -20.146 -20.948  0.00  0.00    -0.089 HD
ENDBRANCH   2  31
TORSDOF 4
ENDMDL
MODEL 3
REMARK VINA RESULT:     -11.5      3.604      4.420
REMARK  Name = 11974440
REMARK  4 active torsions:
REMARK  status: ('A' for Active; 'I' for Inactive)
REMARK    1  A    between atoms: C_1  and  C_25
REMARK    2  A    between atoms: C_2  and  N_31
REMARK    3  A    between atoms: C_5  and  C_12
REMARK    4  A    between atoms: C_17  and  C_21
REMARK                            x       y       z     vdW  Elec       q    Type
REMARK                         _______ _______ _______ _____ _____    ______ ____
ROOT
ATOM      1  C   UNL     1      35.375 -20.335 -21.380  0.00  0.00    +0.009 C 
ATOM      2  C   UNL     1      34.204 -20.374 -20.364  0.00  0.00    -0.057 C 
ATOM      3  C   UNL     1      34.400 -21.527 -19.358  0.00  0.00    +0.009 C 
ATOM      4  C   UNL     1      36.725 -20.160 -20.645  0.00  0.00    +0.028 C 
ATOM      5  C   UNL     1      35.804 -21.612 -18.838  0.00  0.00    +0.025 C 
ATOM      6  C   UNL     1      36.849 -20.993 -19.403  0.00  0.00    -0.026 C 
ENDROOT
BRANCH   5  12
ATOM      7  O   UNL     1      37.122 -22.234 -17.030  0.00  0.00    -0.270 OA
ATOM      8  N   UNL     1      35.065 -23.301 -17.218  0.00  0.00    -0.267 N 
ATOM      9  N   UNL     1      32.808 -23.828 -15.728  0.00  0.00    -0.292 N 
ATOM     10  N   UNL     1      33.846 -24.634 -13.987  0.00  0.00    -0.132 NA
ATOM     11  N   UNL     1      32.495 -24.547 -13.700  0.00  0.00    -0.125 NA
ATOM     12  C   UNL     1      36.055 -22.410 -17.621  0.00  0.00    +0.245 C 
ATOM     13  C   UNL     1      33.812 -23.594 -17.942  0.00  0.00    +0.119 C 
ATOM     14  C   UNL     1      35.280 -24.102 -16.003  0.00  0.00    +0.160 C 
ATOM     15  C   UNL     1      32.614 -23.274 -17.050  0.00  0.00    +0.130 C 
ATOM     16  C   UNL     1      34.023 -24.194 -15.216  0.00  0.00    +0.164 A 
ATOM     17  C   UNL     1      31.889 -24.060 -14.760  0.00  0.00    +0.238 A 
BRANCH  17  21
ATOM     18  F   UNL     1      30.135 -22.450 -14.999  0.00  0.00    -0.163 F 
ATOM     19  F   UNL     1      29.885 -24.339 -16.034  0.00  0.00    -0.163 F 
ATOM     20  F   UNL     1      29.692 -24.256 -13.871  0.00  0.00    -0.163 F 
ATOM     21  C   UNL     1      30.450 -23.784 -14.913  0.00  0.00    +0.452 C 
ENDBRANCH  17  21
ENDBRANCH   5  12
BRANCH   1  25
ATOM     22  F   UNL     1      36.093 -17.616 -20.999  0.00  0.00    -0.204 F 
ATOM     23  F   UNL     1      34.073 -18.988 -25.893  0.00  0.00    -0.202 F 
ATOM     24  F   UNL     1      34.807 -16.403 -25.388  0.00  0.00    -0.202 F 
ATOM     25  C   UNL     1      35.224 -19.273 -22.459  0.00  0.00    +0.006 C 
ATOM     26  C   UNL     1      35.599 -17.960 -22.197  0.00  0.00    +0.138 C 
ATOM     27  C   UNL     1      34.709 -19.626 -23.703  0.00  0.00    +0.030 C 
ATOM     28  C   UNL     1      34.569 -18.655 -24.694  0.00  0.00    +0.167 C 
ATOM     29  C   UNL     1      35.459 -16.989 -23.188  0.00  0.00    +0.061 C 
ATOM     30  C   UNL     1      34.944 -17.337 -24.437  0.00  0.00    +0.170 C 
ENDBRANCH   1  25
BRANCH   2  31
ATOM     31  N   UNL     1      32.913 -20.536 -21.040  0.00  0.00    +0.382 N 
ATOM     32  H   UNL     1      32.459 -21.386 -20.705  0.00  0.00    -0.089 HD
ATOM     33  H   UNL     1      33.063 -20.604 -22.045  0.00  0.00    -0.089 HD
ATOM     34  H   UNL     1      32.320 -19.731 -20.836  0.00  0.00    -0.089 HD
ENDBRANCH   2  31
TORSDOF 4
ENDMDL
MODEL 4
REMARK VINA RESULT:     -11.5      1.563      2.136
REMARK  Name = 11974440
REMARK  4 active torsions:
REMARK  status: ('A' for Active; 'I' for Inactive)
REMARK    1  A    between atoms: C_1  and  C_25
REMARK    2  A    between atoms: C_2  and  N_31
REMARK    3  A    between atoms: C_5  and  C_12
REMARK    4  A    between atoms: C_17  and  C_21
REMARK                            x       y       z     vdW  Elec       q    Type
REMARK                         _______ _______ _______ _____ _____    ______ ____
ROOT
ATOM      1  C   UNL     1      35.349 -21.366 -20.206  0.00  0.00    +0.009 C 
ATOM      2  C   UNL     1      33.945 -21.304 -19.550  0.00  0.00    -0.057 C 
ATOM      3  C   UNL     1      33.762 -22.466 -18.553  0.00  0.00    +0.009 C 
ATOM      4  C   UNL     1      36.455 -21.305 -19.126  0.00  0.00    +0.028 C 
ATOM      5  C   UNL     1      34.956 -22.668 -17.671  0.00  0.00    +0.025 C 
ATOM      6  C   UNL     1      36.164 -22.142 -17.914  0.00  0.00    -0.026 C 
ENDROOT
BRANCH   5  12
ATOM      7  O   UNL     1      33.718 -24.049 -16.273  0.00  0.00    -0.270 OA
ATOM      8  N   UNL     1      35.883 -23.560 -15.580  0.00  0.00    -0.267 N 
ATOM      9  N   UNL     1      38.186 -24.836 -14.766  0.00  0.00    -0.292 N 
ATOM     10  N   UNL     1      37.246 -26.097 -13.255  0.00  0.00    -0.132 NA
ATOM     11  N   UNL     1      38.579 -26.453 -13.367  0.00  0.00    -0.125 NA
ATOM     12  C   UNL     1      34.798 -23.481 -16.448  0.00  0.00    +0.245 C 
ATOM     13  C   UNL     1      37.161 -22.834 -15.718  0.00  0.00    +0.119 C 
ATOM     14  C   UNL     1      35.760 -24.372 -14.359  0.00  0.00    +0.160 C 
ATOM     15  C   UNL     1      38.316 -23.830 -15.799  0.00  0.00    +0.130 C 
ATOM     16  C   UNL     1      37.021 -25.119 -14.108  0.00  0.00    +0.164 A 
ATOM     17  C   UNL     1      39.125 -25.683 -14.282  0.00  0.00    +0.238 A 
BRANCH  17  21
ATOM     18  F   UNL     1      41.240 -24.576 -14.442  0.00  0.00    -0.163 F 
ATOM     19  F   UNL     1      41.273 -26.733 -14.224  0.00  0.00    -0.163 F 
ATOM     20  F   UNL     1      40.644 -25.843 -16.105  0.00  0.00    -0.163 F 
ATOM     21  C   UNL     1      40.524 -25.707 -14.745  0.00  0.00    +0.452 C 
ENDBRANCH  17  21
ENDBRANCH   5  12
BRANCH   1  25
ATOM     22  F   UNL     1      37.565 -19.595 -20.155  0.00  0.00    -0.204 F 
ATOM     23  F   UNL     1      34.044 -19.046 -24.303  0.00  0.00    -0.202 F 
ATOM     24  F   UNL     1      36.224 -17.406 -24.130  0.00  0.00    -0.202 F 
ATOM     25  C   UNL     1      35.588 -20.299 -21.263  0.00  0.00    +0.006 C 
ATOM     26  C   UNL     1      36.699 -19.467 -21.170  0.00  0.00    +0.138 C 
ATOM     27  C   UNL     1      34.689 -20.162 -22.316  0.00  0.00    +0.030 C 
ATOM     28  C   UNL     1      34.905 -19.183 -23.287  0.00  0.00    +0.167 C 
ATOM     29  C   UNL     1      36.915 -18.489 -22.140  0.00  0.00    +0.061 C 
ATOM     30  C   UNL     1      36.018 -18.347 -23.199  0.00  0.00    +0.170 C 
ENDBRANCH   1  25
BRANCH   2  31
ATOM     31  N   UNL     1      32.880 -21.357 -20.556  0.00  0.00    +0.382 N 
ATOM     32  H   UNL     1      32.004 -21.041 -20.140  0.00  0.00    -0.089 HD
ATOM     33  H   UNL     1      32.774 -22.314 -20.888  0.00  0.00    -0.089 HD
ATOM     34  H   UNL     1      33.122 -20.749 -21.339  0.00  0.00    -0.089 HD
ENDBRANCH   2  31
TORSDOF 4
ENDMDL
MODEL 5
REMARK VINA RESULT:     -11.0     10.496     16.134
REMARK  Name = 11974440
REMARK  4 active torsions:
REMARK  status: ('A' for Active; 'I' for Inactive)
REMARK    1  A    between atoms: C_1  and  C_25
REMARK    2  A    between atoms: C_2  and  N_31
REMARK    3  A    between atoms: C_5  and  C_12
REMARK    4  A    between atoms: C_17  and  C_21
REMARK                            x       y       z     vdW  Elec       q    Type
REMARK                         _______ _______ _______ _____ _____    ______ ____
ROOT
ATOM      1  C   UNL     1      33.619 -12.124 -23.066  0.00  0.00    +0.009 C 
ATOM      2  C   UNL     1      32.197 -12.101 -22.448  0.00  0.00    -0.057 C 
ATOM      3  C   UNL     1      31.983 -10.810 -21.631  0.00  0.00    +0.009 C 
ATOM      4  C   UNL     1      33.835 -10.891 -23.975  0.00  0.00    +0.028 C 
ATOM      5  C   UNL     1      32.477  -9.585 -22.341  0.00  0.00    +0.025 C 
ATOM      6  C   UNL     1      33.298  -9.614 -23.399  0.00  0.00    -0.026 C 
ENDROOT
BRANCH   5  12
ATOM      7  O   UNL     1      32.042  -8.056 -20.647  0.00  0.00    -0.270 OA
ATOM      8  N   UNL     1      31.612  -7.338 -22.816  0.00  0.00    -0.267 N 
ATOM      9  N   UNL     1      32.213  -5.254 -24.516  0.00  0.00    -0.292 N 
ATOM     10  N   UNL     1      31.672  -3.651 -23.138  0.00  0.00    -0.132 NA
ATOM     11  N   UNL     1      32.226  -3.092 -24.277  0.00  0.00    -0.125 NA
ATOM     12  C   UNL     1      32.022  -8.264 -21.862  0.00  0.00    +0.245 C 
ATOM     13  C   UNL     1      31.503  -7.577 -24.269  0.00  0.00    +0.119 C 
ATOM     14  C   UNL     1      31.165  -6.009 -22.372  0.00  0.00    +0.160 C 
ATOM     15  C   UNL     1      32.398  -6.596 -25.023  0.00  0.00    +0.130 C 
ATOM     16  C   UNL     1      31.672  -4.959 -23.294  0.00  0.00    +0.164 A 
ATOM     17  C   UNL     1      32.545  -4.074 -25.092  0.00  0.00    +0.238 A 
BRANCH  17  21
ATOM     18  F   UNL     1      33.342  -5.154 -27.072  0.00  0.00    -0.163 F 
ATOM     19  F   UNL     1      32.470  -3.183 -27.310  0.00  0.00    -0.163 F 
ATOM     20  F   UNL     1      34.425  -3.399 -26.383  0.00  0.00    -0.163 F 
ATOM     21  C   UNL     1      33.172  -3.958 -26.420  0.00  0.00    +0.452 C 
ENDBRANCH  17  21
ENDBRANCH   5  12
BRANCH   1  25
ATOM     22  F   UNL     1      35.019 -14.308 -21.916  0.00  0.00    -0.204 F 
ATOM     23  F   UNL     1      33.466 -14.827 -27.134  0.00  0.00    -0.202 F 
ATOM     24  F   UNL     1      34.822 -16.854 -25.899  0.00  0.00    -0.202 F 
ATOM     25  C   UNL     1      33.943 -13.401 -23.827  0.00  0.00    +0.006 C 
ATOM     26  C   UNL     1      34.633 -14.429 -23.194  0.00  0.00    +0.138 C 
ATOM     27  C   UNL     1      33.547 -13.529 -25.155  0.00  0.00    +0.030 C 
ATOM     28  C   UNL     1      33.844 -14.698 -25.855  0.00  0.00    +0.167 C 
ATOM     29  C   UNL     1      34.930 -15.598 -23.894  0.00  0.00    +0.061 C 
ATOM     30  C   UNL     1      34.535 -15.732 -25.225  0.00  0.00    +0.170 C 
ENDBRANCH   1  25
BRANCH   2  31
ATOM     31  N   UNL     1      31.968 -13.263 -21.584  0.00  0.00    +0.382 N 
ATOM     32  H   UNL     1      31.740 -12.946 -20.642  0.00  0.00    -0.089 HD
ATOM     33  H   UNL     1      32.810 -13.836 -21.556  0.00  0.00    -0.089 HD
ATOM     34  H   UNL     1      31.193 -13.814 -21.954  0.00  0.00    -0.089 HD
ENDBRANCH   2  31
TORSDOF 4
ENDMDL
MODEL 6
REMARK VINA RESULT:     -11.0      3.860     10.023
REMARK  Name = 11974440
REMARK  4 active torsions:
REMARK  status: ('A' for Active; 'I' for Inactive)
REMARK    1  A    between atoms: C_1  and  C_25
REMARK    2  A    between atoms: C_2  and  N_31
REMARK    3  A    between atoms: C_5  and  C_12
REMARK    4  A    between atoms: C_17  and  C_21
REMARK                            x       y       z     vdW  Elec       q    Type
REMARK                         _______ _______ _______ _____ _____    ______ ____
ROOT
ATOM      1  C   UNL     1      35.222 -21.232 -19.030  0.00  0.00    +0.009 C 
ATOM      2  C   UNL     1      33.985 -21.414 -19.947  0.00  0.00    -0.057 C 
ATOM      3  C   UNL     1      33.947 -20.314 -21.028  0.00  0.00    +0.009 C 
ATOM      4  C   UNL     1      36.525 -21.275 -19.862  0.00  0.00    +0.028 C 
ATOM      5  C   UNL     1      35.283 -20.079 -21.664  0.00  0.00    +0.025 C 
ATOM      6  C   UNL     1      36.442 -20.516 -21.154  0.00  0.00    -0.026 C 
ENDROOT
BRANCH   5  12
ATOM      7  O   UNL     1      35.204 -19.978 -23.984  0.00  0.00    -0.270 OA
ATOM      8  N   UNL     1      35.512 -17.957 -22.877  0.00  0.00    -0.267 N 
ATOM      9  N   UNL     1      34.432 -15.425 -22.751  0.00  0.00    -0.292 N 
ATOM     10  N   UNL     1      34.447 -15.044 -24.899  0.00  0.00    -0.132 NA
ATOM     11  N   UNL     1      33.810 -13.992 -24.264  0.00  0.00    -0.125 NA
ATOM     12  C   UNL     1      35.333 -19.336 -22.940  0.00  0.00    +0.245 C 
ATOM     13  C   UNL     1      35.746 -17.166 -21.652  0.00  0.00    +0.119 C 
ATOM     14  C   UNL     1      35.554 -17.186 -24.130  0.00  0.00    +0.160 C 
ATOM     15  C   UNL     1      34.648 -16.115 -21.498  0.00  0.00    +0.130 C 
ATOM     16  C   UNL     1      34.817 -15.905 -23.973  0.00  0.00    +0.164 A 
ATOM     17  C   UNL     1      33.811 -14.242 -22.973  0.00  0.00    +0.238 A 
BRANCH  17  21
ATOM     18  F   UNL     1      32.099 -13.921 -21.333  0.00  0.00    -0.163 F 
ATOM     19  F   UNL     1      34.079 -13.181 -20.846  0.00  0.00    -0.163 F 
ATOM     20  F   UNL     1      32.872 -12.153 -22.333  0.00  0.00    -0.163 F 
ATOM     21  C   UNL     1      33.235 -13.405 -21.906  0.00  0.00    +0.452 C 
ENDBRANCH  17  21
ENDBRANCH   5  12
BRANCH   1  25
ATOM     22  F   UNL     1      37.581 -21.697 -17.523  0.00  0.00    -0.204 F 
ATOM     23  F   UNL     1      33.151 -24.598 -16.156  0.00  0.00    -0.202 F 
ATOM     24  F   UNL     1      35.492 -24.944 -14.788  0.00  0.00    -0.202 F 
ATOM     25  C   UNL     1      35.297 -22.231 -17.885  0.00  0.00    +0.006 C 
ATOM     26  C   UNL     1      36.491 -22.403 -17.193  0.00  0.00    +0.138 C 
ATOM     27  C   UNL     1      34.168 -22.968 -17.541  0.00  0.00    +0.030 C 
ATOM     28  C   UNL     1      34.234 -23.885 -16.493  0.00  0.00    +0.167 C 
ATOM     29  C   UNL     1      36.557 -23.320 -16.144  0.00  0.00    +0.061 C 
ATOM     30  C   UNL     1      35.428 -24.061 -15.794  0.00  0.00    +0.170 C 
ENDBRANCH   1  25
BRANCH   2  31
ATOM     31  N   UNL     1      32.737 -21.380 -19.178  0.00  0.00    +0.382 N 
ATOM     32  H   UNL     1      32.853 -21.919 -18.320  0.00  0.00    -0.089 HD
ATOM     33  H   UNL     1      31.985 -21.785 -19.734  0.00  0.00    -0.089 HD
ATOM     34  H   UNL     1      32.508 -20.414 -18.945  0.00  0.00    -0.089 HD
ENDBRANCH   2  31
TORSDOF 4
ENDMDL
MODEL 7
REMARK VINA RESULT:     -10.9      0.756      1.502
REMARK  Name = 11974440
REMARK  4 active torsions:
REMARK  status: ('A' for Active; 'I' for Inactive)
REMARK    1  A    between atoms: C_1  and  C_25
REMARK    2  A    between atoms: C_2  and  N_31
REMARK    3  A    between atoms: C_5  and  C_12
REMARK    4  A    between atoms: C_17  and  C_21
REMARK                            x       y       z     vdW  Elec       q    Type
REMARK                         _______ _______ _______ _____ _____    ______ ____
ROOT
ATOM      1  C   UNL     1      34.872 -19.762 -20.630  0.00  0.00    +0.009 C 
ATOM      2  C   UNL     1      35.975 -20.834 -20.436  0.00  0.00    -0.057 C 
ATOM      3  C   UNL     1      35.726 -21.636 -19.142  0.00  0.00    +0.009 C 
ATOM      4  C   UNL     1      33.475 -20.424 -20.688  0.00  0.00    +0.028 C 
ATOM      5  C   UNL     1      34.293 -22.043 -18.976  0.00  0.00    +0.025 C 
ATOM      6  C   UNL     1      33.280 -21.513 -19.674  0.00  0.00    -0.026 C 
ENDROOT
BRANCH   5  12
ATOM      7  O   UNL     1      33.002 -23.826 -18.236  0.00  0.00    -0.270 OA
ATOM      8  N   UNL     1      34.794 -23.223 -16.883  0.00  0.00    -0.267 N 
ATOM      9  N   UNL     1      36.999 -24.340 -15.665  0.00  0.00    -0.292 N 
ATOM     10  N   UNL     1      35.941 -25.993 -14.712  0.00  0.00    -0.132 NA
ATOM     11  N   UNL     1      37.299 -26.149 -14.496  0.00  0.00    -0.125 NA
ATOM     12  C   UNL     1      33.972 -23.103 -18.000  0.00  0.00    +0.245 C 
ATOM     13  C   UNL     1      35.916 -22.330 -16.530  0.00  0.00    +0.119 C 
ATOM     14  C   UNL     1      34.508 -24.277 -15.898  0.00  0.00    +0.160 C 
ATOM     15  C   UNL     1      37.209 -23.136 -16.439  0.00  0.00    +0.130 C 
ATOM     16  C   UNL     1      35.773 -24.897 -15.422  0.00  0.00    +0.164 A 
ATOM     17  C   UNL     1      37.917 -25.145 -15.078  0.00  0.00    +0.238 A 
BRANCH  17  21
ATOM     18  F   UNL     1      40.102 -25.926 -15.659  0.00  0.00    -0.163 F 
ATOM     19  F   UNL     1      39.734 -23.798 -15.855  0.00  0.00    -0.163 F 
ATOM     20  F   UNL     1      39.920 -24.689 -13.881  0.00  0.00    -0.163 F 
ATOM     21  C   UNL     1      39.369 -24.899 -15.119  0.00  0.00    +0.452 C 
ENDBRANCH  17  21
ENDBRANCH   5  12
BRANCH   1  25
ATOM     22  F   UNL     1      35.084 -20.765 -23.276  0.00  0.00    -0.204 F 
ATOM     23  F   UNL     1      35.465 -15.346 -22.638  0.00  0.00    -0.202 F 
ATOM     24  F   UNL     1      35.652 -16.449 -25.132  0.00  0.00    -0.202 F 
ATOM     25  C   UNL     1      35.081 -18.871 -21.846  0.00  0.00    +0.006 C 
ATOM     26  C   UNL     1      35.175 -19.438 -23.112  0.00  0.00    +0.138 C 
ATOM     27  C   UNL     1      35.178 -17.493 -21.679  0.00  0.00    +0.030 C 
ATOM     28  C   UNL     1      35.370 -16.674 -22.791  0.00  0.00    +0.167 C 
ATOM     29  C   UNL     1      35.367 -18.619 -24.225  0.00  0.00    +0.061 C 
ATOM     30  C   UNL     1      35.465 -17.236 -24.064  0.00  0.00    +0.170 C 
ENDBRANCH   1  25
BRANCH   2  31
ATOM     31  N   UNL     1      37.308 -20.229 -20.381  0.00  0.00    +0.382 N 
ATOM     32  H   UNL     1      37.218 -19.220 -20.256  0.00  0.00    -0.089 HD
ATOM     33  H   UNL     1      37.804 -20.420 -21.251  0.00  0.00    -0.089 HD
ATOM     34  H   UNL     1      37.829 -20.623 -19.598  0.00  0.00    -0.089 HD
ENDBRANCH   2  31
TORSDOF 4
ENDMDL
MODEL 8
REMARK VINA RESULT:     -10.9     10.386     16.029
REMARK  Name = 11974440
REMARK  4 active torsions:
REMARK  status: ('A' for Active; 'I' for Inactive)
REMARK    1  A    between atoms: C_1  and  C_25
REMARK    2  A    between atoms: C_2  and  N_31
REMARK    3  A    between atoms: C_5  and  C_12
REMARK    4  A    between atoms: C_17  and  C_21
REMARK                            x       y       z     vdW  Elec       q    Type
REMARK                         _______ _______ _______ _____ _____    ______ ____
ROOT
ATOM      1  C   UNL     1      33.171 -12.331 -23.834  0.00  0.00    +0.009 C 
ATOM      2  C   UNL     1      34.195 -11.166 -23.816  0.00  0.00    -0.057 C 
ATOM      3  C   UNL     1      33.476  -9.817 -23.611  0.00  0.00    +0.009 C 
ATOM      4  C   UNL     1      32.367 -12.365 -22.513  0.00  0.00    +0.028 C 
ATOM      5  C   UNL     1      32.433  -9.873 -22.535  0.00  0.00    +0.025 C 
ATOM      6  C   UNL     1      31.939 -11.011 -22.030  0.00  0.00    -0.026 C 
ENDROOT
BRANCH   5  12
ATOM      7  O   UNL     1      31.846  -8.500 -20.755  0.00  0.00    -0.270 OA
ATOM      8  N   UNL     1      31.586  -7.595 -22.881  0.00  0.00    -0.267 N 
ATOM      9  N   UNL     1      32.302  -5.366 -24.336  0.00  0.00    -0.292 N 
ATOM     10  N   UNL     1      31.634  -3.893 -22.872  0.00  0.00    -0.132 NA
ATOM     11  N   UNL     1      32.273  -3.235 -23.908  0.00  0.00    -0.125 NA
ATOM     12  C   UNL     1      31.927  -8.600 -21.981  0.00  0.00    +0.245 C 
ATOM     13  C   UNL     1      31.599  -7.705 -24.353  0.00  0.00    +0.119 C 
ATOM     14  C   UNL     1      31.091  -6.311 -22.360  0.00  0.00    +0.160 C 
ATOM     15  C   UNL     1      32.542  -6.658 -24.942  0.00  0.00    +0.130 C 
ATOM     16  C   UNL     1      31.660  -5.182 -23.141  0.00  0.00    +0.164 A 
ATOM     17  C   UNL     1      32.667  -4.139 -24.777  0.00  0.00    +0.238 A 
BRANCH  17  21
ATOM     18  F   UNL     1      34.647  -4.476 -26.077  0.00  0.00    -0.163 F 
ATOM     19  F   UNL     1      32.767  -4.384 -27.154  0.00  0.00    -0.163 F 
ATOM     20  F   UNL     1      33.615  -2.575 -26.297  0.00  0.00    -0.163 F 
ATOM     21  C   UNL     1      33.399  -3.904 -26.033  0.00  0.00    +0.452 C 
ENDBRANCH  17  21
ENDBRANCH   5  12
BRANCH   1  25
ATOM     22  F   UNL     1      33.019 -13.627 -26.354  0.00  0.00    -0.204 F 
ATOM     23  F   UNL     1      35.680 -16.258 -22.365  0.00  0.00    -0.202 F 
ATOM     24  F   UNL     1      35.458 -17.390 -24.843  0.00  0.00    -0.202 F 
ATOM     25  C   UNL     1      33.788 -13.694 -24.109  0.00  0.00    +0.006 C 
ATOM     26  C   UNL     1      33.672 -14.265 -25.372  0.00  0.00    +0.138 C 
ATOM     27  C   UNL     1      34.463 -14.360 -23.092  0.00  0.00    +0.030 C 
ATOM     28  C   UNL     1      35.029 -15.610 -23.341  0.00  0.00    +0.167 C 
ATOM     29  C   UNL     1      34.237 -15.515 -25.621  0.00  0.00    +0.061 C 
ATOM     30  C   UNL     1      34.917 -16.188 -24.605  0.00  0.00    +0.170 C 
ENDBRANCH   1  25
BRANCH   2  31
ATOM     31  N   UNL     1      34.972 -11.116 -25.058  0.00  0.00    +0.382 N 
ATOM     32  H   UNL     1      34.374 -10.793 -25.820  0.00  0.00    -0.089 HD
ATOM     33  H   UNL     1      35.326 -12.047 -25.275  0.00  0.00    -0.089 HD
ATOM     34  H   UNL     1      35.754 -10.471 -24.944  0.00  0.00    -0.089 HD
ENDBRANCH   2  31
TORSDOF 4
ENDMDL
MODEL 9
REMARK VINA RESULT:     -10.9      4.005     10.042
REMARK  Name = 11974440
REMARK  4 active torsions:
REMARK  status: ('A' for Active; 'I' for Inactive)
REMARK    1  A    between atoms: C_1  and  C_25
REMARK    2  A    between atoms: C_2  and  N_31
REMARK    3  A    between atoms: C_5  and  C_12
REMARK    4  A    between atoms: C_17  and  C_21
REMARK                            x       y       z     vdW  Elec       q    Type
REMARK                         _______ _______ _______ _____ _____    ______ ____
ROOT
ATOM      1  C   UNL     1      34.899 -21.764 -19.703  0.00  0.00    +0.009 C 
ATOM      2  C   UNL     1      36.190 -20.914 -19.817  0.00  0.00    -0.057 C 
ATOM      3  C   UNL     1      36.381 -20.411 -21.262  0.00  0.00    +0.009 C 
ATOM      4  C   UNL     1      33.665 -20.936 -20.133  0.00  0.00    +0.028 C 
ATOM      5  C   UNL     1      35.115 -19.877 -21.863  0.00  0.00    +0.025 C 
ATOM      6  C   UNL     1      33.895 -20.099 -21.357  0.00  0.00    -0.026 C 
ENDROOT
BRANCH   5  12
ATOM      7  O   UNL     1      35.123 -19.605 -24.170  0.00  0.00    -0.270 OA
ATOM      8  N   UNL     1      35.387 -17.672 -22.905  0.00  0.00    -0.267 N 
ATOM      9  N   UNL     1      34.299 -15.154 -22.632  0.00  0.00    -0.292 N 
ATOM     10  N   UNL     1      34.395 -14.616 -24.744  0.00  0.00    -0.132 NA
ATOM     11  N   UNL     1      33.733 -13.613 -24.057  0.00  0.00    -0.125 NA
ATOM     12  C   UNL     1      35.212 -19.042 -23.077  0.00  0.00    +0.245 C 
ATOM     13  C   UNL     1      35.574 -16.974 -21.618  0.00  0.00    +0.119 C 
ATOM     14  C   UNL     1      35.474 -16.810 -24.095  0.00  0.00    +0.160 C 
ATOM     15  C   UNL     1      34.469 -15.936 -21.427  0.00  0.00    +0.130 C 
ATOM     16  C   UNL     1      34.730 -15.543 -23.871  0.00  0.00    +0.164 A 
ATOM     17  C   UNL     1      33.686 -13.957 -22.789  0.00  0.00    +0.238 A 
BRANCH  17  21
ATOM     18  F   UNL     1      33.875 -13.047 -20.585  0.00  0.00    -0.163 F 
ATOM     19  F   UNL     1      32.698 -11.921 -22.016  0.00  0.00    -0.163 F 
ATOM     20  F   UNL     1      31.924 -13.782 -21.201  0.00  0.00    -0.163 F 
ATOM     21  C   UNL     1      33.069 -13.201 -21.686  0.00  0.00    +0.452 C 
ENDBRANCH  17  21
ENDBRANCH   5  12
BRANCH   1  25
ATOM     22  F   UNL     1      32.391 -22.774 -18.839  0.00  0.00    -0.204 F 
ATOM     23  F   UNL     1      36.538 -23.055 -15.284  0.00  0.00    -0.202 F 
ATOM     24  F   UNL     1      34.067 -23.991 -14.585  0.00  0.00    -0.202 F 
ATOM     25  C   UNL     1      34.672 -22.366 -18.324  0.00  0.00    +0.006 C 
ATOM     26  C   UNL     1      33.413 -22.841 -17.973  0.00  0.00    +0.138 C 
ATOM     27  C   UNL     1      35.729 -22.435 -17.422  0.00  0.00    +0.030 C 
ATOM     28  C   UNL     1      35.525 -22.986 -16.158  0.00  0.00    +0.167 C 
ATOM     29  C   UNL     1      33.208 -23.392 -16.709  0.00  0.00    +0.061 C 
ATOM     30  C   UNL     1      34.264 -23.464 -15.801  0.00  0.00    +0.170 C 
ENDBRANCH   1  25
BRANCH   2  31
ATOM     31  N   UNL     1      37.373 -21.678 -19.410  0.00  0.00    +0.382 N 
ATOM     32  H   UNL     1      38.116 -21.034 -19.136  0.00  0.00    -0.089 HD
ATOM     33  H   UNL     1      37.692 -22.252 -20.190  0.00  0.00    -0.089 HD
ATOM     34  H   UNL     1      37.135 -22.278 -18.620  0.00  0.00    -0.089 HD
ENDBRANCH   2  31
TORSDOF 4
ENDMDL
