MODEL 1
REMARK VINA RESULT:     -12.4      0.000      0.000
REMARK  Name = 11167602
REMARK  6 active torsions:
REMARK  status: ('A' for Active; 'I' for Inactive)
REMARK    1  A    between atoms: C_2  and  N_10
REMARK    2  A    between atoms: C_3  and  O_25
REMARK    3  A    between atoms: N_9  and  C_15
REMARK    4  A    between atoms: C_16  and  C_24
REMARK    5  A    between atoms: O_25  and  C_27
REMARK    6  A    between atoms: C_29  and  C_34
REMARK                            x       y       z     vdW  Elec       q    Type
REMARK                         _______ _______ _______ _____ _____    ______ ____
ROOT
ATOM      1  F   UNL     1      34.558 -17.803 -25.107  0.00  0.00    -0.203 F 
ATOM      2  C   UNL     1      34.927 -16.659 -23.060  0.00  0.00    +0.079 C 
ATOM      3  C   UNL     1      35.542 -19.071 -21.846  0.00  0.00    +0.148 C 
ATOM      4  C   UNL     1      34.888 -17.824 -23.809  0.00  0.00    +0.157 C 
ATOM      5  C   UNL     1      35.269 -16.675 -21.717  0.00  0.00    +0.020 C 
ATOM      6  C   UNL     1      35.197 -19.038 -23.198  0.00  0.00    +0.068 C 
ATOM      7  C   UNL     1      35.577 -17.890 -21.106  0.00  0.00    +0.039 C 
ENDROOT
BRANCH   2  10
ATOM      8  O   UNL     1      34.658 -13.927 -21.882  0.00  0.00    -0.252 OA
ATOM      9  N   UNL     1      34.171 -13.189 -24.052  0.00  0.00    -0.268 N 
ATOM     10  N   UNL     1      34.615 -15.424 -23.677  0.00  0.00    -0.266 N 
ATOM     11  C   UNL     1      34.499 -14.161 -23.076  0.00  0.00    +0.308 C 
ATOM     12  H   UNL     1      34.076 -13.524 -24.973  0.00  0.00    +0.156 HD
ATOM     13  H   UNL     1      34.458 -15.456 -24.649  0.00  0.00    +0.156 HD
BRANCH   9  15
ATOM     14 CL   UNL     1      33.341  -7.379 -23.347  0.00  0.00    -0.082 Cl
ATOM     15  C   UNL     1      33.967 -11.819 -23.881  0.00  0.00    +0.052 C 
ATOM     16  C   UNL     1      32.645  -9.993 -23.014  0.00  0.00    +0.083 C 
ATOM     17  C   UNL     1      32.848 -11.362 -23.184  0.00  0.00    +0.019 C 
ATOM     18  C   UNL     1      34.881 -10.907 -24.408  0.00  0.00    +0.016 C 
ATOM     19  C   UNL     1      33.559  -9.081 -23.540  0.00  0.00    +0.062 C 
ATOM     20  C   UNL     1      34.677  -9.538 -24.238  0.00  0.00    +0.013 C 
BRANCH  16  24
ATOM     21  F   UNL     1      31.728  -8.937 -21.073  0.00  0.00    -0.166 F 
ATOM     22  F   UNL     1      30.668  -8.646 -22.943  0.00  0.00    -0.166 F 
ATOM     23  F   UNL     1      30.603 -10.579 -21.947  0.00  0.00    -0.166 F 
ATOM     24  C   UNL     1      31.435  -9.544 -22.259  0.00  0.00    +0.419 C 
ENDBRANCH  16  24
ENDBRANCH   9  15
ENDBRANCH   2  10
BRANCH   3  25
ATOM     25  O   UNL     1      35.845 -20.257 -21.249  0.00  0.00    -0.453 OA
BRANCH  25  27
ATOM     26  N   UNL     1      32.907 -22.046 -18.917  0.00  0.00    -0.239 NA
ATOM     27  C   UNL     1      34.866 -20.854 -20.473  0.00  0.00    +0.149 C 
ATOM     28  C   UNL     1      35.240 -21.666 -19.424  0.00  0.00    +0.061 C 
ATOM     29  C   UNL     1      34.223 -22.238 -18.676  0.00  0.00    +0.137 C 
ATOM     30  C   UNL     1      33.539 -20.622 -20.766  0.00  0.00    +0.058 C 
ATOM     31  C   UNL     1      32.599 -21.241 -19.959  0.00  0.00    +0.102 C 
BRANCH  29  34
ATOM     32  O   UNL     1      33.866 -24.132 -17.340  0.00  0.00    -0.268 OA
ATOM     33  N   UNL     1      35.630 -22.744 -16.756  0.00  0.00    -0.298 N 
ATOM     34  C   UNL     1      34.538 -23.106 -17.554  0.00  0.00    +0.264 C 
ATOM     35  C   UNL     1      36.082 -23.515 -15.620  0.00  0.00    +0.111 C 
ATOM     36  H   UNL     1      36.117 -21.919 -16.980  0.00  0.00    +0.150 HD
ENDBRANCH  29  34
ENDBRANCH  25  27
ENDBRANCH   3  25
TORSDOF 6
ENDMDL
MODEL 2
REMARK VINA RESULT:     -12.1      5.189     11.011
REMARK  Name = 11167602
REMARK  6 active torsions:
REMARK  status: ('A' for Active; 'I' for Inactive)
REMARK    1  A    between atoms: C_2  and  N_10
REMARK    2  A    between atoms: C_3  and  O_25
REMARK    3  A    between atoms: N_9  and  C_15
REMARK    4  A    between atoms: C_16  and  C_24
REMARK    5  A    between atoms: O_25  and  C_27
REMARK    6  A    between atoms: C_29  and  C_34
REMARK                            x       y       z     vdW  Elec       q    Type
REMARK                         _______ _______ _______ _____ _____    ______ ____
ROOT
ATOM      1  F   UNL     1      36.005 -17.099 -22.261  0.00  0.00    -0.203 F 
ATOM      2  C   UNL     1      34.904 -18.946 -23.269  0.00  0.00    +0.079 C 
ATOM      3  C   UNL     1      34.035 -17.286 -25.310  0.00  0.00    +0.148 C 
ATOM      4  C   UNL     1      35.254 -17.606 -23.249  0.00  0.00    +0.157 C 
ATOM      5  C   UNL     1      34.129 -19.474 -24.290  0.00  0.00    +0.020 C 
ATOM      6  C   UNL     1      34.817 -16.770 -24.277  0.00  0.00    +0.068 C 
ATOM      7  C   UNL     1      33.691 -18.638 -25.317  0.00  0.00    +0.039 C 
ENDROOT
BRANCH   2  10
ATOM      8  O   UNL     1      33.403 -20.125 -20.971  0.00  0.00    -0.252 OA
ATOM      9  N   UNL     1      35.424 -21.131 -20.346  0.00  0.00    -0.268 N 
ATOM     10  N   UNL     1      35.347 -19.796 -22.229  0.00  0.00    -0.266 N 
ATOM     11  C   UNL     1      34.598 -20.325 -21.166  0.00  0.00    +0.308 C 
ATOM     12  H   UNL     1      36.365 -21.201 -20.626  0.00  0.00    +0.156 HD
ATOM     13  H   UNL     1      36.298 -20.048 -22.254  0.00  0.00    +0.156 HD
BRANCH   9  15
ATOM     14 CL   UNL     1      33.934 -24.129 -15.474  0.00  0.00    -0.082 Cl
ATOM     15  C   UNL     1      35.082 -21.838 -19.193  0.00  0.00    +0.052 C 
ATOM     16  C   UNL     1      35.686 -22.742 -17.035  0.00  0.00    +0.083 C 
ATOM     17  C   UNL     1      36.029 -22.035 -18.188  0.00  0.00    +0.019 C 
ATOM     18  C   UNL     1      33.792 -22.348 -19.045  0.00  0.00    +0.016 C 
ATOM     19  C   UNL     1      34.396 -23.250 -16.887  0.00  0.00    +0.062 C 
ATOM     20  C   UNL     1      33.449 -23.054 -17.892  0.00  0.00    +0.013 C 
BRANCH  16  24
ATOM     21  F   UNL     1      36.364 -22.437 -14.762  0.00  0.00    -0.166 F 
ATOM     22  F   UNL     1      37.051 -24.236 -15.760  0.00  0.00    -0.166 F 
ATOM     23  F   UNL     1      37.902 -22.307 -16.293  0.00  0.00    -0.166 F 
ATOM     24  C   UNL     1      36.728 -22.929 -15.981  0.00  0.00    +0.419 C 
ENDBRANCH  16  24
ENDBRANCH   9  15
ENDBRANCH   2  10
BRANCH   3  25
ATOM     25  O   UNL     1      33.608 -16.471 -26.314  0.00  0.00    -0.453 OA
BRANCH  25  27
ATOM     26  N   UNL     1      33.382 -12.397 -25.526  0.00  0.00    -0.239 NA
ATOM     27  C   UNL     1      33.532 -15.114 -26.051  0.00  0.00    +0.149 C 
ATOM     28  C   UNL     1      33.288 -14.689 -24.763  0.00  0.00    +0.061 C 
ATOM     29  C   UNL     1      33.223 -13.320 -24.552  0.00  0.00    +0.137 C 
ATOM     30  C   UNL     1      33.702 -14.217 -27.085  0.00  0.00    +0.058 C 
ATOM     31  C   UNL     1      33.617 -12.871 -26.770  0.00  0.00    +0.102 C 
BRANCH  29  34
ATOM     32  O   UNL     1      32.994 -11.569 -23.010  0.00  0.00    -0.268 OA
ATOM     33  N   UNL     1      32.681 -13.725 -22.214  0.00  0.00    -0.298 N 
ATOM     34  C   UNL     1      32.970 -12.796 -23.221  0.00  0.00    +0.264 C 
ATOM     35  C   UNL     1      32.385 -13.358 -20.848  0.00  0.00    +0.111 C 
ATOM     36  H   UNL     1      32.680 -14.680 -22.449  0.00  0.00    +0.150 HD
ENDBRANCH  29  34
ENDBRANCH  25  27
ENDBRANCH   3  25
TORSDOF 6
ENDMDL
MODEL 3
REMARK VINA RESULT:     -12.0      2.306      3.396
REMARK  Name = 11167602
REMARK  6 active torsions:
REMARK  status: ('A' for Active; 'I' for Inactive)
REMARK    1  A    between atoms: C_2  and  N_10
REMARK    2  A    between atoms: C_3  and  O_25
REMARK    3  A    between atoms: N_9  and  C_15
REMARK    4  A    between atoms: C_16  and  C_24
REMARK    5  A    between atoms: O_25  and  C_27
REMARK    6  A    between atoms: C_29  and  C_34
REMARK                            x       y       z     vdW  Elec       q    Type
REMARK                         _______ _______ _______ _____ _____    ______ ____
ROOT
ATOM      1  F   UNL     1      32.861 -14.154 -25.401  0.00  0.00    -0.203 F 
ATOM      2  C   UNL     1      33.808 -14.089 -23.224  0.00  0.00    +0.079 C 
ATOM      3  C   UNL     1      34.769 -16.662 -23.588  0.00  0.00    +0.148 C 
ATOM      4  C   UNL     1      33.558 -14.743 -24.420  0.00  0.00    +0.157 C 
ATOM      5  C   UNL     1      34.530 -14.694 -22.208  0.00  0.00    +0.020 C 
ATOM      6  C   UNL     1      34.042 -16.038 -24.603  0.00  0.00    +0.068 C 
ATOM      7  C   UNL     1      35.012 -15.990 -22.391  0.00  0.00    +0.039 C 
ENDROOT
BRANCH   2  10
ATOM      8  O   UNL     1      34.710 -11.507 -24.424  0.00  0.00    -0.252 OA
ATOM      9  N   UNL     1      33.017 -10.488 -23.166  0.00  0.00    -0.268 N 
ATOM     10  N   UNL     1      33.320 -12.774 -23.036  0.00  0.00    -0.266 N 
ATOM     11  C   UNL     1      33.782 -11.588 -23.626  0.00  0.00    +0.308 C 
ATOM     12  H   UNL     1      32.301 -10.705 -22.525  0.00  0.00    +0.156 HD
ATOM     13  H   UNL     1      32.564 -12.681 -22.413  0.00  0.00    +0.156 HD
BRANCH   9  15
ATOM     14 CL   UNL     1      33.586  -4.781 -24.594  0.00  0.00    -0.082 Cl
ATOM     15  C   UNL     1      33.142  -9.140 -23.500  0.00  0.00    +0.052 C 
ATOM     16  C   UNL     1      32.240  -6.898 -23.531  0.00  0.00    +0.083 C 
ATOM     17  C   UNL     1      32.113  -8.247 -23.196  0.00  0.00    +0.019 C 
ATOM     18  C   UNL     1      34.296  -8.684 -24.138  0.00  0.00    +0.016 C 
ATOM     19  C   UNL     1      33.394  -6.443 -24.167  0.00  0.00    +0.062 C 
ATOM     20  C   UNL     1      34.422  -7.335 -24.471  0.00  0.00    +0.013 C 
BRANCH  16  24
ATOM     21  F   UNL     1      31.439  -5.060 -22.226  0.00  0.00    -0.166 F 
ATOM     22  F   UNL     1      30.671  -5.241 -24.247  0.00  0.00    -0.166 F 
ATOM     23  F   UNL     1      30.024  -6.638 -22.710  0.00  0.00    -0.166 F 
ATOM     24  C   UNL     1      31.117  -5.975 -23.186  0.00  0.00    +0.419 C 
ENDBRANCH  16  24
ENDBRANCH   9  15
ENDBRANCH   2  10
BRANCH   3  25
ATOM     25  O   UNL     1      35.240 -17.926 -23.767  0.00  0.00    -0.453 OA
BRANCH  25  27
ATOM     26  N   UNL     1      36.082 -20.173 -20.374  0.00  0.00    -0.239 NA
ATOM     27  C   UNL     1      35.520 -18.674 -22.636  0.00  0.00    +0.149 C 
ATOM     28  C   UNL     1      34.517 -19.420 -22.056  0.00  0.00    +0.061 C 
ATOM     29  C   UNL     1      34.848 -20.153 -20.927  0.00  0.00    +0.137 C 
ATOM     30  C   UNL     1      36.797 -18.657 -22.116  0.00  0.00    +0.058 C 
ATOM     31  C   UNL     1      37.026 -19.422 -20.984  0.00  0.00    +0.102 C 
BRANCH  29  34
ATOM     32  O   UNL     1      32.645 -20.873 -20.577  0.00  0.00    -0.268 OA
ATOM     33  N   UNL     1      34.295 -21.853 -19.275  0.00  0.00    -0.298 N 
ATOM     34  C   UNL     1      33.845 -20.964 -20.260  0.00  0.00    +0.264 C 
ATOM     35  C   UNL     1      33.425 -22.741 -18.540  0.00  0.00    +0.111 C 
ATOM     36  H   UNL     1      35.258 -21.872 -19.073  0.00  0.00    +0.150 HD
ENDBRANCH  29  34
ENDBRANCH  25  27
ENDBRANCH   3  25
TORSDOF 6
ENDMDL
MODEL 4
REMARK VINA RESULT:     -12.0      6.188     12.653
REMARK  Name = 11167602
REMARK  6 active torsions:
REMARK  status: ('A' for Active; 'I' for Inactive)
REMARK    1  A    between atoms: C_2  and  N_10
REMARK    2  A    between atoms: C_3  and  O_25
REMARK    3  A    between atoms: N_9  and  C_15
REMARK    4  A    between atoms: C_16  and  C_24
REMARK    5  A    between atoms: O_25  and  C_27
REMARK    6  A    between atoms: C_29  and  C_34
REMARK                            x       y       z     vdW  Elec       q    Type
REMARK                         _______ _______ _______ _____ _____    ______ ____
ROOT
ATOM      1  F   UNL     1      33.436 -21.358 -20.226  0.00  0.00    -0.203 F 
ATOM      2  C   UNL     1      35.748 -20.985 -19.834  0.00  0.00    +0.079 C 
ATOM      3  C   UNL     1      35.748 -19.041 -21.807  0.00  0.00    +0.148 C 
ATOM      4  C   UNL     1      34.572 -20.706 -20.510  0.00  0.00    +0.157 C 
ATOM      5  C   UNL     1      36.924 -20.312 -20.123  0.00  0.00    +0.020 C 
ATOM      6  C   UNL     1      34.572 -19.727 -21.504  0.00  0.00    +0.068 C 
ATOM      7  C   UNL     1      36.924 -19.334 -21.118  0.00  0.00    +0.039 C 
ENDROOT
BRANCH   2  10
ATOM      8  O   UNL     1      37.162 -21.054 -17.204  0.00  0.00    -0.252 OA
ATOM      9  N   UNL     1      36.169 -23.151 -16.880  0.00  0.00    -0.268 N 
ATOM     10  N   UNL     1      35.751 -21.976 -18.824  0.00  0.00    -0.266 N 
ATOM     11  C   UNL     1      36.437 -21.961 -17.600  0.00  0.00    +0.308 C 
ATOM     12  H   UNL     1      35.566 -23.791 -17.323  0.00  0.00    +0.156 HD
ATOM     13  H   UNL     1      35.205 -22.776 -19.004  0.00  0.00    +0.156 HD
BRANCH   9  15
ATOM     14 CL   UNL     1      38.161 -24.762 -11.553  0.00  0.00    -0.082 Cl
ATOM     15  C   UNL     1      36.646 -23.537 -15.627  0.00  0.00    +0.052 C 
ATOM     16  C   UNL     1      38.269 -24.711 -14.276  0.00  0.00    +0.083 C 
ATOM     17  C   UNL     1      37.793 -24.326 -15.530  0.00  0.00    +0.019 C 
ATOM     18  C   UNL     1      35.976 -23.134 -14.472  0.00  0.00    +0.016 C 
ATOM     19  C   UNL     1      37.600 -24.306 -13.121  0.00  0.00    +0.062 C 
ATOM     20  C   UNL     1      36.453 -23.518 -13.219  0.00  0.00    +0.013 C 
BRANCH  16  24
ATOM     21  F   UNL     1      40.072 -25.775 -15.433  0.00  0.00    -0.166 F 
ATOM     22  F   UNL     1      40.493 -25.013 -13.447  0.00  0.00    -0.166 F 
ATOM     23  F   UNL     1      39.262 -26.789 -13.690  0.00  0.00    -0.166 F 
ATOM     24  C   UNL     1      39.502 -25.553 -14.214  0.00  0.00    +0.419 C 
ENDBRANCH  16  24
ENDBRANCH   9  15
ENDBRANCH   2  10
BRANCH   3  25
ATOM     25  O   UNL     1      35.748 -18.086 -22.778  0.00  0.00    -0.453 OA
BRANCH  25  27
ATOM     26  N   UNL     1      34.239 -14.341 -21.796  0.00  0.00    -0.239 NA
ATOM     27  C   UNL     1      35.246 -16.838 -22.451  0.00  0.00    +0.149 C 
ATOM     28  C   UNL     1      34.814 -16.001 -23.457  0.00  0.00    +0.061 C 
ATOM     29  C   UNL     1      34.318 -14.763 -23.078  0.00  0.00    +0.137 C 
ATOM     30  C   UNL     1      35.189 -16.461 -21.126  0.00  0.00    +0.058 C 
ATOM     31  C   UNL     1      34.678 -15.203 -20.852  0.00  0.00    +0.102 C 
BRANCH  29  34
ATOM     32  O   UNL     1      33.107 -14.211 -25.008  0.00  0.00    -0.268 OA
ATOM     33  N   UNL     1      34.230 -12.488 -23.937  0.00  0.00    -0.298 N 
ATOM     34  C   UNL     1      33.843 -13.826 -24.081  0.00  0.00    +0.264 C 
ATOM     35  C   UNL     1      33.821 -11.435 -24.838  0.00  0.00    +0.111 C 
ATOM     36  H   UNL     1      34.814 -12.252 -23.181  0.00  0.00    +0.150 HD
ENDBRANCH  29  34
ENDBRANCH  25  27
ENDBRANCH   3  25
TORSDOF 6
ENDMDL
MODEL 5
REMARK VINA RESULT:     -12.0      1.520      1.982
REMARK  Name = 11167602
REMARK  6 active torsions:
REMARK  status: ('A' for Active; 'I' for Inactive)
REMARK    1  A    between atoms: C_2  and  N_10
REMARK    2  A    between atoms: C_3  and  O_25
REMARK    3  A    between atoms: N_9  and  C_15
REMARK    4  A    between atoms: C_16  and  C_24
REMARK    5  A    between atoms: O_25  and  C_27
REMARK    6  A    between atoms: C_29  and  C_34
REMARK                            x       y       z     vdW  Elec       q    Type
REMARK                         _______ _______ _______ _____ _____    ______ ____
ROOT
ATOM      1  F   UNL     1      34.807 -16.898 -25.205  0.00  0.00    -0.203 F 
ATOM      2  C   UNL     1      34.921 -16.057 -22.987  0.00  0.00    +0.079 C 
ATOM      3  C   UNL     1      35.554 -18.596 -22.079  0.00  0.00    +0.148 C 
ATOM      4  C   UNL     1      35.015 -17.098 -23.896  0.00  0.00    +0.157 C 
ATOM      5  C   UNL     1      35.137 -16.259 -21.633  0.00  0.00    +0.020 C 
ATOM      6  C   UNL     1      35.334 -18.377 -23.439  0.00  0.00    +0.068 C 
ATOM      7  C   UNL     1      35.455 -17.538 -21.176  0.00  0.00    +0.039 C 
ENDROOT
BRANCH   2  10
ATOM      8  O   UNL     1      33.634 -13.770 -21.562  0.00  0.00    -0.252 OA
ATOM      9  N   UNL     1      33.847 -12.578 -23.568  0.00  0.00    -0.268 N 
ATOM     10  N   UNL     1      34.599 -14.759 -23.448  0.00  0.00    -0.266 N 
ATOM     11  C   UNL     1      33.990 -13.714 -22.734  0.00  0.00    +0.308 C 
ATOM     12  H   UNL     1      34.180 -12.680 -24.488  0.00  0.00    +0.156 HD
ATOM     13  H   UNL     1      34.830 -14.564 -24.385  0.00  0.00    +0.156 HD
BRANCH   9  15
ATOM     14 CL   UNL     1      31.480  -7.328 -22.235  0.00  0.00    -0.082 Cl
ATOM     15  C   UNL     1      33.296 -11.334 -23.257  0.00  0.00    +0.052 C 
ATOM     16  C   UNL     1      33.386  -8.922 -23.356  0.00  0.00    +0.083 C 
ATOM     17  C   UNL     1      33.938 -10.166 -23.667  0.00  0.00    +0.019 C 
ATOM     18  C   UNL     1      32.104 -11.261 -22.536  0.00  0.00    +0.016 C 
ATOM     19  C   UNL     1      32.194  -8.849 -22.636  0.00  0.00    +0.062 C 
ATOM     20  C   UNL     1      31.553 -10.017 -22.226  0.00  0.00    +0.013 C 
BRANCH  16  24
ATOM     21  F   UNL     1      34.845  -7.887 -24.943  0.00  0.00    -0.166 F 
ATOM     22  F   UNL     1      33.267  -6.655 -24.108  0.00  0.00    -0.166 F 
ATOM     23  F   UNL     1      34.971  -7.216 -22.879  0.00  0.00    -0.166 F 
ATOM     24  C   UNL     1      34.102  -7.694 -23.815  0.00  0.00    +0.419 C 
ENDBRANCH  16  24
ENDBRANCH   9  15
ENDBRANCH   2  10
BRANCH   3  25
ATOM     25  O   UNL     1      35.865 -19.845 -21.632  0.00  0.00    -0.453 OA
BRANCH  25  27
ATOM     26  N   UNL     1      33.071 -21.793 -19.253  0.00  0.00    -0.239 NA
ATOM     27  C   UNL     1      34.935 -20.495 -20.840  0.00  0.00    +0.149 C 
ATOM     28  C   UNL     1      35.371 -21.312 -19.820  0.00  0.00    +0.061 C 
ATOM     29  C   UNL     1      34.400 -21.939 -19.054  0.00  0.00    +0.137 C 
ATOM     30  C   UNL     1      33.591 -20.308 -21.088  0.00  0.00    +0.058 C 
ATOM     31  C   UNL     1      32.700 -20.980 -20.267  0.00  0.00    +0.102 C 
BRANCH  29  34
ATOM     32  O   UNL     1      34.150 -23.865 -17.742  0.00  0.00    -0.268 OA
ATOM     33  N   UNL     1      35.892 -22.435 -17.197  0.00  0.00    -0.298 N 
ATOM     34  C   UNL     1      34.782 -22.816 -17.961  0.00  0.00    +0.264 C 
ATOM     35  C   UNL     1      36.408 -23.212 -16.094  0.00  0.00    +0.111 C 
ATOM     36  H   UNL     1      36.346 -21.591 -17.424  0.00  0.00    +0.150 HD
ENDBRANCH  29  34
ENDBRANCH  25  27
ENDBRANCH   3  25
TORSDOF 6
ENDMDL
MODEL 6
REMARK VINA RESULT:     -11.8      3.969      6.931
REMARK  Name = 11167602
REMARK  6 active torsions:
REMARK  status: ('A' for Active; 'I' for Inactive)
REMARK    1  A    between atoms: C_2  and  N_10
REMARK    2  A    between atoms: C_3  and  O_25
REMARK    3  A    between atoms: N_9  and  C_15
REMARK    4  A    between atoms: C_16  and  C_24
REMARK    5  A    between atoms: O_25  and  C_27
REMARK    6  A    between atoms: C_29  and  C_34
REMARK                            x       y       z     vdW  Elec       q    Type
REMARK                         _______ _______ _______ _____ _____    ______ ____
ROOT
ATOM      1  F   UNL     1      37.235 -21.484 -17.957  0.00  0.00    -0.203 F 
ATOM      2  C   UNL     1      35.143 -21.860 -19.017  0.00  0.00    +0.079 C 
ATOM      3  C   UNL     1      34.397 -23.503 -16.916  0.00  0.00    +0.148 C 
ATOM      4  C   UNL     1      36.027 -22.066 -17.971  0.00  0.00    +0.157 C 
ATOM      5  C   UNL     1      33.893 -22.457 -19.034  0.00  0.00    +0.020 C 
ATOM      6  C   UNL     1      35.652 -22.893 -16.913  0.00  0.00    +0.068 C 
ATOM      7  C   UNL     1      33.518 -23.286 -17.977  0.00  0.00    +0.039 C 
ENDROOT
BRANCH   2  10
ATOM      8  O   UNL     1      33.488 -20.055 -20.728  0.00  0.00    -0.252 OA
ATOM      9  N   UNL     1      35.476 -19.514 -21.843  0.00  0.00    -0.268 N 
ATOM     10  N   UNL     1      35.521 -21.019 -20.091  0.00  0.00    -0.266 N 
ATOM     11  C   UNL     1      34.700 -20.187 -20.868  0.00  0.00    +0.308 C 
ATOM     12  H   UNL     1      36.439 -19.719 -21.836  0.00  0.00    +0.156 HD
ATOM     13  H   UNL     1      36.478 -21.020 -20.323  0.00  0.00    +0.156 HD
BRANCH   9  15
ATOM     14 CL   UNL     1      33.703 -15.675 -25.973  0.00  0.00    -0.082 Cl
ATOM     15  C   UNL     1      35.057 -18.601 -22.811  0.00  0.00    +0.052 C 
ATOM     16  C   UNL     1      34.518 -16.337 -23.458  0.00  0.00    +0.083 C 
ATOM     17  C   UNL     1      34.936 -17.249 -22.488  0.00  0.00    +0.019 C 
ATOM     18  C   UNL     1      34.760 -19.041 -24.101  0.00  0.00    +0.016 C 
ATOM     19  C   UNL     1      34.222 -16.776 -24.747  0.00  0.00    +0.062 C 
ATOM     20  C   UNL     1      34.342 -18.127 -25.069  0.00  0.00    +0.013 C 
BRANCH  16  24
ATOM     21  F   UNL     1      34.929 -14.043 -23.998  0.00  0.00    -0.166 F 
ATOM     22  F   UNL     1      33.116 -14.483 -22.891  0.00  0.00    -0.166 F 
ATOM     23  F   UNL     1      35.050 -14.617 -21.905  0.00  0.00    -0.166 F 
ATOM     24  C   UNL     1      34.404 -14.897 -23.073  0.00  0.00    +0.419 C 
ENDBRANCH  16  24
ENDBRANCH   9  15
ENDBRANCH   2  10
BRANCH   3  25
ATOM     25  O   UNL     1      34.030 -24.311 -15.883  0.00  0.00    -0.453 OA
BRANCH  25  27
ATOM     26  N   UNL     1      36.815 -24.977 -12.872  0.00  0.00    -0.239 NA
ATOM     27  C   UNL     1      34.958 -24.534 -14.880  0.00  0.00    +0.149 C 
ATOM     28  C   UNL     1      36.082 -25.282 -15.155  0.00  0.00    +0.061 C 
ATOM     29  C   UNL     1      36.981 -25.475 -14.118  0.00  0.00    +0.137 C 
ATOM     30  C   UNL     1      34.736 -24.001 -13.628  0.00  0.00    +0.058 C 
ATOM     31  C   UNL     1      35.694 -24.252 -12.659  0.00  0.00    +0.102 C 
BRANCH  29  34
ATOM     32  O   UNL     1      38.121 -27.463 -14.613  0.00  0.00    -0.268 OA
ATOM     33  N   UNL     1      39.410 -25.574 -14.224  0.00  0.00    -0.298 N 
ATOM     34  C   UNL     1      38.189 -26.252 -14.330  0.00  0.00    +0.264 C 
ATOM     35  C   UNL     1      40.695 -26.202 -14.430  0.00  0.00    +0.111 C 
ATOM     36  H   UNL     1      39.392 -24.617 -13.996  0.00  0.00    +0.150 HD
ENDBRANCH  29  34
ENDBRANCH  25  27
ENDBRANCH   3  25
TORSDOF 6
ENDMDL
MODEL 7
REMARK VINA RESULT:     -11.8      6.331     12.578
REMARK  Name = 11167602
REMARK  6 active torsions:
REMARK  status: ('A' for Active; 'I' for Inactive)
REMARK    1  A    between atoms: C_2  and  N_10
REMARK    2  A    between atoms: C_3  and  O_25
REMARK    3  A    between atoms: N_9  and  C_15
REMARK    4  A    between atoms: C_16  and  C_24
REMARK    5  A    between atoms: O_25  and  C_27
REMARK    6  A    between atoms: C_29  and  C_34
REMARK                            x       y       z     vdW  Elec       q    Type
REMARK                         _______ _______ _______ _____ _____    ______ ____
ROOT
ATOM      1  F   UNL     1      33.038 -21.156 -20.136  0.00  0.00    -0.203 F 
ATOM      2  C   UNL     1      35.346 -21.355 -19.616  0.00  0.00    +0.079 C 
ATOM      3  C   UNL     1      35.929 -19.501 -21.589  0.00  0.00    +0.148 C 
ATOM      4  C   UNL     1      34.312 -20.807 -20.357  0.00  0.00    +0.157 C 
ATOM      5  C   UNL     1      36.665 -20.995 -19.840  0.00  0.00    +0.020 C 
ATOM      6  C   UNL     1      34.606 -19.873 -21.351  0.00  0.00    +0.068 C 
ATOM      7  C   UNL     1      36.959 -20.063 -20.835  0.00  0.00    +0.039 C 
ENDROOT
BRANCH   2  10
ATOM      8  O   UNL     1      36.439 -21.626 -16.849  0.00  0.00    -0.252 OA
ATOM      9  N   UNL     1      35.029 -23.484 -16.622  0.00  0.00    -0.268 N 
ATOM     10  N   UNL     1      35.052 -22.302 -18.606  0.00  0.00    -0.266 N 
ATOM     11  C   UNL     1      35.596 -22.387 -17.315  0.00  0.00    +0.308 C 
ATOM     12  H   UNL     1      34.363 -24.007 -17.123  0.00  0.00    +0.156 HD
ATOM     13  H   UNL     1      34.382 -22.985 -18.838  0.00  0.00    +0.156 HD
BRANCH   9  15
ATOM     14 CL   UNL     1      36.092 -25.325 -11.106  0.00  0.00    -0.082 Cl
ATOM     15  C   UNL     1      35.289 -23.921 -15.323  0.00  0.00    +0.052 C 
ATOM     16  C   UNL     1      36.828 -24.790 -13.675  0.00  0.00    +0.083 C 
ATOM     17  C   UNL     1      36.569 -24.354 -14.975  0.00  0.00    +0.019 C 
ATOM     18  C   UNL     1      34.269 -23.924 -14.372  0.00  0.00    +0.016 C 
ATOM     19  C   UNL     1      35.808 -24.793 -12.725  0.00  0.00    +0.062 C 
ATOM     20  C   UNL     1      34.529 -24.361 -13.072  0.00  0.00    +0.013 C 
BRANCH  16  24
ATOM     21  F   UNL     1      38.278 -26.546 -12.943  0.00  0.00    -0.166 F 
ATOM     22  F   UNL     1      39.084 -25.145 -14.389  0.00  0.00    -0.166 F 
ATOM     23  F   UNL     1      38.768 -24.519 -12.330  0.00  0.00    -0.166 F 
ATOM     24  C   UNL     1      38.212 -25.244 -13.343  0.00  0.00    +0.419 C 
ENDBRANCH  16  24
ENDBRANCH   9  15
ENDBRANCH   2  10
BRANCH   3  25
ATOM     25  O   UNL     1      36.216 -18.590 -22.560  0.00  0.00    -0.453 OA
BRANCH  25  27
ATOM     26  N   UNL     1      33.598 -18.303 -25.774  0.00  0.00    -0.239 NA
ATOM     27  C   UNL     1      35.343 -18.494 -23.630  0.00  0.00    +0.149 C 
ATOM     28  C   UNL     1      34.960 -17.248 -24.078  0.00  0.00    +0.061 C 
ATOM     29  C   UNL     1      34.086 -17.206 -25.153  0.00  0.00    +0.137 C 
ATOM     30  C   UNL     1      34.877 -19.647 -24.224  0.00  0.00    +0.058 C 
ATOM     31  C   UNL     1      34.006 -19.498 -25.292  0.00  0.00    +0.102 C 
BRANCH  29  34
ATOM     32  O   UNL     1      33.409 -15.795 -26.899  0.00  0.00    -0.268 OA
ATOM     33  N   UNL     1      33.457 -14.887 -24.766  0.00  0.00    -0.298 N 
ATOM     34  C   UNL     1      33.637 -15.930 -25.683  0.00  0.00    +0.264 C 
ATOM     35  C   UNL     1      32.994 -13.569 -25.134  0.00  0.00    +0.111 C 
ATOM     36  H   UNL     1      33.658 -15.062 -23.818  0.00  0.00    +0.150 HD
ENDBRANCH  29  34
ENDBRANCH  25  27
ENDBRANCH   3  25
TORSDOF 6
ENDMDL
MODEL 8
REMARK VINA RESULT:     -11.7      5.364     12.599
REMARK  Name = 11167602
REMARK  6 active torsions:
REMARK  status: ('A' for Active; 'I' for Inactive)
REMARK    1  A    between atoms: C_2  and  N_10
REMARK    2  A    between atoms: C_3  and  O_25
REMARK    3  A    between atoms: N_9  and  C_15
REMARK    4  A    between atoms: C_16  and  C_24
REMARK    5  A    between atoms: O_25  and  C_27
REMARK    6  A    between atoms: C_29  and  C_34
REMARK                            x       y       z     vdW  Elec       q    Type
REMARK                         _______ _______ _______ _____ _____    ______ ____
ROOT
ATOM      1  F   UNL     1      35.368 -10.158 -24.982  0.00  0.00    -0.203 F 
ATOM      2  C   UNL     1      33.425 -10.752 -23.753  0.00  0.00    +0.079 C 
ATOM      3  C   UNL     1      33.461  -8.266 -22.534  0.00  0.00    +0.148 C 
ATOM      4  C   UNL     1      34.423  -9.850 -24.084  0.00  0.00    +0.157 C 
ATOM      5  C   UNL     1      32.444 -10.437 -22.827  0.00  0.00    +0.020 C 
ATOM      6  C   UNL     1      34.441  -8.598 -23.470  0.00  0.00    +0.068 C 
ATOM      7  C   UNL     1      32.464  -9.185 -22.212  0.00  0.00    +0.039 C 
ENDROOT
BRANCH   2  10
ATOM      8  O   UNL     1      34.317 -13.415 -22.734  0.00  0.00    -0.252 OA
ATOM      9  N   UNL     1      33.639 -14.281 -24.803  0.00  0.00    -0.268 N 
ATOM     10  N   UNL     1      33.403 -12.023 -24.376  0.00  0.00    -0.266 N 
ATOM     11  C   UNL     1      33.837 -13.250 -23.851  0.00  0.00    +0.308 C 
ATOM     12  H   UNL     1      33.242 -14.000 -25.659  0.00  0.00    +0.156 HD
ATOM     13  H   UNL     1      33.039 -12.048 -25.290  0.00  0.00    +0.156 HD
BRANCH   9  15
ATOM     14 CL   UNL     1      34.854 -20.048 -24.350  0.00  0.00    -0.082 Cl
ATOM     15  C   UNL     1      33.931 -15.640 -24.687  0.00  0.00    +0.052 C 
ATOM     16  C   UNL     1      34.878 -17.479 -23.440  0.00  0.00    +0.083 C 
ATOM     17  C   UNL     1      34.587 -16.119 -23.554  0.00  0.00    +0.019 C 
ATOM     18  C   UNL     1      33.566 -16.520 -25.706  0.00  0.00    +0.016 C 
ATOM     19  C   UNL     1      34.512 -18.358 -24.458  0.00  0.00    +0.062 C 
ATOM     20  C   UNL     1      33.856 -17.879 -25.591  0.00  0.00    +0.013 C 
BRANCH  16  24
ATOM     21  F   UNL     1      35.674 -17.001 -21.235  0.00  0.00    -0.166 F 
ATOM     22  F   UNL     1      34.973 -19.019 -21.611  0.00  0.00    -0.166 F 
ATOM     23  F   UNL     1      36.861 -18.350 -22.459  0.00  0.00    -0.166 F 
ATOM     24  C   UNL     1      35.581 -17.952 -22.208  0.00  0.00    +0.419 C 
ENDBRANCH  16  24
ENDBRANCH   9  15
ENDBRANCH   2  10
BRANCH   3  25
ATOM     25  O   UNL     1      33.479  -7.043 -21.934  0.00  0.00    -0.453 OA
BRANCH  25  27
ATOM     26  N   UNL     1      30.661  -4.249 -23.167  0.00  0.00    -0.239 NA
ATOM     27  C   UNL     1      32.541  -6.112 -22.345  0.00  0.00    +0.149 C 
ATOM     28  C   UNL     1      32.767  -5.390 -23.496  0.00  0.00    +0.061 C 
ATOM     29  C   UNL     1      31.797  -4.471 -23.866  0.00  0.00    +0.137 C 
ATOM     30  C   UNL     1      31.401  -5.928 -21.592  0.00  0.00    +0.058 C 
ATOM     31  C   UNL     1      30.493  -4.985 -22.045  0.00  0.00    +0.102 C 
BRANCH  29  34
ATOM     32  O   UNL     1      31.311  -2.625 -25.227  0.00  0.00    -0.268 OA
ATOM     33  N   UNL     1      32.897  -4.125 -26.009  0.00  0.00    -0.298 N 
ATOM     34  C   UNL     1      31.964  -3.673 -25.068  0.00  0.00    +0.264 C 
ATOM     35  C   UNL     1      33.192  -3.430 -27.241  0.00  0.00    +0.111 C 
ATOM     36  H   UNL     1      33.378  -4.963 -25.821  0.00  0.00    +0.150 HD
ENDBRANCH  29  34
ENDBRANCH  25  27
ENDBRANCH   3  25
TORSDOF 6
ENDMDL
MODEL 9
REMARK VINA RESULT:     -11.7      5.331      8.146
REMARK  Name = 11167602
REMARK  6 active torsions:
REMARK  status: ('A' for Active; 'I' for Inactive)
REMARK    1  A    between atoms: C_2  and  N_10
REMARK    2  A    between atoms: C_3  and  O_25
REMARK    3  A    between atoms: N_9  and  C_15
REMARK    4  A    between atoms: C_16  and  C_24
REMARK    5  A    between atoms: O_25  and  C_27
REMARK    6  A    between atoms: C_29  and  C_34
REMARK                            x       y       z     vdW  Elec       q    Type
REMARK                         _______ _______ _______ _____ _____    ______ ____
ROOT
ATOM      1  F   UNL     1      37.372 -21.591 -17.137  0.00  0.00    -0.203 F 
ATOM      2  C   UNL     1      35.384 -22.136 -18.315  0.00  0.00    +0.079 C 
ATOM      3  C   UNL     1      34.574 -23.704 -16.180  0.00  0.00    +0.148 C 
ATOM      4  C   UNL     1      36.200 -22.237 -17.200  0.00  0.00    +0.157 C 
ATOM      5  C   UNL     1      34.171 -22.802 -18.384  0.00  0.00    +0.020 C 
ATOM      6  C   UNL     1      35.792 -23.027 -16.125  0.00  0.00    +0.068 C 
ATOM      7  C   UNL     1      33.763 -23.592 -17.309  0.00  0.00    +0.039 C 
ENDROOT
BRANCH   2  10
ATOM      8  O   UNL     1      33.775 -20.440 -20.174  0.00  0.00    -0.252 OA
ATOM      9  N   UNL     1      35.802 -19.908 -21.222  0.00  0.00    -0.268 N 
ATOM     10  N   UNL     1      35.794 -21.335 -19.407  0.00  0.00    -0.266 N 
ATOM     11  C   UNL     1      34.994 -20.553 -20.254  0.00  0.00    +0.308 C 
ATOM     12  H   UNL     1      36.767 -20.092 -21.164  0.00  0.00    +0.156 HD
ATOM     13  H   UNL     1      36.761 -21.326 -19.595  0.00  0.00    +0.156 HD
BRANCH   9  15
ATOM     14 CL   UNL     1      34.154 -16.219 -25.538  0.00  0.00    -0.082 Cl
ATOM     15  C   UNL     1      35.411 -19.045 -22.247  0.00  0.00    +0.052 C 
ATOM     16  C   UNL     1      34.455 -18.695 -24.438  0.00  0.00    +0.083 C 
ATOM     17  C   UNL     1      34.846 -19.559 -23.414  0.00  0.00    +0.019 C 
ATOM     18  C   UNL     1      35.585 -17.669 -22.103  0.00  0.00    +0.016 C 
ATOM     19  C   UNL     1      34.628 -17.319 -24.293  0.00  0.00    +0.062 C 
ATOM     20  C   UNL     1      35.193 -16.805 -23.126  0.00  0.00    +0.013 C 
BRANCH  16  24
ATOM     21  F   UNL     1      34.411 -18.822 -26.826  0.00  0.00    -0.166 F 
ATOM     22  F   UNL     1      33.964 -20.643 -25.736  0.00  0.00    -0.166 F 
ATOM     23  F   UNL     1      32.518 -19.019 -25.776  0.00  0.00    -0.166 F 
ATOM     24  C   UNL     1      33.852 -19.285 -25.671  0.00  0.00    +0.419 C 
ENDBRANCH  16  24
ENDBRANCH   9  15
ENDBRANCH   2  10
BRANCH   3  25
ATOM     25  O   UNL     1      34.175 -24.474 -15.130  0.00  0.00    -0.453 OA
BRANCH  25  27
ATOM     26  N   UNL     1      37.077 -25.683 -12.412  0.00  0.00    -0.239 NA
ATOM     27  C   UNL     1      35.142 -24.878 -14.225  0.00  0.00    +0.149 C 
ATOM     28  C   UNL     1      36.256 -25.549 -14.682  0.00  0.00    +0.061 C 
ATOM     29  C   UNL     1      37.195 -25.930 -13.737  0.00  0.00    +0.137 C 
ATOM     30  C   UNL     1      34.969 -24.599 -12.886  0.00  0.00    +0.058 C 
ATOM     31  C   UNL     1      35.964 -25.023 -12.021  0.00  0.00    +0.102 C 
BRANCH  29  34
ATOM     32  O   UNL     1      38.315 -27.719 -14.757  0.00  0.00    -0.268 OA
ATOM     33  N   UNL     1      39.624 -26.045 -13.828  0.00  0.00    -0.298 N 
ATOM     34  C   UNL     1      38.396 -26.640 -14.141  0.00  0.00    +0.264 C 
ATOM     35  C   UNL     1      40.903 -26.616 -14.182  0.00  0.00    +0.111 C 
ATOM     36  H   UNL     1      39.616 -25.192 -13.338  0.00  0.00    +0.150 HD
ENDBRANCH  29  34
ENDBRANCH  25  27
ENDBRANCH   3  25
TORSDOF 6
ENDMDL
