MODEL 1
REMARK VINA RESULT:     -12.1      0.000      0.000
REMARK  Name = 5288711
REMARK  4 active torsions:
REMARK  status: ('A' for Active; 'I' for Inactive)
REMARK    1  A    between atoms: C_1  and  S_7
REMARK    2  A    between atoms: C_2  and  N_17
REMARK    3  A    between atoms: S_7  and  N_11
REMARK    4  A    between atoms: N_17  and  C_25
REMARK                            x       y       z     vdW  Elec       q    Type
REMARK                         _______ _______ _______ _____ _____    ______ ____
ROOT
ATOM      1  C   UNL     1      34.521 -21.989 -19.315  0.00  0.00    +0.125 C 
ATOM      2  C   UNL     1      35.579 -20.010 -20.984  0.00  0.00    +0.048 C 
ATOM      3  C   UNL     1      33.669 -21.186 -20.074  0.00  0.00    +0.021 C 
ATOM      4  C   UNL     1      35.901 -21.804 -19.390  0.00  0.00    +0.021 C 
ATOM      5  C   UNL     1      34.196 -20.200 -20.906  0.00  0.00    +0.016 C 
ATOM      6  C   UNL     1      36.430 -20.817 -20.223  0.00  0.00    +0.016 C 
ENDROOT
BRANCH   1   7
ATOM      7  S   UNL     1      33.862 -23.224 -18.273  0.00  0.00    +0.075 S 
ATOM      8  O   UNL     1      33.672 -24.437 -19.057  0.00  0.00    -0.150 OA
ATOM      9  O   UNL     1      34.681 -23.270 -17.068  0.00  0.00    -0.150 OA
BRANCH   7  11
ATOM     10  S   UNL     1      29.994 -23.383 -16.635  0.00  0.00    -0.050 S 
ATOM     11  N   UNL     1      32.320 -22.559 -17.903  0.00  0.00    -0.194 N 
ATOM     12  N   UNL     1      32.361 -23.311 -15.599  0.00  0.00    -0.221 NA
ATOM     13  C   UNL     1      31.670 -23.076 -16.679  0.00  0.00    +0.179 C 
ATOM     14  C   UNL     1      30.172 -23.889 -15.006  0.00  0.00    +0.059 C 
ATOM     15  C   UNL     1      31.495 -23.781 -14.631  0.00  0.00    +0.108 C 
ATOM     16  H   UNL     1      31.897 -21.874 -18.470  0.00  0.00    +0.176 HD
ENDBRANCH   7  11
ENDBRANCH   1   7
BRANCH   2  17
ATOM     17  N   UNL     1      36.109 -19.017 -21.822  0.00  0.00    -0.311 N 
ATOM     18  H   UNL     1      36.902 -19.277 -22.345  0.00  0.00    +0.152 HD
BRANCH  17  25
ATOM     19  O   UNL     1      34.905 -19.239 -24.450  0.00  0.00    -0.270 OA
ATOM     20  N   UNL     1      34.018 -17.153 -25.115  0.00  0.00    -0.280 N 
ATOM     21  C   UNL     1      34.557 -15.879 -23.277  0.00  0.00    +0.019 C 
ATOM     22  C   UNL     1      35.030 -17.243 -23.064  0.00  0.00    +0.069 C 
ATOM     23  C   UNL     1      33.951 -15.880 -24.537  0.00  0.00    +0.051 C 
ATOM     24  C   UNL     1      34.670 -18.059 -24.272  0.00  0.00    +0.251 C 
ATOM     25  C   UNL     1      35.675 -17.744 -22.008  0.00  0.00    +0.066 C 
ATOM     26  C   UNL     1      34.609 -14.725 -22.520  0.00  0.00    +0.001 C 
ATOM     27  C   UNL     1      33.381 -14.748 -25.084  0.00  0.00    +0.015 C 
ATOM     28  C   UNL     1      34.037 -13.565 -23.055  0.00  0.00    +0.000 C 
ATOM     29  C   UNL     1      33.429 -13.577 -24.324  0.00  0.00    +0.001 C 
ATOM     30  H   UNL     1      33.654 -17.381 -26.000  0.00  0.00    +0.155 HD
ENDBRANCH  17  25
ENDBRANCH   2  17
TORSDOF 4
ENDMDL
MODEL 2
REMARK VINA RESULT:     -11.9      1.350      1.760
REMARK  Name = 5288711
REMARK  4 active torsions:
REMARK  status: ('A' for Active; 'I' for Inactive)
REMARK    1  A    between atoms: C_1  and  S_7
REMARK    2  A    between atoms: C_2  and  N_17
REMARK    3  A    between atoms: S_7  and  N_11
REMARK    4  A    between atoms: N_17  and  C_25
REMARK                            x       y       z     vdW  Elec       q    Type
REMARK                         _______ _______ _______ _____ _____    ______ ____
ROOT
ATOM      1  C   UNL     1      34.636 -21.915 -19.451  0.00  0.00    +0.125 C 
ATOM      2  C   UNL     1      35.650 -19.811 -20.988  0.00  0.00    +0.048 C 
ATOM      3  C   UNL     1      33.771 -21.122 -20.205  0.00  0.00    +0.021 C 
ATOM      4  C   UNL     1      36.007 -21.658 -19.464  0.00  0.00    +0.021 C 
ATOM      5  C   UNL     1      34.277 -20.073 -20.973  0.00  0.00    +0.016 C 
ATOM      6  C   UNL     1      36.513 -20.609 -20.231  0.00  0.00    +0.016 C 
ENDROOT
BRANCH   1   7
ATOM      7  S   UNL     1      34.004 -23.228 -18.490  0.00  0.00    +0.075 S 
ATOM      8  O   UNL     1      33.760 -24.366 -19.367  0.00  0.00    -0.150 OA
ATOM      9  O   UNL     1      34.875 -23.388 -17.332  0.00  0.00    -0.150 OA
BRANCH   7  11
ATOM     10  S   UNL     1      30.279 -23.433 -16.554  0.00  0.00    -0.050 S 
ATOM     11  N   UNL     1      32.492 -22.579 -17.994  0.00  0.00    -0.194 N 
ATOM     12  N   UNL     1      32.720 -23.349 -15.707  0.00  0.00    -0.221 NA
ATOM     13  C   UNL     1      31.944 -23.112 -16.727  0.00  0.00    +0.179 C 
ATOM     14  C   UNL     1      30.590 -23.951 -14.948  0.00  0.00    +0.059 C 
ATOM     15  C   UNL     1      31.937 -23.834 -14.678  0.00  0.00    +0.108 C 
ATOM     16  H   UNL     1      32.019 -21.894 -18.520  0.00  0.00    +0.176 HD
ENDBRANCH   7  11
ENDBRANCH   1   7
BRANCH   2  17
ATOM     17  N   UNL     1      36.158 -18.754 -21.761  0.00  0.00    -0.311 N 
ATOM     18  H   UNL     1      37.038 -18.409 -21.486  0.00  0.00    +0.152 HD
BRANCH  17  25
ATOM     19  O   UNL     1      35.336 -16.235 -20.586  0.00  0.00    -0.270 OA
ATOM     20  N   UNL     1      34.293 -14.882 -22.218  0.00  0.00    -0.280 N 
ATOM     21  C   UNL     1      34.432 -16.270 -24.046  0.00  0.00    +0.019 C 
ATOM     22  C   UNL     1      35.038 -16.936 -22.897  0.00  0.00    +0.069 C 
ATOM     23  C   UNL     1      33.997 -15.027 -23.578  0.00  0.00    +0.051 C 
ATOM     24  C   UNL     1      34.938 -16.017 -21.715  0.00  0.00    +0.251 C 
ATOM     25  C   UNL     1      35.598 -18.146 -22.837  0.00  0.00    +0.066 C 
ATOM     26  C   UNL     1      34.244 -16.633 -25.366  0.00  0.00    +0.001 C 
ATOM     27  C   UNL     1      33.366 -14.110 -24.394  0.00  0.00    +0.015 C 
ATOM     28  C   UNL     1      33.607 -15.718 -26.211  0.00  0.00    +0.000 C 
ATOM     29  C   UNL     1      33.173 -14.469 -25.730  0.00  0.00    +0.001 C 
ATOM     30  H   UNL     1      34.075 -14.084 -21.684  0.00  0.00    +0.155 HD
ENDBRANCH  17  25
ENDBRANCH   2  17
TORSDOF 4
ENDMDL
MODEL 3
REMARK VINA RESULT:     -11.5      2.821      9.596
REMARK  Name = 5288711
REMARK  4 active torsions:
REMARK  status: ('A' for Active; 'I' for Inactive)
REMARK    1  A    between atoms: C_1  and  S_7
REMARK    2  A    between atoms: C_2  and  N_17
REMARK    3  A    between atoms: S_7  and  N_11
REMARK    4  A    between atoms: N_17  and  C_25
REMARK                            x       y       z     vdW  Elec       q    Type
REMARK                         _______ _______ _______ _____ _____    ______ ____
ROOT
ATOM      1  C   UNL     1      35.562 -19.844 -21.014  0.00  0.00    +0.125 C 
ATOM      2  C   UNL     1      34.719 -22.071 -19.548  0.00  0.00    +0.048 C 
ATOM      3  C   UNL     1      34.206 -20.166 -20.951  0.00  0.00    +0.021 C 
ATOM      4  C   UNL     1      36.497 -20.633 -20.345  0.00  0.00    +0.021 C 
ATOM      5  C   UNL     1      33.786 -21.276 -20.220  0.00  0.00    +0.016 C 
ATOM      6  C   UNL     1      36.078 -21.744 -19.613  0.00  0.00    +0.016 C 
ENDROOT
BRANCH   1   7
ATOM      7  S   UNL     1      36.089 -18.454 -21.930  0.00  0.00    +0.075 S 
ATOM      8  O   UNL     1      35.275 -17.310 -21.541  0.00  0.00    -0.150 OA
ATOM      9  O   UNL     1      37.540 -18.374 -21.816  0.00  0.00    -0.150 OA
BRANCH   7  11
ATOM     10  S   UNL     1      33.557 -18.479 -25.284  0.00  0.00    -0.050 S 
ATOM     11  N   UNL     1      35.656 -18.924 -23.526  0.00  0.00    -0.194 N 
ATOM     12  N   UNL     1      35.063 -16.676 -24.208  0.00  0.00    -0.221 NA
ATOM     13  C   UNL     1      34.833 -17.956 -24.284  0.00  0.00    +0.179 C 
ATOM     14  C   UNL     1      33.250 -16.839 -25.678  0.00  0.00    +0.059 C 
ATOM     15  C   UNL     1      34.148 -16.028 -25.014  0.00  0.00    +0.108 C 
ATOM     16  H   UNL     1      35.940 -19.784 -23.912  0.00  0.00    +0.176 HD
ENDBRANCH   7  11
ENDBRANCH   1   7
BRANCH   2  17
ATOM     17  N   UNL     1      34.296 -23.189 -18.812  0.00  0.00    -0.311 N 
ATOM     18  H   UNL     1      34.808 -24.016 -18.959  0.00  0.00    +0.152 HD
BRANCH  17  25
ATOM     19  O   UNL     1      35.764 -23.440 -16.324  0.00  0.00    -0.270 OA
ATOM     20  N   UNL     1      34.261 -23.627 -14.511  0.00  0.00    -0.280 N 
ATOM     21  C   UNL     1      32.256 -23.515 -15.633  0.00  0.00    +0.019 C 
ATOM     22  C   UNL     1      33.346 -23.415 -16.598  0.00  0.00    +0.069 C 
ATOM     23  C   UNL     1      32.868 -23.642 -14.382  0.00  0.00    +0.051 C 
ATOM     24  C   UNL     1      34.645 -23.490 -15.850  0.00  0.00    +0.251 C 
ATOM     25  C   UNL     1      33.273 -23.281 -17.924  0.00  0.00    +0.066 C 
ATOM     26  C   UNL     1      30.880 -23.506 -15.748  0.00  0.00    +0.001 C 
ATOM     27  C   UNL     1      32.142 -23.762 -13.213  0.00  0.00    +0.015 C 
ATOM     28  C   UNL     1      30.124 -23.626 -14.576  0.00  0.00    +0.000 C 
ATOM     29  C   UNL     1      30.750 -23.753 -13.322  0.00  0.00    +0.001 C 
ATOM     30  H   UNL     1      34.890 -23.703 -13.758  0.00  0.00    +0.155 HD
ENDBRANCH  17  25
ENDBRANCH   2  17
TORSDOF 4
ENDMDL
MODEL 4
REMARK VINA RESULT:     -11.4      1.838      2.312
REMARK  Name = 5288711
REMARK  4 active torsions:
REMARK  status: ('A' for Active; 'I' for Inactive)
REMARK    1  A    between atoms: C_1  and  S_7
REMARK    2  A    between atoms: C_2  and  N_17
REMARK    3  A    between atoms: S_7  and  N_11
REMARK    4  A    between atoms: N_17  and  C_25
REMARK                            x       y       z     vdW  Elec       q    Type
REMARK                         _______ _______ _______ _____ _____    ______ ____
ROOT
ATOM      1  C   UNL     1      34.671 -21.501 -19.767  0.00  0.00    +0.125 C 
ATOM      2  C   UNL     1      35.538 -19.491 -21.506  0.00  0.00    +0.048 C 
ATOM      3  C   UNL     1      36.031 -21.213 -19.878  0.00  0.00    +0.021 C 
ATOM      4  C   UNL     1      33.743 -20.785 -20.523  0.00  0.00    +0.021 C 
ATOM      5  C   UNL     1      36.464 -20.211 -20.745  0.00  0.00    +0.016 C 
ATOM      6  C   UNL     1      34.175 -19.782 -21.390  0.00  0.00    +0.016 C 
ENDROOT
BRANCH   1   7
ATOM      7  S   UNL     1      34.129 -22.757 -18.682  0.00  0.00    +0.075 S 
ATOM      8  O   UNL     1      32.941 -22.282 -17.983  0.00  0.00    -0.150 OA
ATOM      9  O   UNL     1      34.066 -24.000 -19.440  0.00  0.00    -0.150 OA
BRANCH   7  11
ATOM     10  S   UNL     1      35.776 -22.759 -14.815  0.00  0.00    -0.050 S 
ATOM     11  N   UNL     1      35.437 -22.821 -17.568  0.00  0.00    -0.194 N 
ATOM     12  N   UNL     1      34.367 -24.468 -16.147  0.00  0.00    -0.221 NA
ATOM     13  C   UNL     1      35.134 -23.419 -16.249  0.00  0.00    +0.179 C 
ATOM     14  C   UNL     1      34.960 -23.985 -13.936  0.00  0.00    +0.059 C 
ATOM     15  C   UNL     1      34.266 -24.797 -14.810  0.00  0.00    +0.108 C 
ATOM     16  H   UNL     1      36.333 -22.482 -17.794  0.00  0.00    +0.176 HD
ENDBRANCH   7  11
ENDBRANCH   1   7
BRANCH   2  17
ATOM     17  N   UNL     1      35.973 -18.481 -22.379  0.00  0.00    -0.311 N 
ATOM     18  H   UNL     1      36.698 -18.733 -22.996  0.00  0.00    +0.152 HD
BRANCH  17  25
ATOM     19  O   UNL     1      34.680 -18.578 -24.972  0.00  0.00    -0.270 OA
ATOM     20  N   UNL     1      33.764 -16.466 -25.500  0.00  0.00    -0.280 N 
ATOM     21  C   UNL     1      34.361 -15.283 -23.621  0.00  0.00    +0.019 C 
ATOM     22  C   UNL     1      34.846 -16.653 -23.492  0.00  0.00    +0.069 C 
ATOM     23  C   UNL     1      33.712 -15.224 -24.857  0.00  0.00    +0.051 C 
ATOM     24  C   UNL     1      34.448 -17.410 -24.727  0.00  0.00    +0.251 C 
ATOM     25  C   UNL     1      35.528 -17.203 -22.486  0.00  0.00    +0.066 C 
ATOM     26  C   UNL     1      34.435 -14.168 -22.809  0.00  0.00    +0.001 C 
ATOM     27  C   UNL     1      33.120 -14.069 -25.327  0.00  0.00    +0.015 C 
ATOM     28  C   UNL     1      33.841 -12.985 -23.265  0.00  0.00    +0.000 C 
ATOM     29  C   UNL     1      33.190 -12.937 -24.511  0.00  0.00    +0.001 C 
ATOM     30  H   UNL     1      33.371 -16.652 -26.383  0.00  0.00    +0.155 HD
ENDBRANCH  17  25
ENDBRANCH   2  17
TORSDOF 4
ENDMDL
MODEL 5
REMARK VINA RESULT:     -11.1      1.410      2.098
REMARK  Name = 5288711
REMARK  4 active torsions:
REMARK  status: ('A' for Active; 'I' for Inactive)
REMARK    1  A    between atoms: C_1  and  S_7
REMARK    2  A    between atoms: C_2  and  N_17
REMARK    3  A    between atoms: S_7  and  N_11
REMARK    4  A    between atoms: N_17  and  C_25
REMARK                            x       y       z     vdW  Elec       q    Type
REMARK                         _______ _______ _______ _____ _____    ______ ____
ROOT
ATOM      1  C   UNL     1      34.253 -22.242 -18.780  0.00  0.00    +0.125 C 
ATOM      2  C   UNL     1      35.505 -20.508 -20.580  0.00  0.00    +0.048 C 
ATOM      3  C   UNL     1      35.644 -22.137 -18.796  0.00  0.00    +0.021 C 
ATOM      4  C   UNL     1      33.487 -21.480 -19.662  0.00  0.00    +0.021 C 
ATOM      5  C   UNL     1      36.268 -21.272 -19.693  0.00  0.00    +0.016 C 
ATOM      6  C   UNL     1      34.111 -20.614 -20.560  0.00  0.00    +0.016 C 
ENDROOT
BRANCH   1   7
ATOM      7  S   UNL     1      33.470 -23.325 -17.656  0.00  0.00    +0.075 S 
ATOM      8  O   UNL     1      33.287 -24.614 -18.310  0.00  0.00    -0.150 OA
ATOM      9  O   UNL     1      34.199 -23.257 -16.396  0.00  0.00    -0.150 OA
BRANCH   7  11
ATOM     10  S   UNL     1      29.352 -23.333 -16.814  0.00  0.00    -0.050 S 
ATOM     11  N   UNL     1      31.935 -22.571 -17.481  0.00  0.00    -0.194 N 
ATOM     12  N   UNL     1      31.465 -23.637 -15.356  0.00  0.00    -0.221 NA
ATOM     13  C   UNL     1      31.020 -23.188 -16.496  0.00  0.00    +0.179 C 
ATOM     14  C   UNL     1      29.168 -24.076 -15.280  0.00  0.00    +0.059 C 
ATOM     15  C   UNL     1      30.394 -24.151 -14.652  0.00  0.00    +0.108 C 
ATOM     16  H   UNL     1      31.681 -21.776 -18.004  0.00  0.00    +0.176 HD
ENDBRANCH   7  11
ENDBRANCH   1   7
BRANCH   2  17
ATOM     17  N   UNL     1      36.134 -19.637 -21.485  0.00  0.00    -0.311 N 
ATOM     18  H   UNL     1      37.086 -19.456 -21.312  0.00  0.00    +0.152 HD
BRANCH  17  25
ATOM     19  O   UNL     1      35.682 -16.986 -20.400  0.00  0.00    -0.270 OA
ATOM     20  N   UNL     1      34.739 -15.585 -22.052  0.00  0.00    -0.280 N 
ATOM     21  C   UNL     1      34.622 -17.057 -23.815  0.00  0.00    +0.019 C 
ATOM     22  C   UNL     1      35.194 -17.744 -22.661  0.00  0.00    +0.069 C 
ATOM     23  C   UNL     1      34.365 -15.750 -23.391  0.00  0.00    +0.051 C 
ATOM     24  C   UNL     1      35.262 -16.769 -21.521  0.00  0.00    +0.251 C 
ATOM     25  C   UNL     1      35.604 -19.010 -22.565  0.00  0.00    +0.066 C 
ATOM     26  C   UNL     1      34.330 -17.450 -25.107  0.00  0.00    +0.001 C 
ATOM     27  C   UNL     1      33.814 -14.797 -24.224  0.00  0.00    +0.015 C 
ATOM     28  C   UNL     1      33.772 -16.500 -25.969  0.00  0.00    +0.000 C 
ATOM     29  C   UNL     1      33.517 -15.187 -25.532  0.00  0.00    +0.001 C 
ATOM     30  H   UNL     1      34.646 -14.744 -21.549  0.00  0.00    +0.155 HD
ENDBRANCH  17  25
ENDBRANCH   2  17
TORSDOF 4
ENDMDL
MODEL 6
REMARK VINA RESULT:     -11.0      2.050      2.562
REMARK  Name = 5288711
REMARK  4 active torsions:
REMARK  status: ('A' for Active; 'I' for Inactive)
REMARK    1  A    between atoms: C_1  and  S_7
REMARK    2  A    between atoms: C_2  and  N_17
REMARK    3  A    between atoms: S_7  and  N_11
REMARK    4  A    between atoms: N_17  and  C_25
REMARK                            x       y       z     vdW  Elec       q    Type
REMARK                         _______ _______ _______ _____ _____    ______ ____
ROOT
ATOM      1  C   UNL     1      34.585 -21.738 -19.539  0.00  0.00    +0.125 C 
ATOM      2  C   UNL     1      35.629 -19.696 -21.138  0.00  0.00    +0.048 C 
ATOM      3  C   UNL     1      33.728 -20.930 -20.287  0.00  0.00    +0.021 C 
ATOM      4  C   UNL     1      35.963 -21.527 -19.589  0.00  0.00    +0.021 C 
ATOM      5  C   UNL     1      34.249 -19.912 -21.085  0.00  0.00    +0.016 C 
ATOM      6  C   UNL     1      36.484 -20.508 -20.387  0.00  0.00    +0.016 C 
ENDROOT
BRANCH   1   7
ATOM      7  S   UNL     1      33.934 -23.013 -18.539  0.00  0.00    +0.075 S 
ATOM      8  O   UNL     1      32.732 -22.516 -17.881  0.00  0.00    -0.150 OA
ATOM      9  O   UNL     1      33.859 -24.219 -19.354  0.00  0.00    -0.150 OA
BRANCH   7  11
ATOM     10  S   UNL     1      35.428 -22.945 -14.611  0.00  0.00    -0.050 S 
ATOM     11  N   UNL     1      35.177 -23.182 -17.364  0.00  0.00    -0.194 N 
ATOM     12  N   UNL     1      33.818 -24.525 -15.873  0.00  0.00    -0.221 NA
ATOM     13  C   UNL     1      34.741 -23.616 -16.019  0.00  0.00    +0.179 C 
ATOM     14  C   UNL     1      34.403 -23.957 -13.680  0.00  0.00    +0.059 C 
ATOM     15  C   UNL     1      33.622 -24.723 -14.521  0.00  0.00    +0.108 C 
ATOM     16  H   UNL     1      36.122 -23.002 -17.574  0.00  0.00    +0.176 HD
ENDBRANCH   7  11
ENDBRANCH   1   7
BRANCH   2  17
ATOM     17  N   UNL     1      36.152 -18.670 -21.941  0.00  0.00    -0.311 N 
ATOM     18  H   UNL     1      37.061 -18.369 -21.711  0.00  0.00    +0.152 HD
BRANCH  17  25
ATOM     19  O   UNL     1      35.330 -16.187 -20.690  0.00  0.00    -0.270 OA
ATOM     20  N   UNL     1      34.254 -14.801 -22.272  0.00  0.00    -0.280 N 
ATOM     21  C   UNL     1      34.376 -16.141 -24.137  0.00  0.00    +0.019 C 
ATOM     22  C   UNL     1      35.003 -16.832 -23.014  0.00  0.00    +0.069 C 
ATOM     23  C   UNL     1      33.939 -14.913 -23.631  0.00  0.00    +0.051 C 
ATOM     24  C   UNL     1      34.914 -15.944 -21.807  0.00  0.00    +0.251 C 
ATOM     25  C   UNL     1      35.572 -18.039 -22.994  0.00  0.00    +0.066 C 
ATOM     26  C   UNL     1      34.171 -16.472 -25.462  0.00  0.00    +0.001 C 
ATOM     27  C   UNL     1      33.290 -13.980 -24.414  0.00  0.00    +0.015 C 
ATOM     28  C   UNL     1      33.515 -15.540 -26.275  0.00  0.00    +0.000 C 
ATOM     29  C   UNL     1      33.080 -14.307 -25.756  0.00  0.00    +0.001 C 
ATOM     30  H   UNL     1      34.039 -14.019 -21.714  0.00  0.00    +0.155 HD
ENDBRANCH  17  25
ENDBRANCH   2  17
TORSDOF 4
ENDMDL
MODEL 7
REMARK VINA RESULT:     -10.9      3.894      6.670
REMARK  Name = 5288711
REMARK  4 active torsions:
REMARK  status: ('A' for Active; 'I' for Inactive)
REMARK    1  A    between atoms: C_1  and  S_7
REMARK    2  A    between atoms: C_2  and  N_17
REMARK    3  A    between atoms: S_7  and  N_11
REMARK    4  A    between atoms: N_17  and  C_25
REMARK                            x       y       z     vdW  Elec       q    Type
REMARK                         _______ _______ _______ _____ _____    ______ ____
ROOT
ATOM      1  C   UNL     1      34.952 -17.084 -23.225  0.00  0.00    +0.125 C 
ATOM      2  C   UNL     1      33.994 -14.570 -23.985  0.00  0.00    +0.048 C 
ATOM      3  C   UNL     1      34.445 -16.890 -24.510  0.00  0.00    +0.021 C 
ATOM      4  C   UNL     1      34.981 -16.024 -22.320  0.00  0.00    +0.021 C 
ATOM      5  C   UNL     1      33.968 -15.636 -24.890  0.00  0.00    +0.016 C 
ATOM      6  C   UNL     1      34.503 -14.769 -22.698  0.00  0.00    +0.016 C 
ENDROOT
BRANCH   1   7
ATOM      7  S   UNL     1      35.550 -18.654 -22.750  0.00  0.00    +0.075 S 
ATOM      8  O   UNL     1      35.256 -19.602 -23.817  0.00  0.00    -0.150 OA
ATOM      9  O   UNL     1      36.926 -18.486 -22.300  0.00  0.00    -0.150 OA
BRANCH   7  11
ATOM     10  S   UNL     1      33.667 -21.254 -20.038  0.00  0.00    -0.050 S 
ATOM     11  N   UNL     1      34.537 -19.003 -21.406  0.00  0.00    -0.194 N 
ATOM     12  N   UNL     1      36.123 -20.530 -20.392  0.00  0.00    -0.221 NA
ATOM     13  C   UNL     1      34.881 -20.218 -20.636  0.00  0.00    +0.179 C 
ATOM     14  C   UNL     1      34.900 -22.244 -19.373  0.00  0.00    +0.059 C 
ATOM     15  C   UNL     1      36.135 -21.702 -19.661  0.00  0.00    +0.108 C 
ATOM     16  H   UNL     1      33.776 -18.428 -21.163  0.00  0.00    +0.176 HD
ENDBRANCH   7  11
ENDBRANCH   1   7
BRANCH   2  17
ATOM     17  N   UNL     1      33.512 -13.308 -24.367  0.00  0.00    -0.311 N 
ATOM     18  H   UNL     1      33.479 -13.138 -25.337  0.00  0.00    +0.152 HD
BRANCH  17  25
ATOM     19  O   UNL     1      35.107 -11.120 -25.407  0.00  0.00    -0.270 OA
ATOM     20  N   UNL     1      34.614  -9.130 -24.234  0.00  0.00    -0.280 N 
ATOM     21  C   UNL     1      33.032  -9.909 -22.757  0.00  0.00    +0.019 C 
ATOM     22  C   UNL     1      33.480 -11.014 -23.599  0.00  0.00    +0.069 C 
ATOM     23  C   UNL     1      33.752  -8.790 -23.185  0.00  0.00    +0.051 C 
ATOM     24  C   UNL     1      34.512 -10.487 -24.555  0.00  0.00    +0.251 C 
ATOM     25  C   UNL     1      33.087 -12.289 -23.578  0.00  0.00    +0.066 C 
ATOM     26  C   UNL     1      32.118  -9.809 -21.727  0.00  0.00    +0.001 C 
ATOM     27  C   UNL     1      33.592  -7.544 -22.611  0.00  0.00    +0.015 C 
ATOM     28  C   UNL     1      31.939  -8.556 -21.130  0.00  0.00    +0.000 C 
ATOM     29  C   UNL     1      32.669  -7.435 -21.569  0.00  0.00    +0.001 C 
ATOM     30  H   UNL     1      35.216  -8.496 -24.686  0.00  0.00    +0.155 HD
ENDBRANCH  17  25
ENDBRANCH   2  17
TORSDOF 4
ENDMDL
MODEL 8
REMARK VINA RESULT:     -10.8      4.686      9.734
REMARK  Name = 5288711
REMARK  4 active torsions:
REMARK  status: ('A' for Active; 'I' for Inactive)
REMARK    1  A    between atoms: C_1  and  S_7
REMARK    2  A    between atoms: C_2  and  N_17
REMARK    3  A    between atoms: S_7  and  N_11
REMARK    4  A    between atoms: N_17  and  C_25
REMARK                            x       y       z     vdW  Elec       q    Type
REMARK                         _______ _______ _______ _____ _____    ______ ____
ROOT
ATOM      1  C   UNL     1      34.102 -14.371 -23.691  0.00  0.00    +0.125 C 
ATOM      2  C   UNL     1      34.956 -16.985 -23.183  0.00  0.00    +0.048 C 
ATOM      3  C   UNL     1      34.056 -15.330 -24.704  0.00  0.00    +0.021 C 
ATOM      4  C   UNL     1      34.574 -14.717 -22.425  0.00  0.00    +0.021 C 
ATOM      5  C   UNL     1      34.481 -16.633 -24.450  0.00  0.00    +0.016 C 
ATOM      6  C   UNL     1      34.999 -16.021 -22.171  0.00  0.00    +0.016 C 
ENDROOT
BRANCH   1   7
ATOM      7  S   UNL     1      33.570 -12.739 -24.008  0.00  0.00    +0.075 S 
ATOM      8  O   UNL     1      34.648 -11.825 -23.651  0.00  0.00    -0.150 OA
ATOM      9  O   UNL     1      33.020 -12.707 -25.357  0.00  0.00    -0.150 OA
BRANCH   7  11
ATOM     10  S   UNL     1      31.791 -11.065 -20.588  0.00  0.00    -0.050 S 
ATOM     11  N   UNL     1      32.302 -12.574 -22.860  0.00  0.00    -0.194 N 
ATOM     12  N   UNL     1      32.307 -10.152 -22.950  0.00  0.00    -0.221 NA
ATOM     13  C   UNL     1      32.158 -11.237 -22.243  0.00  0.00    +0.179 C 
ATOM     14  C   UNL     1      31.828  -9.363 -20.800  0.00  0.00    +0.059 C 
ATOM     15  C   UNL     1      32.116  -9.068 -22.116  0.00  0.00    +0.108 C 
ATOM     16  H   UNL     1      31.707 -13.323 -22.627  0.00  0.00    +0.176 HD
ENDBRANCH   7  11
ENDBRANCH   1   7
BRANCH   2  17
ATOM     17  N   UNL     1      35.384 -18.298 -22.928  0.00  0.00    -0.311 N 
ATOM     18  H   UNL     1      36.183 -18.590 -23.423  0.00  0.00    +0.152 HD
BRANCH  17  25
ATOM     19  O   UNL     1      37.693 -18.977 -21.311  0.00  0.00    -0.270 OA
ATOM     20  N   UNL     1      37.104 -20.599 -19.698  0.00  0.00    -0.280 N 
ATOM     21  C   UNL     1      34.878 -20.881 -20.200  0.00  0.00    +0.019 C 
ATOM     22  C   UNL     1      35.447 -19.890 -21.108  0.00  0.00    +0.069 C 
ATOM     23  C   UNL     1      35.927 -21.278 -19.366  0.00  0.00    +0.051 C 
ATOM     24  C   UNL     1      36.899 -19.719 -20.766  0.00  0.00    +0.251 C 
ATOM     25  C   UNL     1      34.842 -19.218 -22.090  0.00  0.00    +0.066 C 
ATOM     26  C   UNL     1      33.615 -21.423 -20.054  0.00  0.00    +0.001 C 
ATOM     27  C   UNL     1      35.762 -22.217 -18.368  0.00  0.00    +0.015 C 
ATOM     28  C   UNL     1      33.426 -22.378 -19.048  0.00  0.00    +0.000 C 
ATOM     29  C   UNL     1      34.489 -22.770 -18.213  0.00  0.00    +0.001 C 
ATOM     30  H   UNL     1      37.966 -20.724 -19.240  0.00  0.00    +0.155 HD
ENDBRANCH  17  25
ENDBRANCH   2  17
TORSDOF 4
ENDMDL
MODEL 9
REMARK VINA RESULT:     -10.6      3.243      4.359
REMARK  Name = 5288711
REMARK  4 active torsions:
REMARK  status: ('A' for Active; 'I' for Inactive)
REMARK    1  A    between atoms: C_1  and  S_7
REMARK    2  A    between atoms: C_2  and  N_17
REMARK    3  A    between atoms: S_7  and  N_11
REMARK    4  A    between atoms: N_17  and  C_25
REMARK                            x       y       z     vdW  Elec       q    Type
REMARK                         _______ _______ _______ _____ _____    ______ ____
ROOT
ATOM      1  C   UNL     1      35.085 -23.008 -17.018  0.00  0.00    +0.125 C 
ATOM      2  C   UNL     1      35.986 -21.432 -19.144  0.00  0.00    +0.048 C 
ATOM      3  C   UNL     1      36.357 -22.439 -16.975  0.00  0.00    +0.021 C 
ATOM      4  C   UNL     1      34.262 -22.790 -18.123  0.00  0.00    +0.021 C 
ATOM      5  C   UNL     1      36.807 -21.652 -18.034  0.00  0.00    +0.016 C 
ATOM      6  C   UNL     1      34.711 -22.004 -19.184  0.00  0.00    +0.016 C 
ENDROOT
BRANCH   1   7
ATOM      7  S   UNL     1      34.521 -23.993 -15.691  0.00  0.00    +0.075 S 
ATOM      8  O   UNL     1      33.065 -23.937 -15.661  0.00  0.00    -0.150 OA
ATOM      9  O   UNL     1      35.188 -25.286 -15.786  0.00  0.00    -0.150 OA
BRANCH   7  11
ATOM     10  S   UNL     1      36.332 -23.701 -11.910  0.00  0.00    -0.050 S 
ATOM     11  N   UNL     1      35.136 -23.119 -14.345  0.00  0.00    -0.194 N 
ATOM     12  N   UNL     1      37.197 -24.390 -14.246  0.00  0.00    -0.221 NA
ATOM     13  C   UNL     1      36.248 -23.761 -13.611  0.00  0.00    +0.179 C 
ATOM     14  C   UNL     1      37.785 -24.608 -11.992  0.00  0.00    +0.059 C 
ATOM     15  C   UNL     1      38.087 -24.880 -13.310  0.00  0.00    +0.108 C 
ATOM     16  H   UNL     1      34.770 -22.244 -14.078  0.00  0.00    +0.176 HD
ENDBRANCH   7  11
ENDBRANCH   1   7
BRANCH   2  17
ATOM     17  N   UNL     1      36.440 -20.640 -20.212  0.00  0.00    -0.311 N 
ATOM     18  H   UNL     1      37.276 -20.147 -20.053  0.00  0.00    +0.152 HD
BRANCH  17  25
ATOM     19  O   UNL     1      36.273 -17.747 -20.317  0.00  0.00    -0.270 OA
ATOM     20  N   UNL     1      35.315 -17.065 -22.366  0.00  0.00    -0.280 N 
ATOM     21  C   UNL     1      34.954 -19.113 -23.347  0.00  0.00    +0.019 C 
ATOM     22  C   UNL     1      35.558 -19.316 -22.034  0.00  0.00    +0.069 C 
ATOM     23  C   UNL     1      34.829 -17.729 -23.498  0.00  0.00    +0.051 C 
ATOM     24  C   UNL     1      35.787 -17.970 -21.409  0.00  0.00    +0.251 C 
ATOM     25  C   UNL     1      35.877 -20.465 -21.435  0.00  0.00    +0.066 C 
ATOM     26  C   UNL     1      34.535 -19.972 -24.345  0.00  0.00    +0.001 C 
ATOM     27  C   UNL     1      34.290 -17.154 -24.631  0.00  0.00    +0.015 C 
ATOM     28  C   UNL     1      33.986 -19.411 -25.503  0.00  0.00    +0.000 C 
ATOM     29  C   UNL     1      33.865 -18.016 -25.645  0.00  0.00    +0.001 C 
ATOM     30  H   UNL     1      35.325 -16.087 -22.256  0.00  0.00    +0.155 HD
ENDBRANCH  17  25
ENDBRANCH   2  17
TORSDOF 4
ENDMDL
