MODEL 1
REMARK VINA RESULT:     -11.4      0.000      0.000
REMARK  Name = 24832041
REMARK  6 active torsions:
REMARK  status: ('A' for Active; 'I' for Inactive)
REMARK    1  A    between atoms: C_1  and  C_18
REMARK    2  A    between atoms: C_4  and  C_7
REMARK    3  A    between atoms: C_10  and  C_15
REMARK    4  A    between atoms: C_18  and  N_19
REMARK    5  A    between atoms: C_18  and  C_23
REMARK    6  A    between atoms: C_23  and  C_26
REMARK                            x       y       z     vdW  Elec       q    Type
REMARK                         _______ _______ _______ _____ _____    ______ ____
ROOT
ATOM      1  C   UNL     1      34.656 -19.949 -21.693  0.00  0.00    -0.042 C 
ATOM      2  C   UNL     1      35.860 -20.338 -21.108  0.00  0.00    -0.006 C 
ATOM      3  C   UNL     1      33.445 -20.349 -21.128  0.00  0.00    -0.006 C 
ATOM      4  C   UNL     1      34.643 -21.529 -19.393  0.00  0.00    -0.000 C 
ATOM      5  C   UNL     1      35.855 -21.128 -19.958  0.00  0.00    -0.000 C 
ATOM      6  C   UNL     1      33.438 -21.139 -19.978  0.00  0.00    -0.000 C 
ENDROOT
BRANCH   4   7
ATOM      7  C   UNL     1      34.638 -22.347 -18.201  0.00  0.00    +0.000 C 
ATOM      8  C   UNL     1      35.774 -22.412 -17.394  0.00  0.00    +0.005 C 
ATOM      9  C   UNL     1      33.497 -23.071 -17.857  0.00  0.00    +0.000 C 
ATOM     10  C   UNL     1      35.769 -23.201 -16.244  0.00  0.00    +0.053 C 
ATOM     11  C   UNL     1      33.491 -23.861 -16.707  0.00  0.00    +0.000 C 
ATOM     12  C   UNL     1      34.627 -23.926 -15.900  0.00  0.00    +0.005 C 
BRANCH  10  15
ATOM     13  O   UNL     1      36.872 -23.182 -14.163  0.00  0.00    -0.270 OA
ATOM     14  N   UNL     1      38.182 -23.450 -16.025  0.00  0.00    -0.325 N 
ATOM     15  C   UNL     1      36.952 -23.268 -15.401  0.00  0.00    +0.243 C 
ATOM     16  H   UNL     1      39.005 -23.499 -15.487  0.00  0.00    +0.145 HD
ATOM     17  H   UNL     1      38.231 -23.530 -17.005  0.00  0.00    +0.145 HD
ENDBRANCH  10  15
ENDBRANCH   4   7
BRANCH   1  18
ATOM     18  C   UNL     1      34.661 -19.104 -22.921  0.00  0.00    -0.038 C 
BRANCH  18  19
ATOM     19  N   UNL     1      34.853 -19.908 -24.147  0.00  0.00    +0.384 N 
ATOM     20  H   UNL     1      34.256 -20.735 -24.109  0.00  0.00    -0.089 HD
ATOM     21  H   UNL     1      35.830 -20.197 -24.214  0.00  0.00    -0.089 HD
ATOM     22  H   UNL     1      34.607 -19.349 -24.963  0.00  0.00    -0.089 HD
ENDBRANCH  18  19
BRANCH  18  23
ATOM     23  C   UNL     1      35.732 -17.974 -22.915  0.00  0.00    +0.011 C 
BRANCH  23  26
ATOM     24  F   UNL     1      35.452 -16.936 -20.291  0.00  0.00    -0.205 F 
ATOM     25  F   UNL     1      33.750 -13.769 -24.413  0.00  0.00    -0.204 F 
ATOM     26  C   UNL     1      35.144 -16.612 -22.623  0.00  0.00    +0.006 C 
ATOM     27  C   UNL     1      35.037 -16.165 -21.306  0.00  0.00    +0.136 C 
ATOM     28  C   UNL     1      34.711 -15.803 -23.673  0.00  0.00    +0.028 C 
ATOM     29  C   UNL     1      34.168 -14.546 -23.406  0.00  0.00    +0.140 C 
ATOM     30  C   UNL     1      34.494 -14.908 -21.039  0.00  0.00    +0.032 C 
ATOM     31  C   UNL     1      34.060 -14.098 -22.088  0.00  0.00    +0.032 C 
ENDBRANCH  23  26
ENDBRANCH  18  23
ENDBRANCH   1  18
TORSDOF 6
ENDMDL
MODEL 2
REMARK VINA RESULT:     -11.4      4.148      9.259
REMARK  Name = 24832041
REMARK  6 active torsions:
REMARK  status: ('A' for Active; 'I' for Inactive)
REMARK    1  A    between atoms: C_1  and  C_18
REMARK    2  A    between atoms: C_4  and  C_7
REMARK    3  A    between atoms: C_10  and  C_15
REMARK    4  A    between atoms: C_18  and  N_19
REMARK    5  A    between atoms: C_18  and  C_23
REMARK    6  A    between atoms: C_23  and  C_26
REMARK                            x       y       z     vdW  Elec       q    Type
REMARK                         _______ _______ _______ _____ _____    ______ ____
ROOT
ATOM      1  C   UNL     1      34.277 -22.383 -18.665  0.00  0.00    -0.042 C 
ATOM      2  C   UNL     1      33.175 -21.796 -19.285  0.00  0.00    -0.006 C 
ATOM      3  C   UNL     1      35.568 -22.007 -19.036  0.00  0.00    -0.006 C 
ATOM      4  C   UNL     1      34.653 -20.455 -20.647  0.00  0.00    -0.000 C 
ATOM      5  C   UNL     1      33.362 -20.832 -20.276  0.00  0.00    -0.000 C 
ATOM      6  C   UNL     1      35.756 -21.043 -20.027  0.00  0.00    -0.000 C 
ENDROOT
BRANCH   4   7
ATOM      7  C   UNL     1      34.848 -19.455 -21.673  0.00  0.00    +0.000 C 
ATOM      8  C   UNL     1      34.274 -19.629 -22.933  0.00  0.00    +0.005 C 
ATOM      9  C   UNL     1      35.608 -18.318 -21.404  0.00  0.00    +0.000 C 
ATOM     10  C   UNL     1      34.462 -18.664 -23.924  0.00  0.00    +0.053 C 
ATOM     11  C   UNL     1      35.796 -17.354 -22.395  0.00  0.00    +0.000 C 
ATOM     12  C   UNL     1      35.223 -17.526 -23.654  0.00  0.00    +0.005 C 
BRANCH  10  15
ATOM     13  O   UNL     1      34.221 -19.763 -25.993  0.00  0.00    -0.270 OA
ATOM     14  N   UNL     1      32.858 -17.958 -25.616  0.00  0.00    -0.325 N 
ATOM     15  C   UNL     1      33.863 -18.843 -25.237  0.00  0.00    +0.243 C 
ATOM     16  H   UNL     1      32.430 -18.047 -26.498  0.00  0.00    +0.145 HD
ATOM     17  H   UNL     1      32.574 -17.242 -25.002  0.00  0.00    +0.145 HD
ENDBRANCH  10  15
ENDBRANCH   4   7
BRANCH   1  18
ATOM     18  C   UNL     1      34.077 -23.413 -17.606  0.00  0.00    -0.038 C 
BRANCH  18  19
ATOM     19  N   UNL     1      32.662 -23.827 -17.495  0.00  0.00    +0.384 N 
ATOM     20  H   UNL     1      32.150 -23.515 -18.321  0.00  0.00    -0.089 HD
ATOM     21  H   UNL     1      32.250 -23.407 -16.661  0.00  0.00    -0.089 HD
ATOM     22  H   UNL     1      32.608 -24.842 -17.426  0.00  0.00    -0.089 HD
ENDBRANCH  18  19
BRANCH  18  23
ATOM     23  C   UNL     1      34.563 -22.978 -16.192  0.00  0.00    +0.011 C 
BRANCH  23  26
ATOM     24  F   UNL     1      37.166 -21.865 -16.028  0.00  0.00    -0.205 F 
ATOM     25  F   UNL     1      36.602 -27.100 -14.546  0.00  0.00    -0.204 F 
ATOM     26  C   UNL     1      35.769 -23.760 -15.722  0.00  0.00    +0.006 C 
ATOM     27  C   UNL     1      37.020 -23.148 -15.666  0.00  0.00    +0.136 C 
ATOM     28  C   UNL     1      35.626 -25.094 -15.343  0.00  0.00    +0.028 C 
ATOM     29  C   UNL     1      36.737 -25.818 -14.909  0.00  0.00    +0.140 C 
ATOM     30  C   UNL     1      38.131 -23.872 -15.232  0.00  0.00    +0.032 C 
ATOM     31  C   UNL     1      37.990 -25.206 -14.853  0.00  0.00    +0.032 C 
ENDBRANCH  23  26
ENDBRANCH  18  23
ENDBRANCH   1  18
TORSDOF 6
ENDMDL
MODEL 3
REMARK VINA RESULT:     -11.3      4.438      9.674
REMARK  Name = 24832041
REMARK  6 active torsions:
REMARK  status: ('A' for Active; 'I' for Inactive)
REMARK    1  A    between atoms: C_1  and  C_18
REMARK    2  A    between atoms: C_4  and  C_7
REMARK    3  A    between atoms: C_10  and  C_15
REMARK    4  A    between atoms: C_18  and  N_19
REMARK    5  A    between atoms: C_18  and  C_23
REMARK    6  A    between atoms: C_23  and  C_26
REMARK                            x       y       z     vdW  Elec       q    Type
REMARK                         _______ _______ _______ _____ _____    ______ ____
ROOT
ATOM      1  C   UNL     1      35.242 -16.935 -22.018  0.00  0.00    -0.042 C 
ATOM      2  C   UNL     1      35.032 -16.580 -23.350  0.00  0.00    -0.006 C 
ATOM      3  C   UNL     1      34.959 -16.023 -21.001  0.00  0.00    -0.006 C 
ATOM      4  C   UNL     1      34.258 -14.401 -22.649  0.00  0.00    -0.000 C 
ATOM      5  C   UNL     1      34.540 -15.313 -23.666  0.00  0.00    -0.000 C 
ATOM      6  C   UNL     1      34.468 -14.756 -21.316  0.00  0.00    -0.000 C 
ENDROOT
BRANCH   4   7
ATOM      7  C   UNL     1      33.747 -13.088 -22.976  0.00  0.00    +0.000 C 
ATOM      8  C   UNL     1      32.859 -12.450 -22.110  0.00  0.00    +0.005 C 
ATOM      9  C   UNL     1      34.143 -12.461 -24.157  0.00  0.00    +0.000 C 
ATOM     10  C   UNL     1      32.366 -11.183 -22.426  0.00  0.00    +0.053 C 
ATOM     11  C   UNL     1      33.650 -11.194 -24.473  0.00  0.00    +0.000 C 
ATOM     12  C   UNL     1      32.762 -10.556 -23.608  0.00  0.00    +0.005 C 
BRANCH  10  15
ATOM     13  O   UNL     1      30.473 -11.117 -21.026  0.00  0.00    -0.270 OA
ATOM     14  N   UNL     1      31.686  -9.180 -21.218  0.00  0.00    -0.325 N 
ATOM     15  C   UNL     1      31.442 -10.516 -21.524  0.00  0.00    +0.243 C 
ATOM     16  H   UNL     1      31.081  -8.695 -20.611  0.00  0.00    +0.145 HD
ATOM     17  H   UNL     1      32.463  -8.719 -21.609  0.00  0.00    +0.145 HD
ENDBRANCH  10  15
ENDBRANCH   4   7
BRANCH   1  18
ATOM     18  C   UNL     1      35.766 -18.289 -21.680  0.00  0.00    -0.038 C 
BRANCH  18  19
ATOM     19  N   UNL     1      37.024 -18.591 -22.396  0.00  0.00    +0.384 N 
ATOM     20  H   UNL     1      36.871 -18.511 -23.401  0.00  0.00    -0.089 HD
ATOM     21  H   UNL     1      37.323 -19.540 -22.172  0.00  0.00    -0.089 HD
ATOM     22  H   UNL     1      37.746 -17.930 -22.109  0.00  0.00    -0.089 HD
ENDBRANCH  18  19
BRANCH  18  23
ATOM     23  C   UNL     1      34.766 -19.449 -21.956  0.00  0.00    +0.011 C 
BRANCH  23  26
ATOM     24  F   UNL     1      32.328 -20.492 -20.952  0.00  0.00    -0.205 F 
ATOM     25  F   UNL     1      36.940 -22.240 -18.588  0.00  0.00    -0.204 F 
ATOM     26  C   UNL     1      34.697 -20.445 -20.820  0.00  0.00    +0.006 C 
ATOM     27  C   UNL     1      33.462 -20.916 -20.377  0.00  0.00    +0.136 C 
ATOM     28  C   UNL     1      35.873 -20.892 -20.217  0.00  0.00    +0.028 C 
ATOM     29  C   UNL     1      35.813 -21.810 -19.168  0.00  0.00    +0.140 C 
ATOM     30  C   UNL     1      33.402 -21.835 -19.329  0.00  0.00    +0.032 C 
ATOM     31  C   UNL     1      34.576 -22.283 -18.725  0.00  0.00    +0.032 C 
ENDBRANCH  23  26
ENDBRANCH  18  23
ENDBRANCH   1  18
TORSDOF 6
ENDMDL
MODEL 4
REMARK VINA RESULT:     -11.2      4.542      9.233
REMARK  Name = 24832041
REMARK  6 active torsions:
REMARK  status: ('A' for Active; 'I' for Inactive)
REMARK    1  A    between atoms: C_1  and  C_18
REMARK    2  A    between atoms: C_4  and  C_7
REMARK    3  A    between atoms: C_10  and  C_15
REMARK    4  A    between atoms: C_18  and  N_19
REMARK    5  A    between atoms: C_18  and  C_23
REMARK    6  A    between atoms: C_23  and  C_26
REMARK                            x       y       z     vdW  Elec       q    Type
REMARK                         _______ _______ _______ _____ _____    ______ ____
ROOT
ATOM      1  C   UNL     1      34.201 -22.245 -19.229  0.00  0.00    -0.042 C 
ATOM      2  C   UNL     1      33.111 -21.567 -19.774  0.00  0.00    -0.006 C 
ATOM      3  C   UNL     1      35.499 -21.840 -19.541  0.00  0.00    -0.006 C 
ATOM      4  C   UNL     1      34.616 -20.082 -20.943  0.00  0.00    -0.000 C 
ATOM      5  C   UNL     1      33.317 -20.486 -20.630  0.00  0.00    -0.000 C 
ATOM      6  C   UNL     1      35.707 -20.760 -20.398  0.00  0.00    -0.000 C 
ENDROOT
BRANCH   4   7
ATOM      7  C   UNL     1      34.830 -18.961 -21.830  0.00  0.00    +0.000 C 
ATOM      8  C   UNL     1      34.459 -19.053 -23.172  0.00  0.00    +0.005 C 
ATOM      9  C   UNL     1      35.407 -17.788 -21.346  0.00  0.00    +0.000 C 
ATOM     10  C   UNL     1      34.665 -17.971 -24.029  0.00  0.00    +0.053 C 
ATOM     11  C   UNL     1      35.614 -16.706 -22.202  0.00  0.00    +0.000 C 
ATOM     12  C   UNL     1      35.243 -16.797 -23.544  0.00  0.00    +0.005 C 
BRANCH  10  15
ATOM     13  O   UNL     1      34.315 -17.075 -26.179  0.00  0.00    -0.270 OA
ATOM     14  N   UNL     1      33.875 -19.308 -25.905  0.00  0.00    -0.325 N 
ATOM     15  C   UNL     1      34.277 -18.065 -25.427  0.00  0.00    +0.243 C 
ATOM     16  H   UNL     1      33.603 -19.410 -26.847  0.00  0.00    +0.145 HD
ATOM     17  H   UNL     1      33.861 -20.087 -25.303  0.00  0.00    +0.145 HD
ENDBRANCH  10  15
ENDBRANCH   4   7
BRANCH   1  18
ATOM     18  C   UNL     1      33.981 -23.400 -18.313  0.00  0.00    -0.038 C 
BRANCH  18  19
ATOM     19  N   UNL     1      33.716 -24.652 -19.053  0.00  0.00    +0.384 N 
ATOM     20  H   UNL     1      34.264 -24.662 -19.913  0.00  0.00    -0.089 HD
ATOM     21  H   UNL     1      32.723 -24.708 -19.282  0.00  0.00    -0.089 HD
ATOM     22  H   UNL     1      33.977 -25.451 -18.476  0.00  0.00    -0.089 HD
ENDBRANCH  18  19
BRANCH  18  23
ATOM     23  C   UNL     1      32.826 -23.193 -17.289  0.00  0.00    +0.011 C 
BRANCH  23  26
ATOM     24  F   UNL     1      31.015 -23.136 -15.108  0.00  0.00    -0.205 F 
ATOM     25  F   UNL     1      36.127 -24.773 -14.055  0.00  0.00    -0.204 F 
ATOM     26  C   UNL     1      33.213 -23.589 -15.883  0.00  0.00    +0.006 C 
ATOM     27  C   UNL     1      32.270 -23.537 -14.857  0.00  0.00    +0.136 C 
ATOM     28  C   UNL     1      34.516 -24.007 -15.613  0.00  0.00    +0.028 C 
ATOM     29  C   UNL     1      34.877 -24.372 -14.316  0.00  0.00    +0.140 C 
ATOM     30  C   UNL     1      32.630 -23.902 -13.560  0.00  0.00    +0.032 C 
ATOM     31  C   UNL     1      33.933 -24.320 -13.289  0.00  0.00    +0.032 C 
ENDBRANCH  23  26
ENDBRANCH  18  23
ENDBRANCH   1  18
TORSDOF 6
ENDMDL
MODEL 5
REMARK VINA RESULT:     -11.2      2.117      2.715
REMARK  Name = 24832041
REMARK  6 active torsions:
REMARK  status: ('A' for Active; 'I' for Inactive)
REMARK    1  A    between atoms: C_1  and  C_18
REMARK    2  A    between atoms: C_4  and  C_7
REMARK    3  A    between atoms: C_10  and  C_15
REMARK    4  A    between atoms: C_18  and  N_19
REMARK    5  A    between atoms: C_18  and  C_23
REMARK    6  A    between atoms: C_23  and  C_26
REMARK                            x       y       z     vdW  Elec       q    Type
REMARK                         _______ _______ _______ _____ _____    ______ ____
ROOT
ATOM      1  C   UNL     1      34.432 -19.924 -21.808  0.00  0.00    -0.042 C 
ATOM      2  C   UNL     1      33.150 -20.215 -21.344  0.00  0.00    -0.006 C 
ATOM      3  C   UNL     1      35.548 -20.410 -21.125  0.00  0.00    -0.006 C 
ATOM      4  C   UNL     1      34.097 -21.476 -19.513  0.00  0.00    -0.000 C 
ATOM      5  C   UNL     1      32.981 -20.990 -20.197  0.00  0.00    -0.000 C 
ATOM      6  C   UNL     1      35.380 -21.185 -19.978  0.00  0.00    -0.000 C 
ENDROOT
BRANCH   4   7
ATOM      7  C   UNL     1      33.922 -22.280 -18.324  0.00  0.00    +0.000 C 
ATOM      8  C   UNL     1      32.638 -22.587 -17.872  0.00  0.00    +0.005 C 
ATOM      9  C   UNL     1      35.037 -22.748 -17.629  0.00  0.00    +0.000 C 
ATOM     10  C   UNL     1      32.470 -23.363 -16.725  0.00  0.00    +0.053 C 
ATOM     11  C   UNL     1      34.868 -23.524 -16.482  0.00  0.00    +0.000 C 
ATOM     12  C   UNL     1      33.585 -23.831 -16.030  0.00  0.00    +0.005 C 
BRANCH  10  15
ATOM     13  O   UNL     1      30.949 -24.491 -15.325  0.00  0.00    -0.270 OA
ATOM     14  N   UNL     1      30.058 -23.048 -16.868  0.00  0.00    -0.325 N 
ATOM     15  C   UNL     1      31.132 -23.686 -16.254  0.00  0.00    +0.243 C 
ATOM     16  H   UNL     1      29.138 -23.242 -16.577  0.00  0.00    +0.145 HD
ATOM     17  H   UNL     1      30.218 -22.402 -17.594  0.00  0.00    +0.145 HD
ENDBRANCH  10  15
ENDBRANCH   4   7
BRANCH   1  18
ATOM     18  C   UNL     1      34.613 -19.096 -23.035  0.00  0.00    -0.038 C 
BRANCH  18  19
ATOM     19  N   UNL     1      34.914 -19.924 -24.223  0.00  0.00    +0.384 N 
ATOM     20  H   UNL     1      34.232 -20.680 -24.293  0.00  0.00    -0.089 HD
ATOM     21  H   UNL     1      35.851 -20.319 -24.133  0.00  0.00    -0.089 HD
ATOM     22  H   UNL     1      34.867 -19.346 -25.061  0.00  0.00    -0.089 HD
ENDBRANCH  18  19
BRANCH  18  23
ATOM     23  C   UNL     1      35.719 -18.008 -22.915  0.00  0.00    +0.011 C 
BRANCH  23  26
ATOM     24  F   UNL     1      35.469 -17.036 -20.262  0.00  0.00    -0.205 F 
ATOM     25  F   UNL     1      33.828 -13.721 -24.291  0.00  0.00    -0.204 F 
ATOM     26  C   UNL     1      35.163 -16.642 -22.583  0.00  0.00    +0.006 C 
ATOM     27  C   UNL     1      35.069 -16.229 -21.255  0.00  0.00    +0.136 C 
ATOM     28  C   UNL     1      34.745 -15.796 -23.610  0.00  0.00    +0.028 C 
ATOM     29  C   UNL     1      34.230 -14.534 -23.307  0.00  0.00    +0.140 C 
ATOM     30  C   UNL     1      34.555 -14.968 -20.952  0.00  0.00    +0.032 C 
ATOM     31  C   UNL     1      34.136 -14.120 -21.977  0.00  0.00    +0.032 C 
ENDBRANCH  23  26
ENDBRANCH  18  23
ENDBRANCH   1  18
TORSDOF 6
ENDMDL
MODEL 6
REMARK VINA RESULT:     -11.1      4.541      9.691
REMARK  Name = 24832041
REMARK  6 active torsions:
REMARK  status: ('A' for Active; 'I' for Inactive)
REMARK    1  A    between atoms: C_1  and  C_18
REMARK    2  A    between atoms: C_4  and  C_7
REMARK    3  A    between atoms: C_10  and  C_15
REMARK    4  A    between atoms: C_18  and  N_19
REMARK    5  A    between atoms: C_18  and  C_23
REMARK    6  A    between atoms: C_23  and  C_26
REMARK                            x       y       z     vdW  Elec       q    Type
REMARK                         _______ _______ _______ _____ _____    ______ ____
ROOT
ATOM      1  C   UNL     1      35.375 -17.138 -21.791  0.00  0.00    -0.042 C 
ATOM      2  C   UNL     1      35.179 -16.689 -23.097  0.00  0.00    -0.006 C 
ATOM      3  C   UNL     1      35.002 -16.335 -20.714  0.00  0.00    -0.006 C 
ATOM      4  C   UNL     1      34.236 -14.632 -22.247  0.00  0.00    -0.000 C 
ATOM      5  C   UNL     1      34.610 -15.436 -23.325  0.00  0.00    -0.000 C 
ATOM      6  C   UNL     1      34.433 -15.082 -20.941  0.00  0.00    -0.000 C 
ENDROOT
BRANCH   4   7
ATOM      7  C   UNL     1      33.646 -13.333 -22.484  0.00  0.00    +0.000 C 
ATOM      8  C   UNL     1      34.283 -12.420 -23.325  0.00  0.00    +0.005 C 
ATOM      9  C   UNL     1      32.440 -12.993 -21.872  0.00  0.00    +0.000 C 
ATOM     10  C   UNL     1      33.714 -11.167 -23.553  0.00  0.00    +0.053 C 
ATOM     11  C   UNL     1      31.871 -11.740 -22.100  0.00  0.00    +0.000 C 
ATOM     12  C   UNL     1      32.507 -10.827 -22.941  0.00  0.00    +0.005 C 
BRANCH  10  15
ATOM     13  O   UNL     1      34.399  -9.000 -24.171  0.00  0.00    -0.270 OA
ATOM     14  N   UNL     1      35.002 -10.713 -25.571  0.00  0.00    -0.325 N 
ATOM     15  C   UNL     1      34.376 -10.216 -24.432  0.00  0.00    +0.243 C 
ATOM     16  H   UNL     1      35.459 -10.099 -26.189  0.00  0.00    +0.145 HD
ATOM     17  H   UNL     1      34.987 -11.679 -25.759  0.00  0.00    +0.145 HD
ENDBRANCH  10  15
ENDBRANCH   4   7
BRANCH   1  18
ATOM     18  C   UNL     1      35.982 -18.478 -21.547  0.00  0.00    -0.038 C 
BRANCH  18  19
ATOM     19  N   UNL     1      37.236 -18.666 -22.308  0.00  0.00    +0.384 N 
ATOM     20  H   UNL     1      37.837 -17.851 -22.182  0.00  0.00    -0.089 HD
ATOM     21  H   UNL     1      37.018 -18.776 -23.299  0.00  0.00    -0.089 HD
ATOM     22  H   UNL     1      37.717 -19.499 -21.971  0.00  0.00    -0.089 HD
ENDBRANCH  18  19
BRANCH  18  23
ATOM     23  C   UNL     1      35.041 -19.675 -21.868  0.00  0.00    +0.011 C 
BRANCH  23  26
ATOM     24  F   UNL     1      32.511 -20.586 -20.967  0.00  0.00    -0.205 F 
ATOM     25  F   UNL     1      36.910 -22.384 -18.259  0.00  0.00    -0.204 F 
ATOM     26  C   UNL     1      34.869 -20.615 -20.697  0.00  0.00    +0.006 C 
ATOM     27  C   UNL     1      33.593 -21.023 -20.308  0.00  0.00    +0.136 C 
ATOM     28  C   UNL     1      35.990 -21.075 -20.006  0.00  0.00    +0.028 C 
ATOM     29  C   UNL     1      35.835 -21.943 -18.924  0.00  0.00    +0.140 C 
ATOM     30  C   UNL     1      33.438 -21.890 -19.227  0.00  0.00    +0.032 C 
ATOM     31  C   UNL     1      34.558 -22.351 -18.535  0.00  0.00    +0.032 C 
ENDBRANCH  23  26
ENDBRANCH  18  23
ENDBRANCH   1  18
TORSDOF 6
ENDMDL
MODEL 7
REMARK VINA RESULT:     -10.7      3.245      4.132
REMARK  Name = 24832041
REMARK  6 active torsions:
REMARK  status: ('A' for Active; 'I' for Inactive)
REMARK    1  A    between atoms: C_1  and  C_18
REMARK    2  A    between atoms: C_4  and  C_7
REMARK    3  A    between atoms: C_10  and  C_15
REMARK    4  A    between atoms: C_18  and  N_19
REMARK    5  A    between atoms: C_18  and  C_23
REMARK    6  A    between atoms: C_23  and  C_26
REMARK                            x       y       z     vdW  Elec       q    Type
REMARK                         _______ _______ _______ _____ _____    ______ ____
ROOT
ATOM      1  C   UNL     1      35.073 -20.956 -20.173  0.00  0.00    -0.042 C 
ATOM      2  C   UNL     1      35.799 -21.623 -19.187  0.00  0.00    -0.006 C 
ATOM      3  C   UNL     1      33.679 -20.990 -20.156  0.00  0.00    -0.006 C 
ATOM      4  C   UNL     1      33.736 -22.360 -18.166  0.00  0.00    -0.000 C 
ATOM      5  C   UNL     1      35.131 -22.325 -18.183  0.00  0.00    -0.000 C 
ATOM      6  C   UNL     1      33.011 -21.692 -19.154  0.00  0.00    -0.000 C 
ENDROOT
BRANCH   4   7
ATOM      7  C   UNL     1      33.044 -23.087 -17.126  0.00  0.00    +0.000 C 
ATOM      8  C   UNL     1      31.649 -23.119 -17.107  0.00  0.00    +0.005 C 
ATOM      9  C   UNL     1      33.770 -23.756 -16.141  0.00  0.00    +0.000 C 
ATOM     10  C   UNL     1      30.981 -23.820 -16.103  0.00  0.00    +0.053 C 
ATOM     11  C   UNL     1      33.101 -24.457 -15.137  0.00  0.00    +0.000 C 
ATOM     12  C   UNL     1      31.707 -24.489 -15.118  0.00  0.00    +0.005 C 
BRANCH  10  15
ATOM     13  O   UNL     1      28.906 -24.499 -15.220  0.00  0.00    -0.270 OA
ATOM     14  N   UNL     1      28.849 -23.129 -17.058  0.00  0.00    -0.325 N 
ATOM     15  C   UNL     1      29.527 -23.856 -16.084  0.00  0.00    +0.243 C 
ATOM     16  H   UNL     1      27.864 -23.130 -17.077  0.00  0.00    +0.145 HD
ATOM     17  H   UNL     1      29.352 -22.613 -17.728  0.00  0.00    +0.145 HD
ENDBRANCH  10  15
ENDBRANCH   4   7
BRANCH   1  18
ATOM     18  C   UNL     1      35.787 -20.204 -21.245  0.00  0.00    -0.038 C 
BRANCH  18  19
ATOM     19  N   UNL     1      37.252 -20.215 -21.049  0.00  0.00    +0.384 N 
ATOM     20  H   UNL     1      37.703 -20.624 -21.869  0.00  0.00    -0.089 HD
ATOM     21  H   UNL     1      37.481 -20.771 -20.224  0.00  0.00    -0.089 HD
ATOM     22  H   UNL     1      37.586 -19.261 -20.919  0.00  0.00    -0.089 HD
ENDBRANCH  18  19
BRANCH  18  23
ATOM     23  C   UNL     1      35.334 -18.723 -21.398  0.00  0.00    +0.011 C 
BRANCH  23  26
ATOM     24  F   UNL     1      35.463 -16.072 -22.398  0.00  0.00    -0.205 F 
ATOM     25  F   UNL     1      33.886 -19.974 -25.891  0.00  0.00    -0.204 F 
ATOM     26  C   UNL     1      34.992 -18.359 -22.824  0.00  0.00    +0.006 C 
ATOM     27  C   UNL     1      35.078 -17.034 -23.248  0.00  0.00    +0.136 C 
ATOM     28  C   UNL     1      34.590 -19.353 -23.716  0.00  0.00    +0.028 C 
ATOM     29  C   UNL     1      34.272 -19.021 -25.034  0.00  0.00    +0.140 C 
ATOM     30  C   UNL     1      34.761 -16.701 -24.566  0.00  0.00    +0.032 C 
ATOM     31  C   UNL     1      34.359 -17.694 -25.459  0.00  0.00    +0.032 C 
ENDBRANCH  23  26
ENDBRANCH  18  23
ENDBRANCH   1  18
TORSDOF 6
ENDMDL
MODEL 8
REMARK VINA RESULT:     -10.6      7.596     12.918
REMARK  Name = 24832041
REMARK  6 active torsions:
REMARK  status: ('A' for Active; 'I' for Inactive)
REMARK    1  A    between atoms: C_1  and  C_18
REMARK    2  A    between atoms: C_4  and  C_7
REMARK    3  A    between atoms: C_10  and  C_15
REMARK    4  A    between atoms: C_18  and  N_19
REMARK    5  A    between atoms: C_18  and  C_23
REMARK    6  A    between atoms: C_23  and  C_26
REMARK                            x       y       z     vdW  Elec       q    Type
REMARK                         _______ _______ _______ _____ _____    ______ ____
ROOT
ATOM      1  C   UNL     1      32.767 -11.827 -22.670  0.00  0.00    -0.042 C 
ATOM      2  C   UNL     1      31.930 -10.920 -22.021  0.00  0.00    -0.006 C 
ATOM      3  C   UNL     1      33.674 -11.376 -23.629  0.00  0.00    -0.006 C 
ATOM      4  C   UNL     1      32.906  -9.110 -23.290  0.00  0.00    -0.000 C 
ATOM      5  C   UNL     1      31.999  -9.562 -22.331  0.00  0.00    -0.000 C 
ATOM      6  C   UNL     1      33.743 -10.019 -23.939  0.00  0.00    -0.000 C 
ENDROOT
BRANCH   4   7
ATOM      7  C   UNL     1      32.978  -7.702 -23.610  0.00  0.00    +0.000 C 
ATOM      8  C   UNL     1      31.933  -6.851 -23.252  0.00  0.00    +0.005 C 
ATOM      9  C   UNL     1      34.093  -7.195 -24.277  0.00  0.00    +0.000 C 
ATOM     10  C   UNL     1      32.002  -5.492 -23.561  0.00  0.00    +0.053 C 
ATOM     11  C   UNL     1      34.162  -5.836 -24.587  0.00  0.00    +0.000 C 
ATOM     12  C   UNL     1      33.117  -4.985 -24.229  0.00  0.00    +0.005 C 
BRANCH  10  15
ATOM     13  O   UNL     1      30.468  -3.754 -23.978  0.00  0.00    -0.270 OA
ATOM     14  N   UNL     1      30.372  -4.745 -21.912  0.00  0.00    -0.325 N 
ATOM     15  C   UNL     1      30.914  -4.604 -23.186  0.00  0.00    +0.243 C 
ATOM     16  H   UNL     1      29.634  -4.161 -21.623  0.00  0.00    +0.145 HD
ATOM     17  H   UNL     1      30.725  -5.430 -21.300  0.00  0.00    +0.145 HD
ENDBRANCH  10  15
ENDBRANCH   4   7
BRANCH   1  18
ATOM     18  C   UNL     1      32.694 -13.279 -22.339  0.00  0.00    -0.038 C 
BRANCH  18  19
ATOM     19  N   UNL     1      31.943 -13.526 -21.089  0.00  0.00    +0.384 N 
ATOM     20  H   UNL     1      31.262 -12.779 -20.947  0.00  0.00    -0.089 HD
ATOM     21  H   UNL     1      32.592 -13.547 -20.301  0.00  0.00    -0.089 HD
ATOM     22  H   UNL     1      31.458 -14.420 -21.153  0.00  0.00    -0.089 HD
ENDBRANCH  18  19
BRANCH  18  23
ATOM     23  C   UNL     1      34.079 -13.977 -22.212  0.00  0.00    +0.011 C 
BRANCH  23  26
ATOM     24  F   UNL     1      35.503 -16.353 -21.603  0.00  0.00    -0.205 F 
ATOM     25  F   UNL     1      33.335 -15.967 -26.610  0.00  0.00    -0.204 F 
ATOM     26  C   UNL     1      34.256 -15.111 -23.196  0.00  0.00    +0.006 C 
ATOM     27  C   UNL     1      34.969 -16.251 -22.828  0.00  0.00    +0.136 C 
ATOM     28  C   UNL     1      33.703 -15.014 -24.473  0.00  0.00    +0.028 C 
ATOM     29  C   UNL     1      33.865 -16.059 -25.383  0.00  0.00    +0.140 C 
ATOM     30  C   UNL     1      35.130 -17.296 -23.739  0.00  0.00    +0.032 C 
ATOM     31  C   UNL     1      34.578 -17.200 -25.016  0.00  0.00    +0.032 C 
ENDBRANCH  23  26
ENDBRANCH  18  23
ENDBRANCH   1  18
TORSDOF 6
ENDMDL
MODEL 9
REMARK VINA RESULT:     -10.5      4.519      9.002
REMARK  Name = 24832041
REMARK  6 active torsions:
REMARK  status: ('A' for Active; 'I' for Inactive)
REMARK    1  A    between atoms: C_1  and  C_18
REMARK    2  A    between atoms: C_4  and  C_7
REMARK    3  A    between atoms: C_10  and  C_15
REMARK    4  A    between atoms: C_18  and  N_19
REMARK    5  A    between atoms: C_18  and  C_23
REMARK    6  A    between atoms: C_23  and  C_26
REMARK                            x       y       z     vdW  Elec       q    Type
REMARK                         _______ _______ _______ _____ _____    ______ ____
ROOT
ATOM      1  C   UNL     1      34.425 -22.405 -18.944  0.00  0.00    -0.042 C 
ATOM      2  C   UNL     1      33.301 -21.782 -19.487  0.00  0.00    -0.006 C 
ATOM      3  C   UNL     1      35.702 -21.986 -19.317  0.00  0.00    -0.006 C 
ATOM      4  C   UNL     1      34.732 -20.321 -20.775  0.00  0.00    -0.000 C 
ATOM      5  C   UNL     1      33.454 -20.741 -20.403  0.00  0.00    -0.000 C 
ATOM      6  C   UNL     1      35.856 -20.945 -20.232  0.00  0.00    -0.000 C 
ENDROOT
BRANCH   4   7
ATOM      7  C   UNL     1      34.890 -19.241 -21.723  0.00  0.00    +0.000 C 
ATOM      8  C   UNL     1      34.349 -19.353 -23.005  0.00  0.00    +0.005 C 
ATOM      9  C   UNL     1      35.584 -18.089 -21.358  0.00  0.00    +0.000 C 
ATOM     10  C   UNL     1      34.502 -18.311 -23.920  0.00  0.00    +0.053 C 
ATOM     11  C   UNL     1      35.737 -17.047 -22.273  0.00  0.00    +0.000 C 
ATOM     12  C   UNL     1      35.197 -17.158 -23.554  0.00  0.00    +0.005 C 
BRANCH  10  15
ATOM     13  O   UNL     1      34.473 -17.879 -26.235  0.00  0.00    -0.270 OA
ATOM     14  N   UNL     1      32.781 -19.185 -25.405  0.00  0.00    -0.325 N 
ATOM     15  C   UNL     1      33.937 -18.426 -25.255  0.00  0.00    +0.243 C 
ATOM     16  H   UNL     1      32.369 -19.285 -26.294  0.00  0.00    +0.145 HD
ATOM     17  H   UNL     1      32.374 -19.624 -24.623  0.00  0.00    +0.145 HD
ENDBRANCH  10  15
ENDBRANCH   4   7
BRANCH   1  18
ATOM     18  C   UNL     1      34.262 -23.517 -17.966  0.00  0.00    -0.038 C 
BRANCH  18  19
ATOM     19  N   UNL     1      33.215 -24.475 -18.383  0.00  0.00    +0.384 N 
ATOM     20  H   UNL     1      33.639 -25.225 -18.930  0.00  0.00    -0.089 HD
ATOM     21  H   UNL     1      32.519 -23.991 -18.952  0.00  0.00    -0.089 HD
ATOM     22  H   UNL     1      32.765 -24.869 -17.558  0.00  0.00    -0.089 HD
ENDBRANCH  18  19
BRANCH  18  23
ATOM     23  C   UNL     1      33.935 -23.051 -16.517  0.00  0.00    +0.011 C 
BRANCH  23  26
ATOM     24  F   UNL     1      33.599 -25.003 -14.486  0.00  0.00    -0.205 F 
ATOM     25  F   UNL     1      29.057 -22.924 -16.715  0.00  0.00    -0.204 F 
ATOM     26  C   UNL     1      32.581 -23.525 -16.041  0.00  0.00    +0.006 C 
ATOM     27  C   UNL     1      32.490 -24.488 -15.037  0.00  0.00    +0.136 C 
ATOM     28  C   UNL     1      31.422 -22.996 -16.608  0.00  0.00    +0.028 C 
ATOM     29  C   UNL     1      30.171 -23.431 -16.171  0.00  0.00    +0.140 C 
ATOM     30  C   UNL     1      31.239 -24.924 -14.600  0.00  0.00    +0.032 C 
ATOM     31  C   UNL     1      30.079 -24.395 -15.166  0.00  0.00    +0.032 C 
ENDBRANCH  23  26
ENDBRANCH  18  23
ENDBRANCH   1  18
TORSDOF 6
ENDMDL
