MODEL 1
REMARK VINA RESULT:     -11.7      0.000      0.000
REMARK  Name = 57336276
REMARK  5 active torsions:
REMARK  status: ('A' for Active; 'I' for Inactive)
REMARK    1  A    between atoms: C_2  and  C_16
REMARK    2  A    between atoms: C_6  and  O_17
REMARK    3  A    between atoms: O_17  and  C_18
REMARK    4  A    between atoms: C_18  and  C_21
REMARK    5  A    between atoms: C_22  and  C_26
REMARK                            x       y       z     vdW  Elec       q    Type
REMARK                         _______ _______ _______ _____ _____    ______ ____
ROOT
ATOM      1  N   UNL     1      33.708 -11.856 -24.902  0.00  0.00    -0.210 NA
ATOM      2  C   UNL     1      33.447 -14.230 -24.525  0.00  0.00    +0.073 C 
ATOM      3  C   UNL     1      33.054 -13.985 -23.214  0.00  0.00    +0.011 C 
ATOM      4  C   UNL     1      33.761 -13.140 -25.322  0.00  0.00    +0.107 C 
ATOM      5  C   UNL     1      32.988 -12.677 -22.746  0.00  0.00    +0.058 C 
ATOM      6  C   UNL     1      33.322 -11.657 -23.622  0.00  0.00    +0.225 C 
ENDROOT
BRANCH   2  16
ATOM      7  S   UNL     1      35.250 -18.574 -22.436  0.00  0.00    -0.007 S 
ATOM      8  O   UNL     1      34.598 -19.183 -21.293  0.00  0.00    -0.173 OA
ATOM      9  O   UNL     1      36.593 -18.964 -22.821  0.00  0.00    -0.173 OA
ATOM     10  O   UNL     1      32.698 -15.899 -25.907  0.00  0.00    -0.270 OA
ATOM     11  N   UNL     1      34.515 -16.442 -24.536  0.00  0.00    -0.272 N 
ATOM     12  C   UNL     1      34.182 -18.782 -23.851  0.00  0.00    +0.172 C 
ATOM     13  C   UNL     1      35.226 -16.804 -22.203  0.00  0.00    +0.172 C 
ATOM     14  C   UNL     1      34.569 -17.838 -24.980  0.00  0.00    +0.119 C 
ATOM     15  C   UNL     1      35.501 -16.073 -23.509  0.00  0.00    +0.119 C 
ATOM     16  C   UNL     1      33.526 -15.598 -25.049  0.00  0.00    +0.251 C 
ENDBRANCH   2  16
BRANCH   6  17
ATOM     17  O   UNL     1      33.265 -10.360 -23.185  0.00  0.00    -0.455 OA
BRANCH  17  18
ATOM     18  C   UNL     1      32.004  -9.898 -22.715  0.00  0.00    +0.238 C 
BRANCH  18  21
ATOM     19  O   UNL     1      32.335  -8.131 -19.494  0.00  0.00    -0.358 OA
ATOM     20  N   UNL     1      32.753  -7.116 -20.345  0.00  0.00    -0.078 NA
ATOM     21  C   UNL     1      32.223  -8.970 -21.556  0.00  0.00    +0.075 A 
ATOM     22  C   UNL     1      32.678  -7.640 -21.572  0.00  0.00    +0.122 A 
ATOM     23  C   UNL     1      32.022  -9.229 -20.226  0.00  0.00    +0.154 A 
ATOM     24  C   UNL     1      31.557 -10.405 -19.476  0.00  0.00    +0.075 C 
BRANCH  22  26
ATOM     25  F   UNL     1      34.092  -4.600 -26.017  0.00  0.00    -0.204 F 
ATOM     26  C   UNL     1      33.043  -6.855 -22.721  0.00  0.00    +0.021 C 
ATOM     27  C   UNL     1      34.279  -7.052 -23.336  0.00  0.00    +0.004 C 
ATOM     28  C   UNL     1      32.162  -5.894 -23.219  0.00  0.00    +0.004 C 
ATOM     29  C   UNL     1      34.633  -6.291 -24.450  0.00  0.00    +0.030 C 
ATOM     30  C   UNL     1      32.516  -5.133 -24.333  0.00  0.00    +0.030 C 
ATOM     31  C   UNL     1      33.752  -5.331 -24.948  0.00  0.00    +0.140 C 
ENDBRANCH  22  26
ENDBRANCH  18  21
ENDBRANCH  17  18
ENDBRANCH   6  17
TORSDOF 5
ENDMDL
MODEL 2
REMARK VINA RESULT:     -10.9      8.260     13.517
REMARK  Name = 57336276
REMARK  5 active torsions:
REMARK  status: ('A' for Active; 'I' for Inactive)
REMARK    1  A    between atoms: C_2  and  C_16
REMARK    2  A    between atoms: C_6  and  O_17
REMARK    3  A    between atoms: O_17  and  C_18
REMARK    4  A    between atoms: C_18  and  C_21
REMARK    5  A    between atoms: C_22  and  C_26
REMARK                            x       y       z     vdW  Elec       q    Type
REMARK                         _______ _______ _______ _____ _____    ______ ____
ROOT
ATOM      1  N   UNL     1      32.750 -21.142 -20.081  0.00  0.00    -0.210 NA
ATOM      2  C   UNL     1      34.710 -19.872 -20.705  0.00  0.00    +0.073 C 
ATOM      3  C   UNL     1      35.527 -20.832 -20.119  0.00  0.00    +0.011 C 
ATOM      4  C   UNL     1      33.339 -20.072 -20.660  0.00  0.00    +0.107 C 
ATOM      5  C   UNL     1      34.957 -21.947 -19.514  0.00  0.00    +0.058 C 
ATOM      6  C   UNL     1      33.576 -22.054 -19.522  0.00  0.00    +0.225 C 
ENDROOT
BRANCH   2  16
ATOM      7  S   UNL     1      33.849 -17.762 -25.320  0.00  0.00    -0.007 S 
ATOM      8  O   UNL     1      32.567 -17.170 -25.646  0.00  0.00    -0.173 OA
ATOM      9  O   UNL     1      34.808 -18.079 -26.361  0.00  0.00    -0.173 OA
ATOM     10  O   UNL     1      35.696 -17.805 -20.597  0.00  0.00    -0.270 OA
ATOM     11  N   UNL     1      35.300 -18.640 -22.747  0.00  0.00    -0.272 N 
ATOM     12  C   UNL     1      34.653 -16.707 -24.125  0.00  0.00    +0.172 C 
ATOM     13  C   UNL     1      33.545 -19.243 -24.370  0.00  0.00    +0.172 C 
ATOM     14  C   UNL     1      35.789 -17.434 -23.421  0.00  0.00    +0.119 C 
ATOM     15  C   UNL     1      34.800 -19.697 -23.639  0.00  0.00    +0.119 C 
ATOM     16  C   UNL     1      35.281 -18.684 -21.351  0.00  0.00    +0.251 C 
ENDBRANCH   2  16
BRANCH   6  17
ATOM     17  O   UNL     1      32.991 -23.144 -18.933  0.00  0.00    -0.455 OA
BRANCH  17  18
ATOM     18  C   UNL     1      33.801 -23.904 -18.045  0.00  0.00    +0.238 C 
BRANCH  18  21
ATOM     19  O   UNL     1      32.102 -23.169 -14.855  0.00  0.00    -0.358 OA
ATOM     20  N   UNL     1      33.378 -23.429 -14.370  0.00  0.00    -0.078 NA
ATOM     21  C   UNL     1      33.354 -23.653 -16.636  0.00  0.00    +0.075 A 
ATOM     22  C   UNL     1      34.108 -23.715 -15.451  0.00  0.00    +0.122 A 
ATOM     23  C   UNL     1      32.100 -23.305 -16.205  0.00  0.00    +0.154 A 
ATOM     24  C   UNL     1      30.819 -23.064 -16.884  0.00  0.00    +0.075 C 
BRANCH  22  26
ATOM     25  F   UNL     1      39.509 -24.971 -14.944  0.00  0.00    -0.204 F 
ATOM     26  C   UNL     1      35.504 -24.040 -15.321  0.00  0.00    +0.021 C 
ATOM     27  C   UNL     1      35.888 -25.318 -14.917  0.00  0.00    +0.004 C 
ATOM     28  C   UNL     1      36.474 -23.075 -15.596  0.00  0.00    +0.004 C 
ATOM     29  C   UNL     1      37.240 -25.633 -14.791  0.00  0.00    +0.030 C 
ATOM     30  C   UNL     1      37.827 -23.390 -15.468  0.00  0.00    +0.030 C 
ATOM     31  C   UNL     1      38.210 -24.669 -15.066  0.00  0.00    +0.140 C 
ENDBRANCH  22  26
ENDBRANCH  18  21
ENDBRANCH  17  18
ENDBRANCH   6  17
TORSDOF 5
ENDMDL
MODEL 3
REMARK VINA RESULT:     -10.7      4.514     10.305
REMARK  Name = 57336276
REMARK  5 active torsions:
REMARK  status: ('A' for Active; 'I' for Inactive)
REMARK    1  A    between atoms: C_2  and  C_16
REMARK    2  A    between atoms: C_6  and  O_17
REMARK    3  A    between atoms: O_17  and  C_18
REMARK    4  A    between atoms: C_18  and  C_21
REMARK    5  A    between atoms: C_22  and  C_26
REMARK                            x       y       z     vdW  Elec       q    Type
REMARK                         _______ _______ _______ _____ _____    ______ ____
ROOT
ATOM      1  N   UNL     1      32.547 -11.402 -22.669  0.00  0.00    -0.210 NA
ATOM      2  C   UNL     1      33.827  -9.526 -23.498  0.00  0.00    +0.073 C 
ATOM      3  C   UNL     1      34.496 -10.365 -24.383  0.00  0.00    +0.011 C 
ATOM      4  C   UNL     1      32.869 -10.089 -22.669  0.00  0.00    +0.107 C 
ATOM      5  C   UNL     1      34.191 -11.721 -24.412  0.00  0.00    +0.058 C 
ATOM      6  C   UNL     1      33.217 -12.185 -23.543  0.00  0.00    +0.225 C 
ENDROOT
BRANCH   2  16
ATOM      7  S   UNL     1      30.788  -5.444 -22.735  0.00  0.00    -0.007 S 
ATOM      8  O   UNL     1      30.127  -5.228 -21.462  0.00  0.00    -0.173 OA
ATOM      9  O   UNL     1      30.367  -4.724 -23.922  0.00  0.00    -0.173 OA
ATOM     10  O   UNL     1      35.269  -7.788 -23.104  0.00  0.00    -0.270 OA
ATOM     11  N   UNL     1      33.105  -7.193 -23.766  0.00  0.00    -0.272 N 
ATOM     12  C   UNL     1      32.535  -5.161 -22.501  0.00  0.00    +0.172 C 
ATOM     13  C   UNL     1      30.733  -7.192 -23.093  0.00  0.00    +0.172 C 
ATOM     14  C   UNL     1      33.348  -5.753 -23.643  0.00  0.00    +0.119 C 
ATOM     15  C   UNL     1      31.741  -7.566 -24.170  0.00  0.00    +0.119 C 
ATOM     16  C   UNL     1      34.126  -8.090 -23.443  0.00  0.00    +0.251 C 
ENDBRANCH   2  16
BRANCH   6  17
ATOM     17  O   UNL     1      32.899 -13.518 -23.553  0.00  0.00    -0.455 OA
BRANCH  17  18
ATOM     18  C   UNL     1      33.985 -14.436 -23.517  0.00  0.00    +0.238 C 
BRANCH  18  21
ATOM     19  O   UNL     1      33.448 -16.245 -26.687  0.00  0.00    -0.358 OA
ATOM     20  N   UNL     1      33.937 -17.292 -25.916  0.00  0.00    -0.078 NA
ATOM     21  C   UNL     1      33.860 -15.388 -24.670  0.00  0.00    +0.075 A 
ATOM     22  C   UNL     1      34.176 -16.757 -24.716  0.00  0.00    +0.122 A 
ATOM     23  C   UNL     1      33.407 -15.116 -25.934  0.00  0.00    +0.154 A 
ATOM     24  C   UNL     1      32.910 -13.904 -26.600  0.00  0.00    +0.075 C 
BRANCH  22  26
ATOM     25  F   UNL     1      36.201 -19.901 -20.591  0.00  0.00    -0.204 F 
ATOM     26  C   UNL     1      34.699 -17.569 -23.650  0.00  0.00    +0.021 C 
ATOM     27  C   UNL     1      35.402 -16.977 -22.601  0.00  0.00    +0.004 C 
ATOM     28  C   UNL     1      34.504 -18.951 -23.665  0.00  0.00    +0.004 C 
ATOM     29  C   UNL     1      35.908 -17.764 -21.567  0.00  0.00    +0.030 C 
ATOM     30  C   UNL     1      35.012 -19.739 -22.631  0.00  0.00    +0.030 C 
ATOM     31  C   UNL     1      35.714 -19.145 -21.583  0.00  0.00    +0.140 C 
ENDBRANCH  22  26
ENDBRANCH  18  21
ENDBRANCH  17  18
ENDBRANCH   6  17
TORSDOF 5
ENDMDL
MODEL 4
REMARK VINA RESULT:     -10.6      8.210     13.534
REMARK  Name = 57336276
REMARK  5 active torsions:
REMARK  status: ('A' for Active; 'I' for Inactive)
REMARK    1  A    between atoms: C_2  and  C_16
REMARK    2  A    between atoms: C_6  and  O_17
REMARK    3  A    between atoms: O_17  and  C_18
REMARK    4  A    between atoms: C_18  and  C_21
REMARK    5  A    between atoms: C_22  and  C_26
REMARK                            x       y       z     vdW  Elec       q    Type
REMARK                         _______ _______ _______ _____ _____    ______ ____
ROOT
ATOM      1  N   UNL     1      36.258 -21.284 -19.640  0.00  0.00    -0.210 NA
ATOM      2  C   UNL     1      35.221 -19.426 -20.787  0.00  0.00    +0.073 C 
ATOM      3  C   UNL     1      33.975 -20.028 -20.650  0.00  0.00    +0.011 C 
ATOM      4  C   UNL     1      36.322 -20.089 -20.269  0.00  0.00    +0.107 C 
ATOM      5  C   UNL     1      33.869 -21.257 -20.008  0.00  0.00    +0.058 C 
ATOM      6  C   UNL     1      35.031 -21.838 -19.525  0.00  0.00    +0.225 C 
ENDROOT
BRANCH   2  16
ATOM      7  S   UNL     1      33.766 -17.834 -25.461  0.00  0.00    -0.007 S 
ATOM      8  O   UNL     1      32.364 -17.718 -25.811  0.00  0.00    -0.173 OA
ATOM      9  O   UNL     1      34.791 -17.831 -26.487  0.00  0.00    -0.173 OA
ATOM     10  O   UNL     1      35.448 -17.145 -20.726  0.00  0.00    -0.270 OA
ATOM     11  N   UNL     1      35.390 -18.112 -22.856  0.00  0.00    -0.272 N 
ATOM     12  C   UNL     1      34.148 -16.543 -24.288  0.00  0.00    +0.172 C 
ATOM     13  C   UNL     1      33.966 -19.309 -24.475  0.00  0.00    +0.172 C 
ATOM     14  C   UNL     1      35.452 -16.827 -23.558  0.00  0.00    +0.119 C 
ATOM     15  C   UNL     1      35.290 -19.295 -23.725  0.00  0.00    +0.119 C 
ATOM     16  C   UNL     1      35.365 -18.129 -21.460  0.00  0.00    +0.251 C 
ENDBRANCH   2  16
BRANCH   6  17
ATOM     17  O   UNL     1      34.953 -23.049 -18.889  0.00  0.00    -0.455 OA
BRANCH  17  18
ATOM     18  C   UNL     1      33.903 -23.208 -17.943  0.00  0.00    +0.238 C 
BRANCH  18  21
ATOM     19  O   UNL     1      35.908 -23.131 -14.848  0.00  0.00    -0.358 OA
ATOM     20  N   UNL     1      34.698 -23.556 -14.315  0.00  0.00    -0.078 NA
ATOM     21  C   UNL     1      34.490 -23.261 -16.563  0.00  0.00    +0.075 A 
ATOM     22  C   UNL     1      33.866 -23.627 -15.357  0.00  0.00    +0.122 A 
ATOM     23  C   UNL     1      35.772 -22.959 -16.187  0.00  0.00    +0.154 A 
ATOM     24  C   UNL     1      36.968 -22.507 -16.913  0.00  0.00    +0.075 C 
BRANCH  22  26
ATOM     25  F   UNL     1      28.583 -25.228 -14.633  0.00  0.00    -0.204 F 
ATOM     26  C   UNL     1      32.501 -24.040 -15.170  0.00  0.00    +0.021 C 
ATOM     27  C   UNL     1      31.490 -23.488 -15.957  0.00  0.00    +0.004 C 
ATOM     28  C   UNL     1      32.187 -24.994 -14.201  0.00  0.00    +0.004 C 
ATOM     29  C   UNL     1      30.167 -23.890 -15.776  0.00  0.00    +0.030 C 
ATOM     30  C   UNL     1      30.863 -25.395 -14.020  0.00  0.00    +0.030 C 
ATOM     31  C   UNL     1      29.853 -24.843 -14.807  0.00  0.00    +0.140 C 
ENDBRANCH  22  26
ENDBRANCH  18  21
ENDBRANCH  17  18
ENDBRANCH   6  17
TORSDOF 5
ENDMDL
MODEL 5
REMARK VINA RESULT:     -10.4      4.362     10.213
REMARK  Name = 57336276
REMARK  5 active torsions:
REMARK  status: ('A' for Active; 'I' for Inactive)
REMARK    1  A    between atoms: C_2  and  C_16
REMARK    2  A    between atoms: C_6  and  O_17
REMARK    3  A    between atoms: O_17  and  C_18
REMARK    4  A    between atoms: C_18  and  C_21
REMARK    5  A    between atoms: C_22  and  C_26
REMARK                            x       y       z     vdW  Elec       q    Type
REMARK                         _______ _______ _______ _____ _____    ______ ____
ROOT
ATOM      1  N   UNL     1      32.812 -11.574 -23.178  0.00  0.00    -0.210 NA
ATOM      2  C   UNL     1      32.224 -10.282 -21.220  0.00  0.00    +0.073 C 
ATOM      3  C   UNL     1      31.832 -11.443 -20.564  0.00  0.00    +0.011 C 
ATOM      4  C   UNL     1      32.703 -10.400 -22.516  0.00  0.00    +0.107 C 
ATOM      5  C   UNL     1      31.930 -12.670 -21.213  0.00  0.00    +0.058 C 
ATOM      6  C   UNL     1      32.422 -12.680 -22.508  0.00  0.00    +0.225 C 
ENDROOT
BRANCH   2  16
ATOM      7  S   UNL     1      31.539  -5.554 -23.133  0.00  0.00    -0.007 S 
ATOM      8  O   UNL     1      30.295  -5.178 -23.776  0.00  0.00    -0.173 OA
ATOM      9  O   UNL     1      32.732  -4.746 -23.296  0.00  0.00    -0.173 OA
ATOM     10  O   UNL     1      31.737  -8.978 -19.399  0.00  0.00    -0.270 OA
ATOM     11  N   UNL     1      32.489  -7.841 -21.300  0.00  0.00    -0.272 N 
ATOM     12  C   UNL     1      31.221  -5.735 -21.386  0.00  0.00    +0.172 C 
ATOM     13  C   UNL     1      31.925  -7.227 -23.621  0.00  0.00    +0.172 C 
ATOM     14  C   UNL     1      32.332  -6.514 -20.699  0.00  0.00    +0.119 C 
ATOM     15  C   UNL     1      32.961  -7.846 -22.694  0.00  0.00    +0.119 C 
ATOM     16  C   UNL     1      32.133  -8.973 -20.563  0.00  0.00    +0.251 C 
ENDBRANCH   2  16
BRANCH   6  17
ATOM     17  O   UNL     1      32.528 -13.876 -23.168  0.00  0.00    -0.455 OA
BRANCH  17  18
ATOM     18  C   UNL     1      33.842 -14.382 -23.369  0.00  0.00    +0.238 C 
BRANCH  18  21
ATOM     19  O   UNL     1      33.641 -15.962 -26.697  0.00  0.00    -0.358 OA
ATOM     20  N   UNL     1      34.111 -17.046 -25.967  0.00  0.00    -0.078 NA
ATOM     21  C   UNL     1      33.852 -15.247 -24.595  0.00  0.00    +0.075 A 
ATOM     22  C   UNL     1      34.229 -16.596 -24.715  0.00  0.00    +0.122 A 
ATOM     23  C   UNL     1      33.490 -14.896 -25.869  0.00  0.00    +0.154 A 
ATOM     24  C   UNL     1      32.996 -13.656 -26.484  0.00  0.00    +0.075 C 
BRANCH  22  26
ATOM     25  F   UNL     1      36.051 -19.968 -20.676  0.00  0.00    -0.204 F 
ATOM     26  C   UNL     1      34.700 -17.467 -23.671  0.00  0.00    +0.021 C 
ATOM     27  C   UNL     1      35.424 -16.945 -22.600  0.00  0.00    +0.004 C 
ATOM     28  C   UNL     1      34.432 -18.835 -23.730  0.00  0.00    +0.004 C 
ATOM     29  C   UNL     1      35.880 -17.789 -21.588  0.00  0.00    +0.030 C 
ATOM     30  C   UNL     1      34.889 -19.680 -22.718  0.00  0.00    +0.030 C 
ATOM     31  C   UNL     1      35.613 -19.157 -21.647  0.00  0.00    +0.140 C 
ENDBRANCH  22  26
ENDBRANCH  18  21
ENDBRANCH  17  18
ENDBRANCH   6  17
TORSDOF 5
ENDMDL
MODEL 6
REMARK VINA RESULT:     -10.0      4.348     10.339
REMARK  Name = 57336276
REMARK  5 active torsions:
REMARK  status: ('A' for Active; 'I' for Inactive)
REMARK    1  A    between atoms: C_2  and  C_16
REMARK    2  A    between atoms: C_6  and  O_17
REMARK    3  A    between atoms: O_17  and  C_18
REMARK    4  A    between atoms: C_18  and  C_21
REMARK    5  A    between atoms: C_22  and  C_26
REMARK                            x       y       z     vdW  Elec       q    Type
REMARK                         _______ _______ _______ _____ _____    ______ ____
ROOT
ATOM      1  N   UNL     1      34.257 -13.374 -23.730  0.00  0.00    -0.210 NA
ATOM      2  C   UNL     1      33.036 -11.341 -23.260  0.00  0.00    +0.073 C 
ATOM      3  C   UNL     1      32.353 -11.981 -22.232  0.00  0.00    +0.011 C 
ATOM      4  C   UNL     1      33.970 -12.076 -23.974  0.00  0.00    +0.107 C 
ATOM      5  C   UNL     1      32.621 -13.317 -21.952  0.00  0.00    +0.058 C 
ATOM      6  C   UNL     1      33.574 -13.962 -22.724  0.00  0.00    +0.225 C 
ENDROOT
BRANCH   2  16
ATOM      7  S   UNL     1      32.311  -7.240 -20.237  0.00  0.00    -0.007 S 
ATOM      8  O   UNL     1      33.380  -6.723 -19.405  0.00  0.00    -0.173 OA
ATOM      9  O   UNL     1      30.934  -6.844 -20.008  0.00  0.00    -0.173 OA
ATOM     10  O   UNL     1      33.191  -9.540 -24.670  0.00  0.00    -0.270 OA
ATOM     11  N   UNL     1      32.094  -9.159 -22.638  0.00  0.00    -0.272 N 
ATOM     12  C   UNL     1      32.718  -6.884 -21.938  0.00  0.00    +0.172 C 
ATOM     13  C   UNL     1      32.394  -9.023 -20.195  0.00  0.00    +0.172 C 
ATOM     14  C   UNL     1      31.891  -7.730 -22.894  0.00  0.00    +0.119 C 
ATOM     15  C   UNL     1      31.601  -9.639 -21.338  0.00  0.00    +0.119 C 
ATOM     16  C   UNL     1      32.775  -9.933 -23.581  0.00  0.00    +0.251 C 
ENDBRANCH   2  16
BRANCH   6  17
ATOM     17  O   UNL     1      33.856 -15.278 -22.467  0.00  0.00    -0.455 OA
BRANCH  17  18
ATOM     18  C   UNL     1      35.023 -15.814 -23.078  0.00  0.00    +0.238 C 
BRANCH  18  21
ATOM     19  O   UNL     1      33.859 -18.107 -25.723  0.00  0.00    -0.358 OA
ATOM     20  N   UNL     1      34.285 -19.045 -24.791  0.00  0.00    -0.078 NA
ATOM     21  C   UNL     1      34.628 -16.944 -23.983  0.00  0.00    +0.075 A 
ATOM     22  C   UNL     1      34.739 -18.327 -23.760  0.00  0.00    +0.122 A 
ATOM     23  C   UNL     1      34.068 -16.859 -25.231  0.00  0.00    +0.154 A 
ATOM     24  C   UNL     1      33.670 -15.740 -26.097  0.00  0.00    +0.075 C 
BRANCH  22  26
ATOM     25  F   UNL     1      36.783 -20.870 -19.248  0.00  0.00    -0.204 F 
ATOM     26  C   UNL     1      35.267 -18.984 -22.595  0.00  0.00    +0.021 C 
ATOM     27  C   UNL     1      34.460 -19.849 -21.855  0.00  0.00    +0.004 C 
ATOM     28  C   UNL     1      36.587 -18.757 -22.202  0.00  0.00    +0.004 C 
ATOM     29  C   UNL     1      34.972 -20.486 -20.725  0.00  0.00    +0.030 C 
ATOM     30  C   UNL     1      37.099 -19.394 -21.072  0.00  0.00    +0.030 C 
ATOM     31  C   UNL     1      36.291 -20.258 -20.333  0.00  0.00    +0.140 C 
ENDBRANCH  22  26
ENDBRANCH  18  21
ENDBRANCH  17  18
ENDBRANCH   6  17
TORSDOF 5
ENDMDL
MODEL 7
REMARK VINA RESULT:     -10.0      4.524     10.442
REMARK  Name = 57336276
REMARK  5 active torsions:
REMARK  status: ('A' for Active; 'I' for Inactive)
REMARK    1  A    between atoms: C_2  and  C_16
REMARK    2  A    between atoms: C_6  and  O_17
REMARK    3  A    between atoms: O_17  and  C_18
REMARK    4  A    between atoms: C_18  and  C_21
REMARK    5  A    between atoms: C_22  and  C_26
REMARK                            x       y       z     vdW  Elec       q    Type
REMARK                         _______ _______ _______ _____ _____    ______ ____
ROOT
ATOM      1  N   UNL     1      34.063 -12.492 -24.009  0.00  0.00    -0.210 NA
ATOM      2  C   UNL     1      32.462 -11.562 -22.454  0.00  0.00    +0.073 C 
ATOM      3  C   UNL     1      32.503 -12.732 -21.703  0.00  0.00    +0.011 C 
ATOM      4  C   UNL     1      33.255 -11.493 -23.589  0.00  0.00    +0.107 C 
ATOM      5  C   UNL     1      33.323 -13.781 -22.103  0.00  0.00    +0.058 C 
ATOM      6  C   UNL     1      34.076 -13.612 -23.254  0.00  0.00    +0.225 C 
ENDROOT
BRANCH   2  16
ATOM      7  S   UNL     1      32.505  -6.605 -23.834  0.00  0.00    -0.007 S 
ATOM      8  O   UNL     1      32.193  -6.201 -25.192  0.00  0.00    -0.173 OA
ATOM      9  O   UNL     1      33.152  -5.687 -22.917  0.00  0.00    -0.173 OA
ATOM     10  O   UNL     1      30.468 -10.725 -21.692  0.00  0.00    -0.270 OA
ATOM     11  N   UNL     1      32.139  -9.148 -22.134  0.00  0.00    -0.272 N 
ATOM     12  C   UNL     1      30.997  -7.183 -23.074  0.00  0.00    +0.172 C 
ATOM     13  C   UNL     1      33.482  -8.097 -23.915  0.00  0.00    +0.172 C 
ATOM     14  C   UNL     1      31.285  -7.999 -21.823  0.00  0.00    +0.119 C 
ATOM     15  C   UNL     1      33.503  -8.815 -22.573  0.00  0.00    +0.119 C 
ATOM     16  C   UNL     1      31.607 -10.437 -22.058  0.00  0.00    +0.251 C 
ENDBRANCH   2  16
BRANCH   6  17
ATOM     17  O   UNL     1      34.893 -14.632 -23.668  0.00  0.00    -0.455 OA
BRANCH  17  18
ATOM     18  C   UNL     1      34.804 -15.856 -22.950  0.00  0.00    +0.238 C 
BRANCH  18  21
ATOM     19  O   UNL     1      33.972 -18.124 -25.738  0.00  0.00    -0.358 OA
ATOM     20  N   UNL     1      34.439 -19.061 -24.824  0.00  0.00    -0.078 NA
ATOM     21  C   UNL     1      34.553 -16.975 -23.918  0.00  0.00    +0.075 A 
ATOM     22  C   UNL     1      34.780 -18.352 -23.745  0.00  0.00    +0.122 A 
ATOM     23  C   UNL     1      34.044 -16.886 -25.186  0.00  0.00    +0.154 A 
ATOM     24  C   UNL     1      33.586 -15.770 -26.025  0.00  0.00    +0.075 C 
BRANCH  22  26
ATOM     25  F   UNL     1      36.842 -20.899 -19.244  0.00  0.00    -0.204 F 
ATOM     26  C   UNL     1      35.313 -19.010 -22.582  0.00  0.00    +0.021 C 
ATOM     27  C   UNL     1      34.522 -19.908 -21.865  0.00  0.00    +0.004 C 
ATOM     28  C   UNL     1      36.621 -18.750 -22.170  0.00  0.00    +0.004 C 
ATOM     29  C   UNL     1      35.039 -20.547 -20.738  0.00  0.00    +0.030 C 
ATOM     30  C   UNL     1      37.137 -19.389 -21.042  0.00  0.00    +0.030 C 
ATOM     31  C   UNL     1      36.347 -20.286 -20.326  0.00  0.00    +0.140 C 
ENDBRANCH  22  26
ENDBRANCH  18  21
ENDBRANCH  17  18
ENDBRANCH   6  17
TORSDOF 5
ENDMDL
MODEL 8
REMARK VINA RESULT:      -9.5      7.808     11.680
REMARK  Name = 57336276
REMARK  5 active torsions:
REMARK  status: ('A' for Active; 'I' for Inactive)
REMARK    1  A    between atoms: C_2  and  C_16
REMARK    2  A    between atoms: C_6  and  O_17
REMARK    3  A    between atoms: O_17  and  C_18
REMARK    4  A    between atoms: C_18  and  C_21
REMARK    5  A    between atoms: C_22  and  C_26
REMARK                            x       y       z     vdW  Elec       q    Type
REMARK                         _______ _______ _______ _____ _____    ______ ____
ROOT
ATOM      1  N   UNL     1      32.651 -21.968 -19.176  0.00  0.00    -0.210 NA
ATOM      2  C   UNL     1      33.306 -23.028 -17.104  0.00  0.00    +0.073 C 
ATOM      3  C   UNL     1      34.638 -23.001 -17.504  0.00  0.00    +0.011 C 
ATOM      4  C   UNL     1      32.359 -22.503 -17.969  0.00  0.00    +0.107 C 
ATOM      5  C   UNL     1      34.977 -22.458 -18.739  0.00  0.00    +0.058 C 
ATOM      6  C   UNL     1      33.955 -21.959 -19.530  0.00  0.00    +0.225 C 
ENDROOT
BRANCH   2  16
ATOM      7  S   UNL     1      36.082 -24.224 -12.938  0.00  0.00    -0.007 S 
ATOM      8  O   UNL     1      36.736 -23.196 -12.152  0.00  0.00    -0.173 OA
ATOM      9  O   UNL     1      36.448 -25.619 -12.788  0.00  0.00    -0.173 OA
ATOM     10  O   UNL     1      31.758 -23.382 -15.451  0.00  0.00    -0.270 OA
ATOM     11  N   UNL     1      33.875 -24.310 -15.087  0.00  0.00    -0.272 N 
ATOM     12  C   UNL     1      34.322 -24.077 -12.679  0.00  0.00    +0.172 C 
ATOM     13  C   UNL     1      36.247 -23.786 -14.661  0.00  0.00    +0.172 C 
ATOM     14  C   UNL     1      33.541 -24.818 -13.754  0.00  0.00    +0.119 C 
ATOM     15  C   UNL     1      35.258 -24.558 -15.523  0.00  0.00    +0.119 C 
ATOM     16  C   UNL     1      32.916 -23.594 -15.807  0.00  0.00    +0.251 C 
ENDBRANCH   2  16
BRANCH   6  17
ATOM     17  O   UNL     1      34.263 -21.419 -20.751  0.00  0.00    -0.455 OA
BRANCH  17  18
ATOM     18  C   UNL     1      34.281 -19.999 -20.837  0.00  0.00    +0.238 C 
BRANCH  18  21
ATOM     19  O   UNL     1      37.876 -19.221 -21.114  0.00  0.00    -0.358 OA
ATOM     20  N   UNL     1      37.419 -18.550 -22.241  0.00  0.00    -0.078 NA
ATOM     21  C   UNL     1      35.671 -19.546 -21.174  0.00  0.00    +0.075 A 
ATOM     22  C   UNL     1      36.099 -18.758 -22.256  0.00  0.00    +0.122 A 
ATOM     23  C   UNL     1      36.827 -19.810 -20.486  0.00  0.00    +0.154 A 
ATOM     24  C   UNL     1      37.137 -20.567 -19.265  0.00  0.00    +0.075 C 
BRANCH  22  26
ATOM     25  F   UNL     1      32.960 -16.593 -26.313  0.00  0.00    -0.204 F 
ATOM     26  C   UNL     1      35.288 -18.199 -23.304  0.00  0.00    +0.021 C 
ATOM     27  C   UNL     1      34.640 -19.039 -24.209  0.00  0.00    +0.004 C 
ATOM     28  C   UNL     1      35.148 -16.815 -23.416  0.00  0.00    +0.004 C 
ATOM     29  C   UNL     1      33.853 -18.497 -25.225  0.00  0.00    +0.030 C 
ATOM     30  C   UNL     1      34.362 -16.272 -24.433  0.00  0.00    +0.030 C 
ATOM     31  C   UNL     1      33.715 -17.113 -25.337  0.00  0.00    +0.140 C 
ENDBRANCH  22  26
ENDBRANCH  18  21
ENDBRANCH  17  18
ENDBRANCH   6  17
TORSDOF 5
ENDMDL
MODEL 9
REMARK VINA RESULT:      -8.8      4.332     10.163
REMARK  Name = 57336276
REMARK  5 active torsions:
REMARK  status: ('A' for Active; 'I' for Inactive)
REMARK    1  A    between atoms: C_2  and  C_16
REMARK    2  A    between atoms: C_6  and  O_17
REMARK    3  A    between atoms: O_17  and  C_18
REMARK    4  A    between atoms: C_18  and  C_21
REMARK    5  A    between atoms: C_22  and  C_26
REMARK                            x       y       z     vdW  Elec       q    Type
REMARK                         _______ _______ _______ _____ _____    ______ ____
ROOT
ATOM      1  N   UNL     1      31.898 -12.271 -21.790  0.00  0.00    -0.210 NA
ATOM      2  C   UNL     1      32.500  -9.986 -22.301  0.00  0.00    +0.073 C 
ATOM      3  C   UNL     1      33.331 -10.427 -23.324  0.00  0.00    +0.011 C 
ATOM      4  C   UNL     1      31.811 -10.940 -21.569  0.00  0.00    +0.107 C 
ATOM      5  C   UNL     1      33.447 -11.789 -23.582  0.00  0.00    +0.058 C 
ATOM      6  C   UNL     1      32.716 -12.661 -22.793  0.00  0.00    +0.225 C 
ENDROOT
BRANCH   2  16
ATOM      7  S   UNL     1      33.528  -5.805 -25.121  0.00  0.00    -0.007 S 
ATOM      8  O   UNL     1      32.771  -5.504 -26.320  0.00  0.00    -0.173 OA
ATOM      9  O   UNL     1      34.792  -5.144 -24.855  0.00  0.00    -0.173 OA
ATOM     10  O   UNL     1      31.500  -8.259 -21.173  0.00  0.00    -0.270 OA
ATOM     11  N   UNL     1      33.184  -7.657 -22.682  0.00  0.00    -0.272 N 
ATOM     12  C   UNL     1      32.457  -5.546 -23.716  0.00  0.00    +0.172 C 
ATOM     13  C   UNL     1      33.798  -7.569 -25.069  0.00  0.00    +0.172 C 
ATOM     14  C   UNL     1      33.010  -6.218 -22.468  0.00  0.00    +0.119 C 
ATOM     15  C   UNL     1      34.206  -8.023 -23.675  0.00  0.00    +0.119 C 
ATOM     16  C   UNL     1      32.357  -8.556 -22.004  0.00  0.00    +0.251 C 
ENDBRANCH   2  16
BRANCH   6  17
ATOM     17  O   UNL     1      32.812 -14.008 -23.027  0.00  0.00    -0.455 OA
BRANCH  17  18
ATOM     18  C   UNL     1      34.096 -14.506 -23.384  0.00  0.00    +0.238 C 
BRANCH  18  21
ATOM     19  O   UNL     1      33.529 -16.243 -26.588  0.00  0.00    -0.358 OA
ATOM     20  N   UNL     1      33.998 -17.314 -25.837  0.00  0.00    -0.078 NA
ATOM     21  C   UNL     1      33.955 -15.433 -24.555  0.00  0.00    +0.075 A 
ATOM     22  C   UNL     1      34.246 -16.806 -24.627  0.00  0.00    +0.122 A 
ATOM     23  C   UNL     1      33.507 -15.129 -25.813  0.00  0.00    +0.154 A 
ATOM     24  C   UNL     1      33.033 -13.895 -26.456  0.00  0.00    +0.075 C 
BRANCH  22  26
ATOM     25  F   UNL     1      36.212 -20.064 -20.562  0.00  0.00    -0.204 F 
ATOM     26  C   UNL     1      34.754 -17.648 -23.576  0.00  0.00    +0.021 C 
ATOM     27  C   UNL     1      35.449 -17.085 -22.506  0.00  0.00    +0.004 C 
ATOM     28  C   UNL     1      34.551 -19.028 -23.628  0.00  0.00    +0.004 C 
ATOM     29  C   UNL     1      35.941 -17.901 -21.488  0.00  0.00    +0.030 C 
ATOM     30  C   UNL     1      35.044 -19.844 -22.609  0.00  0.00    +0.030 C 
ATOM     31  C   UNL     1      35.739 -19.281 -21.540  0.00  0.00    +0.140 C 
ENDBRANCH  22  26
ENDBRANCH  18  21
ENDBRANCH  17  18
ENDBRANCH   6  17
TORSDOF 5
ENDMDL
