MODEL 1
REMARK VINA RESULT:     -12.1      0.000      0.000
REMARK  Name = 100472
REMARK  3 active torsions:
REMARK  status: ('A' for Active; 'I' for Inactive)
REMARK    1  A    between atoms: C_1  and  C_13
REMARK    2  A    between atoms: C_2  and  C_7
REMARK    3  A    between atoms: C_13  and  C_16
REMARK                            x       y       z     vdW  Elec       q    Type
REMARK                         _______ _______ _______ _____ _____    ______ ____
ROOT
ATOM      1  C   UNL     1      34.657 -21.821 -19.437  0.00  0.00    -0.013 C 
ATOM      2  C   UNL     1      34.756 -19.831 -21.390  0.00  0.00    -0.000 C 
ATOM      3  C   UNL     1      35.888 -21.324 -19.865  0.00  0.00    -0.004 C 
ATOM      4  C   UNL     1      33.475 -21.323 -19.986  0.00  0.00    -0.004 C 
ATOM      5  C   UNL     1      35.938 -20.329 -20.841  0.00  0.00    -0.000 C 
ATOM      6  C   UNL     1      33.524 -20.328 -20.962  0.00  0.00    -0.000 C 
ENDROOT
BRANCH   2   7
ATOM      7  C   UNL     1      34.807 -18.800 -22.404  0.00  0.00    -0.000 C 
ATOM      8  C   UNL     1      34.361 -19.070 -23.697  0.00  0.00    -0.000 C 
ATOM      9  C   UNL     1      35.302 -17.535 -22.087  0.00  0.00    -0.000 C 
ATOM     10  C   UNL     1      34.409 -18.075 -24.674  0.00  0.00    +0.000 C 
ATOM     11  C   UNL     1      35.351 -16.540 -23.063  0.00  0.00    +0.000 C 
ATOM     12  C   UNL     1      34.904 -16.811 -24.357  0.00  0.00    +0.000 C 
ENDBRANCH   2   7
BRANCH   1  13
ATOM     13  C   UNL     1      34.604 -22.884 -18.392  0.00  0.00    +0.112 C 
BRANCH  13  16
ATOM     14  O   UNL     1      32.230 -22.530 -18.170  0.00  0.00    -0.274 OA
ATOM     15  N   UNL     1      33.391 -23.645 -16.460  0.00  0.00    -0.269 N 
ATOM     16  C   UNL     1      33.258 -22.987 -17.680  0.00  0.00    +0.232 C 
ATOM     17  H   UNL     1      34.298 -23.946 -16.223  0.00  0.00    +0.156 HD
ATOM     18  N   UNL     1      32.719 -24.583 -14.395  0.00  0.00    -0.229 NA
ATOM     19  C   UNL     1      32.372 -23.932 -15.519  0.00  0.00    +0.134 C 
ATOM     20  C   UNL     1      31.096 -23.519 -15.837  0.00  0.00    +0.034 C 
ATOM     21  C   UNL     1      30.089 -23.797 -14.921  0.00  0.00    +0.004 C 
ATOM     22  C   UNL     1      30.395 -24.468 -13.742  0.00  0.00    +0.021 C 
ATOM     23  C   UNL     1      31.713 -24.837 -13.529  0.00  0.00    +0.100 C 
ENDBRANCH  13  16
ENDBRANCH   1  13
TORSDOF 3
ENDMDL
MODEL 2
REMARK VINA RESULT:     -11.8      2.325      2.964
REMARK  Name = 100472
REMARK  3 active torsions:
REMARK  status: ('A' for Active; 'I' for Inactive)
REMARK    1  A    between atoms: C_1  and  C_13
REMARK    2  A    between atoms: C_2  and  C_7
REMARK    3  A    between atoms: C_13  and  C_16
REMARK                            x       y       z     vdW  Elec       q    Type
REMARK                         _______ _______ _______ _____ _____    ______ ____
ROOT
ATOM      1  C   UNL     1      34.197 -22.151 -19.076  0.00  0.00    -0.013 C 
ATOM      2  C   UNL     1      34.567 -20.170 -21.006  0.00  0.00    -0.000 C 
ATOM      3  C   UNL     1      33.094 -21.499 -19.628  0.00  0.00    -0.004 C 
ATOM      4  C   UNL     1      35.486 -21.811 -19.489  0.00  0.00    -0.004 C 
ATOM      5  C   UNL     1      33.279 -20.509 -20.593  0.00  0.00    -0.000 C 
ATOM      6  C   UNL     1      35.671 -20.821 -20.454  0.00  0.00    -0.000 C 
ENDROOT
BRANCH   2   7
ATOM      7  C   UNL     1      34.760 -19.142 -22.006  0.00  0.00    -0.000 C 
ATOM      8  C   UNL     1      34.377 -19.374 -23.327  0.00  0.00    -0.000 C 
ATOM      9  C   UNL     1      35.328 -17.920 -21.649  0.00  0.00    -0.000 C 
ATOM     10  C   UNL     1      34.562 -18.383 -24.291  0.00  0.00    +0.000 C 
ATOM     11  C   UNL     1      35.513 -16.928 -22.613  0.00  0.00    +0.000 C 
ATOM     12  C   UNL     1      35.129 -17.161 -23.934  0.00  0.00    +0.000 C 
ENDBRANCH   2   7
BRANCH   1  13
ATOM     13  C   UNL     1      33.999 -23.209 -18.044  0.00  0.00    +0.112 C 
BRANCH  13  16
ATOM     14  O   UNL     1      36.140 -22.711 -17.054  0.00  0.00    -0.274 OA
ATOM     15  N   UNL     1      34.450 -23.656 -15.724  0.00  0.00    -0.269 N 
ATOM     16  C   UNL     1      35.006 -23.154 -16.898  0.00  0.00    +0.232 C 
ATOM     17  H   UNL     1      33.519 -23.971 -15.783  0.00  0.00    +0.156 HD
ATOM     18  N   UNL     1      34.347 -24.286 -13.447  0.00  0.00    -0.229 NA
ATOM     19  C   UNL     1      35.069 -23.768 -14.456  0.00  0.00    +0.134 C 
ATOM     20  C   UNL     1      36.372 -23.329 -14.358  0.00  0.00    +0.034 C 
ATOM     21  C   UNL     1      36.988 -23.433 -13.116  0.00  0.00    +0.004 C 
ATOM     22  C   UNL     1      36.285 -23.963 -12.039  0.00  0.00    +0.021 C 
ATOM     23  C   UNL     1      34.979 -24.370 -12.255  0.00  0.00    +0.100 C 
ENDBRANCH  13  16
ENDBRANCH   1  13
TORSDOF 3
ENDMDL
MODEL 3
REMARK VINA RESULT:     -11.7      3.100      3.820
REMARK  Name = 100472
REMARK  3 active torsions:
REMARK  status: ('A' for Active; 'I' for Inactive)
REMARK    1  A    between atoms: C_1  and  C_13
REMARK    2  A    between atoms: C_2  and  C_7
REMARK    3  A    between atoms: C_13  and  C_16
REMARK                            x       y       z     vdW  Elec       q    Type
REMARK                         _______ _______ _______ _____ _____    ______ ____
ROOT
ATOM      1  C   UNL     1      33.995 -22.733 -18.157  0.00  0.00    -0.013 C 
ATOM      2  C   UNL     1      34.686 -20.934 -20.174  0.00  0.00    -0.000 C 
ATOM      3  C   UNL     1      35.338 -22.477 -18.433  0.00  0.00    -0.004 C 
ATOM      4  C   UNL     1      32.998 -22.090 -18.889  0.00  0.00    -0.004 C 
ATOM      5  C   UNL     1      35.684 -21.577 -19.441  0.00  0.00    -0.000 C 
ATOM      6  C   UNL     1      33.343 -21.190 -19.898  0.00  0.00    -0.000 C 
ENDROOT
BRANCH   2   7
ATOM      7  C   UNL     1      35.044 -20.001 -21.221  0.00  0.00    -0.000 C 
ATOM      8  C   UNL     1      36.220 -19.258 -21.121  0.00  0.00    -0.000 C 
ATOM      9  C   UNL     1      34.212 -19.846 -22.329  0.00  0.00    -0.000 C 
ATOM     10  C   UNL     1      36.565 -18.359 -22.130  0.00  0.00    +0.000 C 
ATOM     11  C   UNL     1      34.557 -18.947 -23.340  0.00  0.00    +0.000 C 
ATOM     12  C   UNL     1      35.734 -18.204 -23.239  0.00  0.00    +0.000 C 
ENDBRANCH   2   7
BRANCH   1  13
ATOM     13  C   UNL     1      33.626 -23.695 -17.078  0.00  0.00    +0.112 C 
BRANCH  13  16
ATOM     14  O   UNL     1      34.748 -22.738 -15.172  0.00  0.00    -0.274 OA
ATOM     15  N   UNL     1      35.246 -24.943 -15.810  0.00  0.00    -0.269 N 
ATOM     16  C   UNL     1      34.600 -23.712 -15.903  0.00  0.00    +0.232 C 
ATOM     17  H   UNL     1      35.002 -25.614 -16.487  0.00  0.00    +0.156 HD
ATOM     18  N   UNL     1      36.713 -26.584 -14.947  0.00  0.00    -0.229 NA
ATOM     19  C   UNL     1      36.212 -25.340 -14.856  0.00  0.00    +0.134 C 
ATOM     20  C   UNL     1      36.562 -24.410 -13.900  0.00  0.00    +0.034 C 
ATOM     21  C   UNL     1      37.510 -24.791 -12.957  0.00  0.00    +0.004 C 
ATOM     22  C   UNL     1      38.060 -26.067 -13.008  0.00  0.00    +0.021 C 
ATOM     23  C   UNL     1      37.631 -26.919 -14.013  0.00  0.00    +0.100 C 
ENDBRANCH  13  16
ENDBRANCH   1  13
TORSDOF 3
ENDMDL
MODEL 4
REMARK VINA RESULT:     -11.7      1.437      2.104
REMARK  Name = 100472
REMARK  3 active torsions:
REMARK  status: ('A' for Active; 'I' for Inactive)
REMARK    1  A    between atoms: C_1  and  C_13
REMARK    2  A    between atoms: C_2  and  C_7
REMARK    3  A    between atoms: C_13  and  C_16
REMARK                            x       y       z     vdW  Elec       q    Type
REMARK                         _______ _______ _______ _____ _____    ______ ____
ROOT
ATOM      1  C   UNL     1      34.369 -22.397 -19.346  0.00  0.00    -0.013 C 
ATOM      2  C   UNL     1      34.714 -20.116 -20.917  0.00  0.00    -0.000 C 
ATOM      3  C   UNL     1      33.256 -21.721 -19.850  0.00  0.00    -0.004 C 
ATOM      4  C   UNL     1      35.653 -21.931 -19.627  0.00  0.00    -0.004 C 
ATOM      5  C   UNL     1      33.429 -20.582 -20.635  0.00  0.00    -0.000 C 
ATOM      6  C   UNL     1      35.826 -20.792 -20.413  0.00  0.00    -0.000 C 
ENDROOT
BRANCH   2   7
ATOM      7  C   UNL     1      34.893 -18.934 -21.731  0.00  0.00    -0.000 C 
ATOM      8  C   UNL     1      34.727 -19.007 -23.113  0.00  0.00    -0.000 C 
ATOM      9  C   UNL     1      35.232 -17.721 -21.132  0.00  0.00    -0.000 C 
ATOM     10  C   UNL     1      34.899 -17.866 -23.898  0.00  0.00    +0.000 C 
ATOM     11  C   UNL     1      35.404 -16.580 -21.916  0.00  0.00    +0.000 C 
ATOM     12  C   UNL     1      35.237 -16.653 -23.299  0.00  0.00    +0.000 C 
ENDBRANCH   2   7
BRANCH   1  13
ATOM     13  C   UNL     1      34.184 -23.615 -18.506  0.00  0.00    +0.112 C 
BRANCH  13  16
ATOM     14  O   UNL     1      33.830 -23.305 -16.142  0.00  0.00    -0.274 OA
ATOM     15  N   UNL     1      31.983 -23.290 -17.592  0.00  0.00    -0.269 N 
ATOM     16  C   UNL     1      33.332 -23.387 -17.261  0.00  0.00    +0.232 C 
ATOM     17  H   UNL     1      31.761 -23.379 -18.547  0.00  0.00    +0.156 HD
ATOM     18  N   UNL     1      29.659 -23.017 -17.247  0.00  0.00    -0.229 NA
ATOM     19  C   UNL     1      30.892 -23.078 -16.715  0.00  0.00    +0.134 C 
ATOM     20  C   UNL     1      31.187 -22.949 -15.374  0.00  0.00    +0.034 C 
ATOM     21  C   UNL     1      30.123 -22.740 -14.505  0.00  0.00    +0.004 C 
ATOM     22  C   UNL     1      28.827 -22.668 -15.004  0.00  0.00    +0.021 C 
ATOM     23  C   UNL     1      28.650 -22.812 -16.371  0.00  0.00    +0.100 C 
ENDBRANCH  13  16
ENDBRANCH   1  13
TORSDOF 3
ENDMDL
MODEL 5
REMARK VINA RESULT:     -11.6      3.706      6.335
REMARK  Name = 100472
REMARK  3 active torsions:
REMARK  status: ('A' for Active; 'I' for Inactive)
REMARK    1  A    between atoms: C_1  and  C_13
REMARK    2  A    between atoms: C_2  and  C_7
REMARK    3  A    between atoms: C_13  and  C_16
REMARK                            x       y       z     vdW  Elec       q    Type
REMARK                         _______ _______ _______ _____ _____    ______ ____
ROOT
ATOM      1  C   UNL     1      35.103 -16.968 -23.099  0.00  0.00    -0.013 C 
ATOM      2  C   UNL     1      34.045 -14.386 -23.046  0.00  0.00    -0.000 C 
ATOM      3  C   UNL     1      35.129 -16.227 -21.917  0.00  0.00    -0.004 C 
ATOM      4  C   UNL     1      34.548 -16.417 -24.255  0.00  0.00    -0.004 C 
ATOM      5  C   UNL     1      34.600 -14.937 -21.890  0.00  0.00    -0.000 C 
ATOM      6  C   UNL     1      34.019 -15.127 -24.228  0.00  0.00    -0.000 C 
ENDROOT
BRANCH   2   7
ATOM      7  C   UNL     1      33.496 -13.048 -23.018  0.00  0.00    -0.000 C 
ATOM      8  C   UNL     1      32.499 -12.721 -22.101  0.00  0.00    -0.000 C 
ATOM      9  C   UNL     1      33.966 -12.084 -23.911  0.00  0.00    -0.000 C 
ATOM     10  C   UNL     1      31.971 -11.430 -22.074  0.00  0.00    +0.000 C 
ATOM     11  C   UNL     1      33.439 -10.793 -23.884  0.00  0.00    +0.000 C 
ATOM     12  C   UNL     1      32.441 -10.467 -22.965  0.00  0.00    +0.000 C 
ENDBRANCH   2   7
BRANCH   1  13
ATOM     13  C   UNL     1      35.668 -18.347 -23.128  0.00  0.00    +0.112 C 
BRANCH  13  16
ATOM     14  O   UNL     1      33.753 -19.610 -22.387  0.00  0.00    -0.274 OA
ATOM     15  N   UNL     1      35.792 -19.839 -21.244  0.00  0.00    -0.269 N 
ATOM     16  C   UNL     1      34.938 -19.335 -22.222  0.00  0.00    +0.232 C 
ATOM     17  H   UNL     1      36.718 -19.505 -21.261  0.00  0.00    +0.156 HD
ATOM     18  N   UNL     1      36.465 -21.128 -19.379  0.00  0.00    -0.229 NA
ATOM     19  C   UNL     1      35.484 -20.774 -20.228  0.00  0.00    +0.134 C 
ATOM     20  C   UNL     1      34.191 -21.252 -20.192  0.00  0.00    +0.034 C 
ATOM     21  C   UNL     1      33.878 -22.171 -19.198  0.00  0.00    +0.004 C 
ATOM     22  C   UNL     1      34.857 -22.571 -18.295  0.00  0.00    +0.021 C 
ATOM     23  C   UNL     1      36.123 -22.025 -18.427  0.00  0.00    +0.100 C 
ENDBRANCH  13  16
ENDBRANCH   1  13
TORSDOF 3
ENDMDL
MODEL 6
REMARK VINA RESULT:     -11.6      4.051      9.298
REMARK  Name = 100472
REMARK  3 active torsions:
REMARK  status: ('A' for Active; 'I' for Inactive)
REMARK    1  A    between atoms: C_1  and  C_13
REMARK    2  A    between atoms: C_2  and  C_7
REMARK    3  A    between atoms: C_13  and  C_16
REMARK                            x       y       z     vdW  Elec       q    Type
REMARK                         _______ _______ _______ _____ _____    ______ ____
ROOT
ATOM      1  C   UNL     1      35.192 -19.927 -21.725  0.00  0.00    -0.013 C 
ATOM      2  C   UNL     1      34.613 -21.483 -19.482  0.00  0.00    -0.000 C 
ATOM      3  C   UNL     1      33.866 -20.144 -21.349  0.00  0.00    -0.004 C 
ATOM      4  C   UNL     1      36.228 -20.489 -20.979  0.00  0.00    -0.004 C 
ATOM      5  C   UNL     1      33.577 -20.921 -20.228  0.00  0.00    -0.000 C 
ATOM      6  C   UNL     1      35.939 -21.266 -19.858  0.00  0.00    -0.000 C 
ENDROOT
BRANCH   2   7
ATOM      7  C   UNL     1      34.314 -22.290 -18.319  0.00  0.00    -0.000 C 
ATOM      8  C   UNL     1      33.010 -22.729 -18.092  0.00  0.00    -0.000 C 
ATOM      9  C   UNL     1      35.330 -22.629 -17.426  0.00  0.00    -0.000 C 
ATOM     10  C   UNL     1      32.721 -23.508 -16.971  0.00  0.00    +0.000 C 
ATOM     11  C   UNL     1      35.042 -23.408 -16.305  0.00  0.00    +0.000 C 
ATOM     12  C   UNL     1      33.737 -23.847 -16.078  0.00  0.00    +0.000 C 
ENDBRANCH   2   7
BRANCH   1  13
ATOM     13  C   UNL     1      35.501 -19.096 -22.924  0.00  0.00    +0.112 C 
BRANCH  13  16
ATOM     14  O   UNL     1      35.573 -17.019 -21.702  0.00  0.00    -0.274 OA
ATOM     15  N   UNL     1      34.602 -17.061 -23.840  0.00  0.00    -0.269 N 
ATOM     16  C   UNL     1      35.239 -17.605 -22.728  0.00  0.00    +0.232 C 
ATOM     17  H   UNL     1      34.409 -17.683 -24.578  0.00  0.00    +0.156 HD
ATOM     18  N   UNL     1      33.593 -15.403 -25.192  0.00  0.00    -0.229 NA
ATOM     19  C   UNL     1      34.199 -15.718 -24.033  0.00  0.00    +0.134 C 
ATOM     20  C   UNL     1      34.465 -14.834 -23.009  0.00  0.00    +0.034 C 
ATOM     21  C   UNL     1      34.073 -13.513 -23.189  0.00  0.00    +0.004 C 
ATOM     22  C   UNL     1      33.443 -13.134 -24.369  0.00  0.00    +0.021 C 
ATOM     23  C   UNL     1      33.229 -14.108 -25.331  0.00  0.00    +0.100 C 
ENDBRANCH  13  16
ENDBRANCH   1  13
TORSDOF 3
ENDMDL
MODEL 7
REMARK VINA RESULT:     -11.6      4.272      7.238
REMARK  Name = 100472
REMARK  3 active torsions:
REMARK  status: ('A' for Active; 'I' for Inactive)
REMARK    1  A    between atoms: C_1  and  C_13
REMARK    2  A    between atoms: C_2  and  C_7
REMARK    3  A    between atoms: C_13  and  C_16
REMARK                            x       y       z     vdW  Elec       q    Type
REMARK                         _______ _______ _______ _____ _____    ______ ____
ROOT
ATOM      1  C   UNL     1      34.554 -16.381 -24.012  0.00  0.00    -0.013 C 
ATOM      2  C   UNL     1      33.551 -13.871 -23.322  0.00  0.00    -0.000 C 
ATOM      3  C   UNL     1      34.907 -15.799 -22.794  0.00  0.00    -0.004 C 
ATOM      4  C   UNL     1      33.700 -15.707 -24.884  0.00  0.00    -0.004 C 
ATOM      5  C   UNL     1      34.406 -14.545 -22.449  0.00  0.00    -0.000 C 
ATOM      6  C   UNL     1      33.198 -14.453 -24.540  0.00  0.00    -0.000 C 
ENDROOT
BRANCH   2   7
ATOM      7  C   UNL     1      33.032 -12.568 -22.964  0.00  0.00    -0.000 C 
ATOM      8  C   UNL     1      32.099 -12.448 -21.935  0.00  0.00    -0.000 C 
ATOM      9  C   UNL     1      33.464 -11.434 -23.650  0.00  0.00    -0.000 C 
ATOM     10  C   UNL     1      31.598 -11.193 -21.590  0.00  0.00    +0.000 C 
ATOM     11  C   UNL     1      32.964 -10.178 -23.305  0.00  0.00    +0.000 C 
ATOM     12  C   UNL     1      32.031 -10.058 -22.275  0.00  0.00    +0.000 C 
ENDBRANCH   2   7
BRANCH   1  13
ATOM     13  C   UNL     1      35.090 -17.723 -24.380  0.00  0.00    +0.112 C 
BRANCH  13  16
ATOM     14  O   UNL     1      36.650 -18.706 -22.827  0.00  0.00    -0.274 OA
ATOM     15  N   UNL     1      34.359 -19.168 -22.601  0.00  0.00    -0.269 N 
ATOM     16  C   UNL     1      35.482 -18.585 -23.183  0.00  0.00    +0.232 C 
ATOM     17  H   UNL     1      33.493 -18.959 -23.022  0.00  0.00    +0.156 HD
ATOM     18  N   UNL     1      33.116 -20.482 -21.077  0.00  0.00    -0.229 NA
ATOM     19  C   UNL     1      34.317 -20.027 -21.477  0.00  0.00    +0.134 C 
ATOM     20  C   UNL     1      35.521 -20.326 -20.876  0.00  0.00    +0.034 C 
ATOM     21  C   UNL     1      35.490 -21.168 -19.771  0.00  0.00    +0.004 C 
ATOM     22  C   UNL     1      34.274 -21.667 -19.317  0.00  0.00    +0.021 C 
ATOM     23  C   UNL     1      33.126 -21.297 -19.998  0.00  0.00    +0.100 C 
ENDBRANCH  13  16
ENDBRANCH   1  13
TORSDOF 3
ENDMDL
MODEL 8
REMARK VINA RESULT:     -11.5      3.088      8.784
REMARK  Name = 100472
REMARK  3 active torsions:
REMARK  status: ('A' for Active; 'I' for Inactive)
REMARK    1  A    between atoms: C_1  and  C_13
REMARK    2  A    between atoms: C_2  and  C_7
REMARK    3  A    between atoms: C_13  and  C_16
REMARK                            x       y       z     vdW  Elec       q    Type
REMARK                         _______ _______ _______ _____ _____    ______ ____
ROOT
ATOM      1  C   UNL     1      35.606 -21.626 -19.637  0.00  0.00    -0.013 C 
ATOM      2  C   UNL     1      33.858 -22.635 -17.709  0.00  0.00    -0.000 C 
ATOM      3  C   UNL     1      36.101 -22.071 -18.410  0.00  0.00    -0.004 C 
ATOM      4  C   UNL     1      34.237 -21.687 -19.899  0.00  0.00    -0.004 C 
ATOM      5  C   UNL     1      35.227 -22.575 -17.447  0.00  0.00    -0.000 C 
ATOM      6  C   UNL     1      33.363 -22.191 -18.936  0.00  0.00    -0.000 C 
ENDROOT
BRANCH   2   7
ATOM      7  C   UNL     1      32.952 -23.158 -16.709  0.00  0.00    -0.000 C 
ATOM      8  C   UNL     1      33.456 -23.726 -15.540  0.00  0.00    -0.000 C 
ATOM      9  C   UNL     1      31.575 -23.092 -16.916  0.00  0.00    -0.000 C 
ATOM     10  C   UNL     1      32.582 -24.229 -14.576  0.00  0.00    +0.000 C 
ATOM     11  C   UNL     1      30.700 -23.595 -15.952  0.00  0.00    +0.000 C 
ATOM     12  C   UNL     1      31.205 -24.163 -14.782  0.00  0.00    +0.000 C 
ENDBRANCH   2   7
BRANCH   1  13
ATOM     13  C   UNL     1      36.540 -21.087 -20.667  0.00  0.00    +0.112 C 
BRANCH  13  16
ATOM     14  O   UNL     1      36.548 -18.697 -20.355  0.00  0.00    -0.274 OA
ATOM     15  N   UNL     1      35.627 -19.596 -22.319  0.00  0.00    -0.269 N 
ATOM     16  C   UNL     1      36.248 -19.645 -21.074  0.00  0.00    +0.232 C 
ATOM     17  H   UNL     1      35.461 -20.462 -22.758  0.00  0.00    +0.156 HD
ATOM     18  N   UNL     1      34.621 -18.623 -24.226  0.00  0.00    -0.229 NA
ATOM     19  C   UNL     1      35.205 -18.446 -23.028  0.00  0.00    +0.134 C 
ATOM     20  C   UNL     1      35.433 -17.226 -22.427  0.00  0.00    +0.034 C 
ATOM     21  C   UNL     1      35.023 -16.090 -23.115  0.00  0.00    +0.004 C 
ATOM     22  C   UNL     1      34.414 -16.218 -24.359  0.00  0.00    +0.021 C 
ATOM     23  C   UNL     1      34.238 -17.496 -24.866  0.00  0.00    +0.100 C 
ENDBRANCH  13  16
ENDBRANCH   1  13
TORSDOF 3
ENDMDL
MODEL 9
REMARK VINA RESULT:     -11.3      3.137      8.906
REMARK  Name = 100472
REMARK  3 active torsions:
REMARK  status: ('A' for Active; 'I' for Inactive)
REMARK    1  A    between atoms: C_1  and  C_13
REMARK    2  A    between atoms: C_2  and  C_7
REMARK    3  A    between atoms: C_13  and  C_16
REMARK                            x       y       z     vdW  Elec       q    Type
REMARK                         _______ _______ _______ _____ _____    ______ ____
ROOT
ATOM      1  C   UNL     1      35.716 -21.683 -19.754  0.00  0.00    -0.013 C 
ATOM      2  C   UNL     1      34.208 -22.746 -17.661  0.00  0.00    -0.000 C 
ATOM      3  C   UNL     1      34.355 -21.933 -19.932  0.00  0.00    -0.004 C 
ATOM      4  C   UNL     1      36.323 -21.965 -18.530  0.00  0.00    -0.004 C 
ATOM      5  C   UNL     1      33.601 -22.464 -18.885  0.00  0.00    -0.000 C 
ATOM      6  C   UNL     1      35.569 -22.496 -17.484  0.00  0.00    -0.000 C 
ENDROOT
BRANCH   2   7
ATOM      7  C   UNL     1      33.426 -23.297 -16.576  0.00  0.00    -0.000 C 
ATOM      8  C   UNL     1      34.063 -23.800 -15.442  0.00  0.00    -0.000 C 
ATOM      9  C   UNL     1      32.034 -23.326 -16.664  0.00  0.00    -0.000 C 
ATOM     10  C   UNL     1      33.310 -24.331 -14.395  0.00  0.00    +0.000 C 
ATOM     11  C   UNL     1      31.280 -23.856 -15.617  0.00  0.00    +0.000 C 
ATOM     12  C   UNL     1      31.919 -24.359 -14.483  0.00  0.00    +0.000 C 
ENDBRANCH   2   7
BRANCH   1  13
ATOM     13  C   UNL     1      36.522 -21.115 -20.873  0.00  0.00    +0.112 C 
BRANCH  13  16
ATOM     14  O   UNL     1      36.513 -18.759 -20.361  0.00  0.00    -0.274 OA
ATOM     15  N   UNL     1      35.632 -19.493 -22.411  0.00  0.00    -0.269 N 
ATOM     16  C   UNL     1      36.231 -19.645 -21.163  0.00  0.00    +0.232 C 
ATOM     17  H   UNL     1      35.479 -20.319 -22.923  0.00  0.00    +0.156 HD
ATOM     18  N   UNL     1      34.656 -18.367 -24.247  0.00  0.00    -0.229 NA
ATOM     19  C   UNL     1      35.218 -18.289 -23.028  0.00  0.00    +0.134 C 
ATOM     20  C   UNL     1      35.428 -17.123 -22.323  0.00  0.00    +0.034 C 
ATOM     21  C   UNL     1      35.025 -15.934 -22.921  0.00  0.00    +0.004 C 
ATOM     22  C   UNL     1      34.439 -15.960 -24.181  0.00  0.00    +0.021 C 
ATOM     23  C   UNL     1      34.279 -17.191 -24.797  0.00  0.00    +0.100 C 
ENDBRANCH  13  16
ENDBRANCH   1  13
TORSDOF 3
ENDMDL
