MODEL 1
REMARK VINA RESULT:     -11.6      0.000      0.000
REMARK  Name = 42627755
REMARK  2 active torsions:
REMARK  status: ('A' for Active; 'I' for Inactive)
REMARK    1  A    between atoms: N_5  and  C_20
REMARK    2  A    between atoms: C_7  and  C_28
REMARK                            x       y       z     vdW  Elec       q    Type
REMARK                         _______ _______ _______ _____ _____    ______ ____
ROOT
ATOM      1  N   UNL     1      35.542 -21.887 -19.224  0.00  0.00    -0.239 N 
ATOM      2  N   UNL     1      34.854 -22.493 -18.243  0.00  0.00    -0.166 NA
ATOM      3  N   UNL     1      32.453 -22.643 -17.831  0.00  0.00    -0.271 N 
ATOM      4  N   UNL     1      33.408 -23.870 -16.027  0.00  0.00    -0.322 NA
ATOM      5  N   UNL     1      34.304 -25.085 -14.237  0.00  0.00    -0.247 N 
ATOM      6  N   UNL     1      31.975 -24.880 -14.374  0.00  0.00    -0.170 NA
ATOM      7  C   UNL     1      34.754 -21.249 -20.137  0.00  0.00    +0.045 C 
ATOM      8  C   UNL     1      33.461 -21.455 -19.724  0.00  0.00    +0.048 C 
ATOM      9  C   UNL     1      33.583 -22.226 -18.553  0.00  0.00    +0.152 C 
ATOM     10  C   UNL     1      32.303 -23.408 -16.648  0.00  0.00    +0.199 C 
ATOM     11  C   UNL     1      31.019 -23.638 -16.199  0.00  0.00    +0.070 C 
ATOM     12  C   UNL     1      33.174 -24.588 -14.911  0.00  0.00    +0.150 C 
ATOM     13  C   UNL     1      30.914 -24.386 -15.045  0.00  0.00    +0.116 C 
ATOM     14  H   UNL     1      36.526 -21.901 -19.281  0.00  0.00    +0.174 HD
ATOM     15  H   UNL     1      31.600 -22.345 -18.222  0.00  0.00    +0.156 HD
ATOM     16  H   UNL     1      34.086 -25.604 -13.429  0.00  0.00    +0.165 HD
ENDROOT
BRANCH   5  20
ATOM     17  N   UNL     1      38.941 -26.786 -14.395  0.00  0.00    -0.315 N 
ATOM     18  N   UNL     1      39.782 -24.886 -15.186  0.00  0.00    -0.315 N 
ATOM     19  C   UNL     1      37.873 -25.936 -14.517  0.00  0.00    +0.060 C 
ATOM     20  C   UNL     1      35.691 -24.987 -14.494  0.00  0.00    +0.059 C 
ATOM     21  C   UNL     1      38.423 -24.757 -15.012  0.00  0.00    +0.059 C 
ATOM     22  C   UNL     1      36.513 -26.091 -14.245  0.00  0.00    +0.031 C 
ATOM     23  C   UNL     1      36.213 -23.792 -14.991  0.00  0.00    +0.017 C 
ATOM     24  C   UNL     1      37.582 -23.658 -15.257  0.00  0.00    +0.017 C 
ATOM     25  C   UNL     1      40.059 -26.113 -14.806  0.00  0.00    +0.182 C 
ATOM     26  H   UNL     1      38.910 -27.714 -14.070  0.00  0.00    +0.148 HD
ATOM     27  H   UNL     1      40.410 -24.207 -15.522  0.00  0.00    +0.148 HD
ENDBRANCH   5  20
BRANCH   7  28
ATOM     28  C   UNL     1      35.222 -20.473 -21.360  0.00  0.00    +0.037 C 
ATOM     29  C   UNL     1      36.285 -19.428 -21.188  0.00  0.00    +0.006 C 
ATOM     30  C   UNL     1      34.869 -19.017 -21.468  0.00  0.00    +0.006 C 
ENDBRANCH   7  28
TORSDOF 2
ENDMDL
MODEL 2
REMARK VINA RESULT:     -11.2      1.364      6.643
REMARK  Name = 42627755
REMARK  2 active torsions:
REMARK  status: ('A' for Active; 'I' for Inactive)
REMARK    1  A    between atoms: N_5  and  C_20
REMARK    2  A    between atoms: C_7  and  C_28
REMARK                            x       y       z     vdW  Elec       q    Type
REMARK                         _______ _______ _______ _____ _____    ______ ____
ROOT
ATOM      1  N   UNL     1      37.463 -24.207 -15.468  0.00  0.00    -0.239 N 
ATOM      2  N   UNL     1      36.129 -24.124 -15.601  0.00  0.00    -0.166 NA
ATOM      3  N   UNL     1      34.326 -25.022 -14.221  0.00  0.00    -0.271 N 
ATOM      4  N   UNL     1      33.179 -23.888 -15.973  0.00  0.00    -0.322 NA
ATOM      5  N   UNL     1      32.010 -22.786 -17.676  0.00  0.00    -0.247 N 
ATOM      6  N   UNL     1      30.770 -23.868 -16.011  0.00  0.00    -0.170 NA
ATOM      7  C   UNL     1      37.865 -24.917 -14.374  0.00  0.00    +0.045 C 
ATOM      8  C   UNL     1      36.712 -25.325 -13.749  0.00  0.00    +0.048 C 
ATOM      9  C   UNL     1      35.675 -24.810 -14.548  0.00  0.00    +0.152 C 
ATOM     10  C   UNL     1      33.118 -24.622 -14.842  0.00  0.00    +0.199 C 
ATOM     11  C   UNL     1      31.937 -25.012 -14.245  0.00  0.00    +0.070 C 
ATOM     12  C   UNL     1      31.984 -23.551 -16.496  0.00  0.00    +0.150 C 
ATOM     13  C   UNL     1      30.782 -24.603 -14.879  0.00  0.00    +0.116 C 
ATOM     14  H   UNL     1      38.094 -23.793 -16.101  0.00  0.00    +0.174 HD
ATOM     15  H   UNL     1      34.195 -25.553 -13.403  0.00  0.00    +0.156 HD
ATOM     16  H   UNL     1      31.116 -22.562 -18.022  0.00  0.00    +0.165 HD
ENDROOT
BRANCH   5  20
ATOM     17  N   UNL     1      33.954 -20.048 -21.302  0.00  0.00    -0.315 N 
ATOM     18  N   UNL     1      36.044 -20.670 -20.871  0.00  0.00    -0.315 N 
ATOM     19  C   UNL     1      33.867 -20.911 -20.241  0.00  0.00    +0.060 C 
ATOM     20  C   UNL     1      33.069 -22.274 -18.461  0.00  0.00    +0.059 C 
ATOM     21  C   UNL     1      35.184 -21.285 -19.990  0.00  0.00    +0.059 C 
ATOM     22  C   UNL     1      32.782 -21.382 -19.500  0.00  0.00    +0.031 C 
ATOM     23  C   UNL     1      34.379 -22.668 -18.185  0.00  0.00    +0.017 C 
ATOM     24  C   UNL     1      35.453 -22.182 -18.942  0.00  0.00    +0.017 C 
ATOM     25  C   UNL     1      35.274 -19.937 -21.643  0.00  0.00    +0.182 C 
ATOM     26  H   UNL     1      33.201 -19.590 -21.741  0.00  0.00    +0.148 HD
ATOM     27  H   UNL     1      37.023 -20.760 -20.913  0.00  0.00    +0.148 HD
ENDBRANCH   5  20
BRANCH   7  28
ATOM     28  C   UNL     1      39.299 -25.194 -13.945  0.00  0.00    +0.037 C 
ATOM     29  C   UNL     1      40.357 -25.321 -15.001  0.00  0.00    +0.006 C 
ATOM     30  C   UNL     1      39.897 -26.536 -14.251  0.00  0.00    +0.006 C 
ENDBRANCH   7  28
TORSDOF 2
ENDMDL
MODEL 3
REMARK VINA RESULT:     -11.2      1.919      5.528
REMARK  Name = 42627755
REMARK  2 active torsions:
REMARK  status: ('A' for Active; 'I' for Inactive)
REMARK    1  A    between atoms: N_5  and  C_20
REMARK    2  A    between atoms: C_7  and  C_28
REMARK                            x       y       z     vdW  Elec       q    Type
REMARK                         _______ _______ _______ _____ _____    ______ ____
ROOT
ATOM      1  N   UNL     1      34.223 -22.163 -18.840  0.00  0.00    -0.239 N 
ATOM      2  N   UNL     1      34.534 -22.659 -17.631  0.00  0.00    -0.166 NA
ATOM      3  N   UNL     1      36.676 -22.812 -16.469  0.00  0.00    -0.271 N 
ATOM      4  N   UNL     1      35.136 -23.781 -14.933  0.00  0.00    -0.322 NA
ATOM      5  N   UNL     1      33.656 -24.742 -13.393  0.00  0.00    -0.247 N 
ATOM      6  N   UNL     1      35.920 -24.609 -12.811  0.00  0.00    -0.170 NA
ATOM      7  C   UNL     1      35.293 -21.665 -19.524  0.00  0.00    +0.045 C 
ATOM      8  C   UNL     1      36.380 -21.848 -18.703  0.00  0.00    +0.048 C 
ATOM      9  C   UNL     1      35.854 -22.465 -17.553  0.00  0.00    +0.152 C 
ATOM     10  C   UNL     1      36.405 -23.427 -15.222  0.00  0.00    +0.199 C 
ATOM     11  C   UNL     1      37.470 -23.628 -14.368  0.00  0.00    +0.070 C 
ATOM     12  C   UNL     1      34.967 -24.359 -13.728  0.00  0.00    +0.150 C 
ATOM     13  C   UNL     1      37.166 -24.230 -13.165  0.00  0.00    +0.116 C 
ATOM     14  H   UNL     1      33.306 -22.159 -19.200  0.00  0.00    +0.174 HD
ATOM     15  H   UNL     1      37.624 -22.584 -16.601  0.00  0.00    +0.156 HD
ATOM     16  H   UNL     1      33.580 -25.159 -12.505  0.00  0.00    +0.165 HD
ENDROOT
BRANCH   5  20
ATOM     17  N   UNL     1      30.560 -22.832 -16.737  0.00  0.00    -0.315 N 
ATOM     18  N   UNL     1      28.891 -24.205 -16.214  0.00  0.00    -0.315 N 
ATOM     19  C   UNL     1      31.043 -23.629 -15.733  0.00  0.00    +0.060 C 
ATOM     20  C   UNL     1      32.426 -24.644 -14.083  0.00  0.00    +0.059 C 
ATOM     21  C   UNL     1      29.984 -24.477 -15.423  0.00  0.00    +0.059 C 
ATOM     22  C   UNL     1      32.279 -23.680 -15.087  0.00  0.00    +0.031 C 
ATOM     23  C   UNL     1      31.382 -25.508 -13.750  0.00  0.00    +0.017 C 
ATOM     24  C   UNL     1      30.149 -25.440 -14.412  0.00  0.00    +0.017 C 
ATOM     25  C   UNL     1      29.271 -23.214 -16.990  0.00  0.00    +0.182 C 
ATOM     26  H   UNL     1      31.051 -22.113 -17.196  0.00  0.00    +0.148 HD
ATOM     27  H   UNL     1      28.016 -24.655 -16.202  0.00  0.00    +0.148 HD
ENDBRANCH   5  20
BRANCH   7  28
ATOM     28  C   UNL     1      35.276 -21.038 -20.911  0.00  0.00    +0.037 C 
ATOM     29  C   UNL     1      35.775 -19.632 -21.073  0.00  0.00    +0.006 C 
ATOM     30  C   UNL     1      34.307 -19.925 -21.186  0.00  0.00    +0.006 C 
ENDBRANCH   7  28
TORSDOF 2
ENDMDL
MODEL 4
REMARK VINA RESULT:     -11.0      1.976      6.962
REMARK  Name = 42627755
REMARK  2 active torsions:
REMARK  status: ('A' for Active; 'I' for Inactive)
REMARK    1  A    between atoms: N_5  and  C_20
REMARK    2  A    between atoms: C_7  and  C_28
REMARK                            x       y       z     vdW  Elec       q    Type
REMARK                         _______ _______ _______ _____ _____    ______ ____
ROOT
ATOM      1  N   UNL     1      30.890 -23.086 -17.070  0.00  0.00    -0.239 N 
ATOM      2  N   UNL     1      32.211 -23.121 -16.831  0.00  0.00    -0.166 NA
ATOM      3  N   UNL     1      33.478 -24.112 -14.994  0.00  0.00    -0.271 N 
ATOM      4  N   UNL     1      35.160 -23.153 -16.380  0.00  0.00    -0.322 NA
ATOM      5  N   UNL     1      36.847 -22.225 -17.713  0.00  0.00    -0.247 N 
ATOM      6  N   UNL     1      37.479 -23.340 -15.753  0.00  0.00    -0.170 NA
ATOM      7  C   UNL     1      30.140 -23.711 -16.117  0.00  0.00    +0.045 C 
ATOM      8  C   UNL     1      31.035 -24.190 -15.191  0.00  0.00    +0.048 C 
ATOM      9  C   UNL     1      32.294 -23.796 -15.681  0.00  0.00    +0.152 C 
ATOM     10  C   UNL     1      34.841 -23.841 -15.264  0.00  0.00    +0.199 C 
ATOM     11  C   UNL     1      35.773 -24.305 -14.358  0.00  0.00    +0.070 C 
ATOM     12  C   UNL     1      36.478 -22.941 -16.560  0.00  0.00    +0.150 C 
ATOM     13  C   UNL     1      37.089 -24.022 -14.656  0.00  0.00    +0.116 C 
ATOM     14  H   UNL     1      30.498 -22.649 -17.861  0.00  0.00    +0.174 HD
ATOM     15  H   UNL     1      33.330 -24.618 -14.163  0.00  0.00    +0.156 HD
ATOM     16  H   UNL     1      37.818 -22.094 -17.804  0.00  0.00    +0.165 HD
ENDROOT
BRANCH   5  20
ATOM     17  N   UNL     1      36.170 -19.296 -21.635  0.00  0.00    -0.315 N 
ATOM     18  N   UNL     1      34.047 -19.890 -21.915  0.00  0.00    -0.315 N 
ATOM     19  C   UNL     1      35.911 -20.204 -20.642  0.00  0.00    +0.060 C 
ATOM     20  C   UNL     1      36.095 -21.659 -18.768  0.00  0.00    +0.059 C 
ATOM     21  C   UNL     1      34.580 -20.561 -20.838  0.00  0.00    +0.059 C 
ATOM     22  C   UNL     1      36.701 -20.730 -19.620  0.00  0.00    +0.031 C 
ATOM     23  C   UNL     1      34.762 -22.036 -18.939  0.00  0.00    +0.017 C 
ATOM     24  C   UNL     1      33.986 -21.496 -19.973  0.00  0.00    +0.017 C 
ATOM     25  C   UNL     1      35.027 -19.141 -22.369  0.00  0.00    +0.182 C 
ATOM     26  H   UNL     1      37.027 -18.837 -21.792  0.00  0.00    +0.148 HD
ATOM     27  H   UNL     1      33.131 -19.958 -22.270  0.00  0.00    +0.148 HD
ENDBRANCH   5  20
BRANCH   7  28
ATOM     28  C   UNL     1      28.624 -23.846 -16.094  0.00  0.00    +0.037 C 
ATOM     29  C   UNL     1      27.823 -23.158 -17.159  0.00  0.00    +0.006 C 
ATOM     30  C   UNL     1      27.799 -22.639 -15.751  0.00  0.00    +0.006 C 
ENDBRANCH   7  28
TORSDOF 2
ENDMDL
MODEL 5
REMARK VINA RESULT:     -10.7      1.435      6.204
REMARK  Name = 42627755
REMARK  2 active torsions:
REMARK  status: ('A' for Active; 'I' for Inactive)
REMARK    1  A    between atoms: N_5  and  C_20
REMARK    2  A    between atoms: C_7  and  C_28
REMARK                            x       y       z     vdW  Elec       q    Type
REMARK                         _______ _______ _______ _____ _____    ______ ____
ROOT
ATOM      1  N   UNL     1      37.419 -24.223 -15.474  0.00  0.00    -0.239 N 
ATOM      2  N   UNL     1      36.081 -24.155 -15.560  0.00  0.00    -0.166 NA
ATOM      3  N   UNL     1      34.337 -25.079 -14.122  0.00  0.00    -0.271 N 
ATOM      4  N   UNL     1      33.117 -23.953 -15.828  0.00  0.00    -0.322 NA
ATOM      5  N   UNL     1      31.876 -22.858 -17.485  0.00  0.00    -0.247 N 
ATOM      6  N   UNL     1      30.708 -23.960 -15.782  0.00  0.00    -0.170 NA
ATOM      7  C   UNL     1      37.868 -24.931 -14.398  0.00  0.00    +0.045 C 
ATOM      8  C   UNL     1      36.742 -25.355 -13.734  0.00  0.00    +0.048 C 
ATOM      9  C   UNL     1      35.672 -24.850 -14.494  0.00  0.00    +0.152 C 
ATOM     10  C   UNL     1      33.104 -24.691 -14.699  0.00  0.00    +0.199 C 
ATOM     11  C   UNL     1      31.949 -25.096 -14.062  0.00  0.00    +0.070 C 
ATOM     12  C   UNL     1      31.901 -23.627 -16.308  0.00  0.00    +0.150 C 
ATOM     13  C   UNL     1      30.768 -24.699 -14.654  0.00  0.00    +0.116 C 
ATOM     14  H   UNL     1      38.023 -23.800 -16.128  0.00  0.00    +0.174 HD
ATOM     15  H   UNL     1      34.241 -25.613 -13.301  0.00  0.00    +0.156 HD
ATOM     16  H   UNL     1      30.968 -22.644 -17.799  0.00  0.00    +0.165 HD
ENDROOT
BRANCH   5  20
ATOM     17  N   UNL     1      36.575 -22.078 -18.801  0.00  0.00    -0.315 N 
ATOM     18  N   UNL     1      36.043 -20.869 -20.588  0.00  0.00    -0.315 N 
ATOM     19  C   UNL     1      35.206 -22.036 -18.819  0.00  0.00    +0.060 C 
ATOM     20  C   UNL     1      32.901 -22.332 -18.305  0.00  0.00    +0.059 C 
ATOM     21  C   UNL     1      34.898 -21.276 -19.944  0.00  0.00    +0.059 C 
ATOM     22  C   UNL     1      34.238 -22.581 -17.975  0.00  0.00    +0.031 C 
ATOM     23  C   UNL     1      32.561 -21.573 -19.426  0.00  0.00    +0.017 C 
ATOM     24  C   UNL     1      33.549 -21.036 -20.261  0.00  0.00    +0.017 C 
ATOM     25  C   UNL     1      37.030 -21.366 -19.877  0.00  0.00    +0.182 C 
ATOM     26  H   UNL     1      37.133 -22.538 -18.133  0.00  0.00    +0.148 HD
ATOM     27  H   UNL     1      36.110 -20.323 -21.405  0.00  0.00    +0.148 HD
ENDBRANCH   5  20
BRANCH   7  28
ATOM     28  C   UNL     1      39.319 -25.193 -14.019  0.00  0.00    +0.037 C 
ATOM     29  C   UNL     1      40.337 -25.327 -15.113  0.00  0.00    +0.006 C 
ATOM     30  C   UNL     1      39.914 -26.536 -14.331  0.00  0.00    +0.006 C 
ENDBRANCH   7  28
TORSDOF 2
ENDMDL
MODEL 6
REMARK VINA RESULT:     -10.4      1.804      6.949
REMARK  Name = 42627755
REMARK  2 active torsions:
REMARK  status: ('A' for Active; 'I' for Inactive)
REMARK    1  A    between atoms: N_5  and  C_20
REMARK    2  A    between atoms: C_7  and  C_28
REMARK                            x       y       z     vdW  Elec       q    Type
REMARK                         _______ _______ _______ _____ _____    ______ ____
ROOT
ATOM      1  N   UNL     1      36.302 -24.321 -14.223  0.00  0.00    -0.239 N 
ATOM      2  N   UNL     1      35.728 -23.775 -15.308  0.00  0.00    -0.166 NA
ATOM      3  N   UNL     1      36.712 -22.699 -17.266  0.00  0.00    -0.271 N 
ATOM      4  N   UNL     1      34.371 -22.587 -17.684  0.00  0.00    -0.322 NA
ATOM      5  N   UNL     1      32.077 -22.454 -18.135  0.00  0.00    -0.247 N 
ATOM      6  N   UNL     1      33.562 -21.559 -19.707  0.00  0.00    -0.170 NA
ATOM      7  C   UNL     1      37.664 -24.255 -14.228  0.00  0.00    +0.045 C 
ATOM      8  C   UNL     1      38.005 -23.623 -15.399  0.00  0.00    +0.048 C 
ATOM      9  C   UNL     1      36.774 -23.349 -16.023  0.00  0.00    +0.152 C 
ATOM     10  C   UNL     1      35.628 -22.314 -18.091  0.00  0.00    +0.199 C 
ATOM     11  C   UNL     1      35.927 -21.677 -19.278  0.00  0.00    +0.070 C 
ATOM     12  C   UNL     1      33.400 -22.187 -18.528  0.00  0.00    +0.150 C 
ATOM     13  C   UNL     1      34.844 -21.317 -20.053  0.00  0.00    +0.116 C 
ATOM     14  H   UNL     1      35.786 -24.731 -13.491  0.00  0.00    +0.174 HD
ATOM     15  H   UNL     1      37.594 -22.466 -17.635  0.00  0.00    +0.156 HD
ATOM     16  H   UNL     1      31.402 -22.145 -18.781  0.00  0.00    +0.165 HD
ENDROOT
BRANCH   5  20
ATOM     17  N   UNL     1      32.282 -25.113 -13.974  0.00  0.00    -0.315 N 
ATOM     18  N   UNL     1      30.096 -24.984 -13.593  0.00  0.00    -0.315 N 
ATOM     19  C   UNL     1      31.773 -24.373 -15.010  0.00  0.00    +0.060 C 
ATOM     20  C   UNL     1      31.527 -23.081 -16.993  0.00  0.00    +0.059 C 
ATOM     21  C   UNL     1      30.407 -24.307 -14.750  0.00  0.00    +0.059 C 
ATOM     22  C   UNL     1      32.371 -23.775 -16.119  0.00  0.00    +0.031 C 
ATOM     23  C   UNL     1      30.154 -22.996 -16.758  0.00  0.00    +0.017 C 
ATOM     24  C   UNL     1      29.574 -23.605 -15.638  0.00  0.00    +0.017 C 
ATOM     25  C   UNL     1      31.242 -25.455 -13.155  0.00  0.00    +0.182 C 
ATOM     26  H   UNL     1      33.227 -25.355 -13.843  0.00  0.00    +0.148 HD
ATOM     27  H   UNL     1      29.208 -25.092 -13.182  0.00  0.00    +0.148 HD
ENDBRANCH   5  20
BRANCH   7  28
ATOM     28  C   UNL     1      38.605 -24.778 -13.151  0.00  0.00    +0.037 C 
ATOM     29  C   UNL     1      39.600 -25.840 -13.516  0.00  0.00    +0.006 C 
ATOM     30  C   UNL     1      38.421 -26.182 -12.653  0.00  0.00    +0.006 C 
ENDBRANCH   7  28
TORSDOF 2
ENDMDL
MODEL 7
REMARK VINA RESULT:      -9.7      2.171      6.424
REMARK  Name = 42627755
REMARK  2 active torsions:
REMARK  status: ('A' for Active; 'I' for Inactive)
REMARK    1  A    between atoms: N_5  and  C_20
REMARK    2  A    between atoms: C_7  and  C_28
REMARK                            x       y       z     vdW  Elec       q    Type
REMARK                         _______ _______ _______ _____ _____    ______ ____
ROOT
ATOM      1  N   UNL     1      30.692 -23.480 -16.233  0.00  0.00    -0.239 N 
ATOM      2  N   UNL     1      31.946 -23.581 -15.764  0.00  0.00    -0.166 NA
ATOM      3  N   UNL     1      32.799 -24.483 -13.661  0.00  0.00    -0.271 N 
ATOM      4  N   UNL     1      34.763 -23.768 -14.801  0.00  0.00    -0.322 NA
ATOM      5  N   UNL     1      36.721 -23.079 -15.886  0.00  0.00    -0.247 N 
ATOM      6  N   UNL     1      36.920 -24.051 -13.765  0.00  0.00    -0.170 NA
ATOM      7  C   UNL     1      29.743 -23.965 -15.381  0.00  0.00    +0.045 C 
ATOM      8  C   UNL     1      30.427 -24.416 -14.278  0.00  0.00    +0.048 C 
ATOM      9  C   UNL     1      31.778 -24.153 -14.568  0.00  0.00    +0.152 C 
ATOM     10  C   UNL     1      34.206 -24.329 -13.708  0.00  0.00    +0.199 C 
ATOM     11  C   UNL     1      34.930 -24.770 -12.620  0.00  0.00    +0.070 C 
ATOM     12  C   UNL     1      36.106 -23.661 -14.763  0.00  0.00    +0.150 C 
ATOM     13  C   UNL     1      36.296 -24.603 -12.703  0.00  0.00    +0.116 C 
ATOM     14  H   UNL     1      30.476 -23.091 -17.112  0.00  0.00    +0.174 HD
ATOM     15  H   UNL     1      32.473 -24.901 -12.832  0.00  0.00    +0.156 HD
ATOM     16  H   UNL     1      37.701 -23.022 -15.815  0.00  0.00    +0.165 HD
ENDROOT
BRANCH   5  20
ATOM     17  N   UNL     1      33.162 -22.168 -19.190  0.00  0.00    -0.315 N 
ATOM     18  N   UNL     1      34.518 -21.116 -20.602  0.00  0.00    -0.315 N 
ATOM     19  C   UNL     1      34.397 -22.193 -18.598  0.00  0.00    +0.060 C 
ATOM     20  C   UNL     1      36.207 -22.563 -17.097  0.00  0.00    +0.059 C 
ATOM     21  C   UNL     1      35.227 -21.531 -19.498  0.00  0.00    +0.059 C 
ATOM     22  C   UNL     1      34.848 -22.724 -17.389  0.00  0.00    +0.031 C 
ATOM     23  C   UNL     1      37.064 -21.903 -17.980  0.00  0.00    +0.017 C 
ATOM     24  C   UNL     1      36.589 -21.378 -19.189  0.00  0.00    +0.017 C 
ATOM     25  C   UNL     1      33.285 -21.514 -20.385  0.00  0.00    +0.182 C 
ATOM     26  H   UNL     1      32.333 -22.551 -18.822  0.00  0.00    +0.148 HD
ATOM     27  H   UNL     1      34.861 -20.626 -21.385  0.00  0.00    +0.148 HD
ENDBRANCH   5  20
BRANCH   7  28
ATOM     28  C   UNL     1      28.239 -23.996 -15.613  0.00  0.00    +0.037 C 
ATOM     29  C   UNL     1      27.703 -23.516 -16.930  0.00  0.00    +0.006 C 
ATOM     30  C   UNL     1      27.496 -22.694 -15.692  0.00  0.00    +0.006 C 
ENDBRANCH   7  28
TORSDOF 2
ENDMDL
MODEL 8
REMARK VINA RESULT:      -9.7      2.178      5.983
REMARK  Name = 42627755
REMARK  2 active torsions:
REMARK  status: ('A' for Active; 'I' for Inactive)
REMARK    1  A    between atoms: N_5  and  C_20
REMARK    2  A    between atoms: C_7  and  C_28
REMARK                            x       y       z     vdW  Elec       q    Type
REMARK                         _______ _______ _______ _____ _____    ______ ____
ROOT
ATOM      1  N   UNL     1      34.817 -21.911 -18.806  0.00  0.00    -0.239 N 
ATOM      2  N   UNL     1      34.738 -22.418 -17.565  0.00  0.00    -0.166 NA
ATOM      3  N   UNL     1      36.482 -22.948 -15.940  0.00  0.00    -0.271 N 
ATOM      4  N   UNL     1      34.469 -23.546 -14.817  0.00  0.00    -0.322 NA
ATOM      5  N   UNL     1      32.516 -24.148 -13.674  0.00  0.00    -0.247 N 
ATOM      6  N   UNL     1      34.566 -24.441 -12.581  0.00  0.00    -0.170 NA
ATOM      7  C   UNL     1      36.093 -21.655 -19.217  0.00  0.00    +0.045 C 
ATOM      8  C   UNL     1      36.903 -22.019 -18.169  0.00  0.00    +0.048 C 
ATOM      9  C   UNL     1      36.016 -22.483 -17.181  0.00  0.00    +0.152 C 
ATOM     10  C   UNL     1      35.816 -23.457 -14.799  0.00  0.00    +0.199 C 
ATOM     11  C   UNL     1      36.594 -23.834 -13.724  0.00  0.00    +0.070 C 
ATOM     12  C   UNL     1      33.918 -24.040 -13.691  0.00  0.00    +0.150 C 
ATOM     13  C   UNL     1      35.909 -24.324 -12.632  0.00  0.00    +0.116 C 
ATOM     14  H   UNL     1      34.027 -21.740 -19.369  0.00  0.00    +0.174 HD
ATOM     15  H   UNL     1      37.461 -22.914 -15.846  0.00  0.00    +0.156 HD
ATOM     16  H   UNL     1      32.157 -24.512 -12.833  0.00  0.00    +0.165 HD
ENDROOT
BRANCH   5  20
ATOM     17  N   UNL     1      27.926 -23.043 -15.135  0.00  0.00    -0.315 N 
ATOM     18  N   UNL     1      28.470 -22.905 -17.285  0.00  0.00    -0.315 N 
ATOM     19  C   UNL     1      29.269 -23.310 -15.190  0.00  0.00    +0.060 C 
ATOM     20  C   UNL     1      31.521 -23.834 -14.630  0.00  0.00    +0.059 C 
ATOM     21  C   UNL     1      29.585 -23.218 -16.542  0.00  0.00    +0.059 C 
ATOM     22  C   UNL     1      30.207 -23.616 -14.203  0.00  0.00    +0.031 C 
ATOM     23  C   UNL     1      31.869 -23.749 -15.979  0.00  0.00    +0.017 C 
ATOM     24  C   UNL     1      30.911 -23.441 -16.953  0.00  0.00    +0.017 C 
ATOM     25  C   UNL     1      27.494 -22.808 -16.411  0.00  0.00    +0.182 C 
ATOM     26  H   UNL     1      27.370 -23.024 -14.322  0.00  0.00    +0.148 HD
ATOM     27  H   UNL     1      28.415 -22.780 -18.260  0.00  0.00    +0.148 HD
ENDBRANCH   5  20
BRANCH   7  28
ATOM     28  C   UNL     1      36.519 -21.082 -20.561  0.00  0.00    +0.037 C 
ATOM     29  C   UNL     1      37.085 -19.694 -20.608  0.00  0.00    +0.006 C 
ATOM     30  C   UNL     1      35.714 -19.964 -21.156  0.00  0.00    +0.006 C 
ENDBRANCH   7  28
TORSDOF 2
ENDMDL
