MODEL 1
REMARK VINA RESULT:     -13.4      0.000      0.000
REMARK  Name = 25049750
REMARK  7 active torsions:
REMARK  status: ('A' for Active; 'I' for Inactive)
REMARK    1  A    between atoms: C_1  and  C_14
REMARK    2  A    between atoms: C_6  and  O_20
REMARK    3  A    between atoms: C_10  and  C_17
REMARK    4  A    between atoms: C_17  and  O_18
REMARK    5  A    between atoms: O_20  and  C_21
REMARK    6  A    between atoms: C_21  and  C_23
REMARK    7  A    between atoms: C_27  and  C_32
REMARK                            x       y       z     vdW  Elec       q    Type
REMARK                         _______ _______ _______ _____ _____    ______ ____
ROOT
ATOM      1  C   UNL     1      32.257 -11.827 -22.104  0.00  0.00    -0.004 C 
ATOM      2  C   UNL     1      33.069 -11.770 -23.238  0.00  0.00    +0.000 C 
ATOM      3  C   UNL     1      32.317 -12.936 -21.260  0.00  0.00    +0.000 C 
ATOM      4  C   UNL     1      33.938 -12.822 -23.527  0.00  0.00    +0.037 C 
ATOM      5  C   UNL     1      33.187 -13.987 -21.549  0.00  0.00    +0.037 C 
ATOM      6  C   UNL     1      33.998 -13.930 -22.682  0.00  0.00    +0.139 C 
ENDROOT
BRANCH   1  14
ATOM      7  O   UNL     1      32.199  -8.338 -19.273  0.00  0.00    -0.275 OA
ATOM      8  N   UNL     1      31.447 -10.240 -20.413  0.00  0.00    -0.302 N 
ATOM      9  C   UNL     1      32.136  -8.464 -21.649  0.00  0.00    +0.081 C 
ATOM     10  C   UNL     1      33.393  -7.742 -21.990  0.00  0.00    +0.108 C 
ATOM     11  C   UNL     1      32.080  -7.007 -21.940  0.00  0.00    +0.021 C 
ATOM     12  C   UNL     1      31.571  -9.419 -22.635  0.00  0.00    +0.033 C 
ATOM     13  C   UNL     1      31.950  -8.958 -20.295  0.00  0.00    +0.222 C 
ATOM     14  C   UNL     1      31.316 -10.686 -21.790  0.00  0.00    +0.095 C 
ATOM     15  H   UNL     1      31.199 -10.796 -19.639  0.00  0.00    +0.150 HD
BRANCH  10  17
ATOM     16  O   UNL     1      33.627  -7.106 -24.235  0.00  0.00    -0.250 OA
ATOM     17  C   UNL     1      33.962  -7.841 -23.317  0.00  0.00    +0.314 C 
BRANCH  17  18
ATOM     18  O   UNL     1      34.890  -8.824 -23.416  0.00  0.00    -0.480 OA
ATOM     19  H   UNL     1      35.796  -8.606 -23.506  0.00  0.00    +0.295 HD
ENDBRANCH  17  18
ENDBRANCH  10  17
ENDBRANCH   1  14
BRANCH   6  20
ATOM     20  O   UNL     1      34.852 -14.964 -22.966  0.00  0.00    -0.471 OA
BRANCH  20  21
ATOM     21  C   UNL     1      35.281 -15.761 -21.871  0.00  0.00    +0.229 C 
BRANCH  21  23
ATOM     22  N   UNL     1      34.678 -19.914 -22.704  0.00  0.00    -0.406 NA
ATOM     23  C   UNL     1      35.062 -17.205 -22.198  0.00  0.00    +0.012 C 
ATOM     24  C   UNL     1      34.707 -17.634 -23.484  0.00  0.00    +0.096 C 
ATOM     25  C   UNL     1      35.224 -18.127 -21.174  0.00  0.00    +0.028 C 
ATOM     26  C   UNL     1      34.523 -19.017 -23.695  0.00  0.00    +0.117 C 
ATOM     27  C   UNL     1      35.022 -19.459 -21.477  0.00  0.00    +0.130 C 
ATOM     28  C   UNL     1      34.536 -16.725 -24.542  0.00  0.00    -0.015 C 
ATOM     29  C   UNL     1      34.170 -19.441 -24.973  0.00  0.00    +0.028 C 
ATOM     30  C   UNL     1      34.183 -17.178 -25.809  0.00  0.00    -0.004 C 
ATOM     31  C   UNL     1      34.000 -18.538 -26.025  0.00  0.00    +0.002 C 
BRANCH  27  32
ATOM     32  C   UNL     1      35.169 -20.482 -20.470  0.00  0.00    +0.030 C 
ATOM     33  C   UNL     1      36.425 -20.748 -19.924  0.00  0.00    +0.003 C 
ATOM     34  C   UNL     1      34.056 -21.204 -20.041  0.00  0.00    +0.003 C 
ATOM     35  C   UNL     1      36.568 -21.736 -18.950  0.00  0.00    +0.000 C 
ATOM     36  C   UNL     1      34.199 -22.192 -19.066  0.00  0.00    +0.000 C 
ATOM     37  C   UNL     1      35.455 -22.459 -18.522  0.00  0.00    +0.000 C 
ENDBRANCH  27  32
ENDBRANCH  21  23
ENDBRANCH  20  21
ENDBRANCH   6  20
TORSDOF 7
ENDMDL
MODEL 2
REMARK VINA RESULT:     -12.7      4.813      9.426
REMARK  Name = 25049750
REMARK  7 active torsions:
REMARK  status: ('A' for Active; 'I' for Inactive)
REMARK    1  A    between atoms: C_1  and  C_14
REMARK    2  A    between atoms: C_6  and  O_20
REMARK    3  A    between atoms: C_10  and  C_17
REMARK    4  A    between atoms: C_17  and  O_18
REMARK    5  A    between atoms: O_20  and  C_21
REMARK    6  A    between atoms: C_21  and  C_23
REMARK    7  A    between atoms: C_27  and  C_32
REMARK                            x       y       z     vdW  Elec       q    Type
REMARK                         _______ _______ _______ _____ _____    ______ ____
ROOT
ATOM      1  C   UNL     1      35.064 -20.316 -21.432  0.00  0.00    -0.004 C 
ATOM      2  C   UNL     1      33.680 -20.209 -21.288  0.00  0.00    +0.000 C 
ATOM      3  C   UNL     1      35.804 -21.068 -20.520  0.00  0.00    +0.000 C 
ATOM      4  C   UNL     1      33.038 -20.855 -20.231  0.00  0.00    +0.037 C 
ATOM      5  C   UNL     1      35.161 -21.713 -19.464  0.00  0.00    +0.037 C 
ATOM      6  C   UNL     1      33.778 -21.608 -19.320  0.00  0.00    +0.139 C 
ENDROOT
BRANCH   1  14
ATOM      7  O   UNL     1      33.825 -17.822 -24.959  0.00  0.00    -0.275 OA
ATOM      8  N   UNL     1      34.903 -19.511 -23.748  0.00  0.00    -0.302 N 
ATOM      9  C   UNL     1      35.236 -17.361 -23.099  0.00  0.00    +0.081 C 
ATOM     10  C   UNL     1      34.487 -16.241 -22.464  0.00  0.00    +0.108 C 
ATOM     11  C   UNL     1      35.596 -15.961 -23.443  0.00  0.00    +0.021 C 
ATOM     12  C   UNL     1      36.168 -18.161 -22.264  0.00  0.00    +0.033 C 
ATOM     13  C   UNL     1      34.555 -18.211 -24.061  0.00  0.00    +0.222 C 
ATOM     14  C   UNL     1      35.760 -19.617 -22.579  0.00  0.00    +0.095 C 
ATOM     15  H   UNL     1      34.600 -20.291 -24.269  0.00  0.00    +0.150 HD
BRANCH  10  17
ATOM     16  O   UNL     1      35.025 -16.635 -20.216  0.00  0.00    -0.250 OA
ATOM     17  C   UNL     1      34.783 -15.834 -21.107  0.00  0.00    +0.314 C 
BRANCH  17  18
ATOM     18  O   UNL     1      34.763 -14.488 -20.949  0.00  0.00    -0.480 OA
ATOM     19  H   UNL     1      35.527 -14.040 -20.646  0.00  0.00    +0.295 HD
ENDBRANCH  17  18
ENDBRANCH  10  17
ENDBRANCH   1  14
BRANCH   6  20
ATOM     20  O   UNL     1      33.147 -22.241 -18.281  0.00  0.00    -0.471 OA
BRANCH  20  21
ATOM     21  C   UNL     1      33.636 -23.526 -17.922  0.00  0.00    +0.229 C 
BRANCH  21  23
ATOM     22  N   UNL     1      33.633 -23.945 -13.664  0.00  0.00    -0.406 NA
ATOM     23  C   UNL     1      33.598 -23.668 -16.433  0.00  0.00    +0.012 C 
ATOM     24  C   UNL     1      32.399 -23.619 -15.708  0.00  0.00    +0.096 C 
ATOM     25  C   UNL     1      34.805 -23.856 -15.774  0.00  0.00    +0.028 C 
ATOM     26  C   UNL     1      32.464 -23.764 -14.306  0.00  0.00    +0.117 C 
ATOM     27  C   UNL     1      34.767 -23.987 -14.400  0.00  0.00    +0.130 C 
ATOM     28  C   UNL     1      31.161 -23.432 -16.347  0.00  0.00    -0.015 C 
ATOM     29  C   UNL     1      31.273 -23.714 -13.588  0.00  0.00    +0.028 C 
ATOM     30  C   UNL     1      29.986 -23.386 -15.603  0.00  0.00    -0.004 C 
ATOM     31  C   UNL     1      30.042 -23.528 -14.222  0.00  0.00    +0.002 C 
BRANCH  27  32
ATOM     32  C   UNL     1      35.978 -24.183 -13.639  0.00  0.00    +0.030 C 
ATOM     33  C   UNL     1      37.104 -24.735 -14.250  0.00  0.00    +0.003 C 
ATOM     34  C   UNL     1      36.022 -23.822 -12.292  0.00  0.00    +0.003 C 
ATOM     35  C   UNL     1      38.275 -24.924 -13.514  0.00  0.00    +0.000 C 
ATOM     36  C   UNL     1      37.192 -24.012 -11.557  0.00  0.00    +0.000 C 
ATOM     37  C   UNL     1      38.318 -24.564 -12.168  0.00  0.00    +0.000 C 
ENDBRANCH  27  32
ENDBRANCH  21  23
ENDBRANCH  20  21
ENDBRANCH   6  20
TORSDOF 7
ENDMDL
MODEL 3
REMARK VINA RESULT:     -12.0      2.500     11.032
REMARK  Name = 25049750
REMARK  7 active torsions:
REMARK  status: ('A' for Active; 'I' for Inactive)
REMARK    1  A    between atoms: C_1  and  C_14
REMARK    2  A    between atoms: C_6  and  O_20
REMARK    3  A    between atoms: C_10  and  C_17
REMARK    4  A    between atoms: C_17  and  O_18
REMARK    5  A    between atoms: O_20  and  C_21
REMARK    6  A    between atoms: C_21  and  C_23
REMARK    7  A    between atoms: C_27  and  C_32
REMARK                            x       y       z     vdW  Elec       q    Type
REMARK                         _______ _______ _______ _____ _____    ______ ____
ROOT
ATOM      1  C   UNL     1      34.799 -15.711 -22.307  0.00  0.00    -0.004 C 
ATOM      2  C   UNL     1      34.385 -15.141 -23.513  0.00  0.00    +0.000 C 
ATOM      3  C   UNL     1      34.428 -15.126 -21.097  0.00  0.00    +0.000 C 
ATOM      4  C   UNL     1      33.601 -13.988 -23.506  0.00  0.00    +0.037 C 
ATOM      5  C   UNL     1      33.644 -13.972 -21.091  0.00  0.00    +0.037 C 
ATOM      6  C   UNL     1      33.229 -13.404 -22.295  0.00  0.00    +0.139 C 
ENDROOT
BRANCH   1  14
ATOM      7  O   UNL     1      34.191 -20.064 -21.375  0.00  0.00    -0.275 OA
ATOM      8  N   UNL     1      35.178 -17.941 -21.349  0.00  0.00    -0.302 N 
ATOM      9  C   UNL     1      34.856 -18.938 -23.363  0.00  0.00    +0.081 C 
ATOM     10  C   UNL     1      33.739 -19.317 -24.273  0.00  0.00    +0.108 C 
ATOM     11  C   UNL     1      35.009 -20.127 -24.243  0.00  0.00    +0.021 C 
ATOM     12  C   UNL     1      35.638 -17.712 -23.664  0.00  0.00    +0.033 C 
ATOM     13  C   UNL     1      34.682 -19.093 -21.929  0.00  0.00    +0.222 C 
ATOM     14  C   UNL     1      35.648 -16.962 -22.315  0.00  0.00    +0.095 C 
ATOM     15  H   UNL     1      35.210 -17.798 -20.375  0.00  0.00    +0.150 HD
BRANCH  10  17
ATOM     16  O   UNL     1      34.425 -18.018 -26.101  0.00  0.00    -0.250 OA
ATOM     17  C   UNL     1      33.527 -18.603 -25.514  0.00  0.00    +0.314 C 
BRANCH  17  18
ATOM     18  O   UNL     1      32.240 -18.661 -25.937  0.00  0.00    -0.480 OA
ATOM     19  H   UNL     1      31.546 -18.745 -25.314  0.00  0.00    +0.295 HD
ENDBRANCH  17  18
ENDBRANCH  10  17
ENDBRANCH   1  14
BRANCH   6  20
ATOM     20  O   UNL     1      32.459 -12.270 -22.289  0.00  0.00    -0.471 OA
BRANCH  20  21
ATOM     21  C   UNL     1      32.621 -11.379 -23.383  0.00  0.00    +0.229 C 
BRANCH  21  23
ATOM     22  N   UNL     1      32.506  -7.316 -22.046  0.00  0.00    -0.406 NA
ATOM     23  C   UNL     1      32.570  -9.969 -22.881  0.00  0.00    +0.012 C 
ATOM     24  C   UNL     1      32.206  -9.658 -21.564  0.00  0.00    +0.096 C 
ATOM     25  C   UNL     1      32.899  -8.958 -23.772  0.00  0.00    +0.028 C 
ATOM     26  C   UNL     1      32.187  -8.299 -21.184  0.00  0.00    +0.117 C 
ATOM     27  C   UNL     1      32.851  -7.658 -23.308  0.00  0.00    +0.130 C 
ATOM     28  C   UNL     1      31.868 -10.660 -20.638  0.00  0.00    -0.015 C 
ATOM     29  C   UNL     1      31.825  -7.992 -19.876  0.00  0.00    +0.028 C 
ATOM     30  C   UNL     1      31.510 -10.323 -19.336  0.00  0.00    -0.004 C 
ATOM     31  C   UNL     1      31.489  -8.987 -18.955  0.00  0.00    +0.002 C 
BRANCH  27  32
ATOM     32  C   UNL     1      33.178  -6.548 -24.170  0.00  0.00    +0.030 C 
ATOM     33  C   UNL     1      34.460  -6.439 -24.711  0.00  0.00    +0.003 C 
ATOM     34  C   UNL     1      32.214  -5.584 -24.463  0.00  0.00    +0.003 C 
ATOM     35  C   UNL     1      34.776  -5.366 -25.546  0.00  0.00    +0.000 C 
ATOM     36  C   UNL     1      32.530  -4.512 -25.297  0.00  0.00    +0.000 C 
ATOM     37  C   UNL     1      33.811  -4.402 -25.837  0.00  0.00    +0.000 C 
ENDBRANCH  27  32
ENDBRANCH  21  23
ENDBRANCH  20  21
ENDBRANCH   6  20
TORSDOF 7
ENDMDL
MODEL 4
REMARK VINA RESULT:     -11.9      3.995      8.351
REMARK  Name = 25049750
REMARK  7 active torsions:
REMARK  status: ('A' for Active; 'I' for Inactive)
REMARK    1  A    between atoms: C_1  and  C_14
REMARK    2  A    between atoms: C_6  and  O_20
REMARK    3  A    between atoms: C_10  and  C_17
REMARK    4  A    between atoms: C_17  and  O_18
REMARK    5  A    between atoms: O_20  and  C_21
REMARK    6  A    between atoms: C_21  and  C_23
REMARK    7  A    between atoms: C_27  and  C_32
REMARK                            x       y       z     vdW  Elec       q    Type
REMARK                         _______ _______ _______ _____ _____    ______ ____
ROOT
ATOM      1  C   UNL     1      35.177 -18.816 -22.393  0.00  0.00    -0.004 C 
ATOM      2  C   UNL     1      33.841 -19.218 -22.349  0.00  0.00    +0.000 C 
ATOM      3  C   UNL     1      36.093 -19.341 -21.482  0.00  0.00    +0.000 C 
ATOM      4  C   UNL     1      33.423 -20.145 -21.394  0.00  0.00    +0.037 C 
ATOM      5  C   UNL     1      35.675 -20.267 -20.527  0.00  0.00    +0.037 C 
ATOM      6  C   UNL     1      34.340 -20.670 -20.483  0.00  0.00    +0.139 C 
ENDROOT
BRANCH   1  14
ATOM      7  O   UNL     1      33.210 -16.224 -25.493  0.00  0.00    -0.275 OA
ATOM      8  N   UNL     1      34.718 -17.754 -24.561  0.00  0.00    -0.302 N 
ATOM      9  C   UNL     1      34.555 -15.703 -23.601  0.00  0.00    +0.081 C 
ATOM     10  C   UNL     1      33.590 -14.902 -22.797  0.00  0.00    +0.108 C 
ATOM     11  C   UNL     1      34.552 -14.222 -23.735  0.00  0.00    +0.021 C 
ATOM     12  C   UNL     1      35.690 -16.361 -22.905  0.00  0.00    +0.033 C 
ATOM     13  C   UNL     1      34.054 -16.547 -24.671  0.00  0.00    +0.222 C 
ATOM     14  C   UNL     1      35.629 -17.812 -23.430  0.00  0.00    +0.095 C 
ATOM     15  H   UNL     1      34.587 -18.501 -25.188  0.00  0.00    +0.150 HD
BRANCH  10  17
ATOM     16  O   UNL     1      34.698 -15.226 -20.756  0.00  0.00    -0.250 OA
ATOM     17  C   UNL     1      33.844 -14.632 -21.398  0.00  0.00    +0.314 C 
BRANCH  17  18
ATOM     18  O   UNL     1      33.040 -13.663 -20.898  0.00  0.00    -0.480 OA
ATOM     19  H   UNL     1      33.251 -12.761 -21.037  0.00  0.00    +0.295 HD
ENDBRANCH  17  18
ENDBRANCH  10  17
ENDBRANCH   1  14
BRANCH   6  20
ATOM     20  O   UNL     1      33.930 -21.580 -19.545  0.00  0.00    -0.471 OA
BRANCH  20  21
ATOM     21  C   UNL     1      34.935 -22.397 -18.961  0.00  0.00    +0.229 C 
BRANCH  21  23
ATOM     22  N   UNL     1      33.530 -23.694 -15.133  0.00  0.00    -0.406 NA
ATOM     23  C   UNL     1      34.479 -22.848 -17.608  0.00  0.00    +0.012 C 
ATOM     24  C   UNL     1      35.362 -22.987 -16.529  0.00  0.00    +0.096 C 
ATOM     25  C   UNL     1      33.130 -23.131 -17.447  0.00  0.00    +0.028 C 
ATOM     26  C   UNL     1      34.838 -23.418 -15.293  0.00  0.00    +0.117 C 
ATOM     27  C   UNL     1      32.711 -23.547 -16.199  0.00  0.00    +0.130 C 
ATOM     28  C   UNL     1      36.734 -22.707 -16.661  0.00  0.00    -0.015 C 
ATOM     29  C   UNL     1      35.717 -23.555 -14.222  0.00  0.00    +0.028 C 
ATOM     30  C   UNL     1      37.589 -22.853 -15.574  0.00  0.00    -0.004 C 
ATOM     31  C   UNL     1      37.080 -23.278 -14.353  0.00  0.00    +0.002 C 
BRANCH  27  32
ATOM     32  C   UNL     1      31.325 -23.862 -15.947  0.00  0.00    +0.030 C 
ATOM     33  C   UNL     1      30.317 -23.132 -16.578  0.00  0.00    +0.003 C 
ATOM     34  C   UNL     1      30.992 -24.896 -15.072  0.00  0.00    +0.003 C 
ATOM     35  C   UNL     1      28.978 -23.437 -16.335  0.00  0.00    +0.000 C 
ATOM     36  C   UNL     1      29.653 -25.201 -14.829  0.00  0.00    +0.000 C 
ATOM     37  C   UNL     1      28.646 -24.471 -15.460  0.00  0.00    +0.000 C 
ENDBRANCH  27  32
ENDBRANCH  21  23
ENDBRANCH  20  21
ENDBRANCH   6  20
TORSDOF 7
ENDMDL
MODEL 5
REMARK VINA RESULT:     -11.5      1.541      2.346
REMARK  Name = 25049750
REMARK  7 active torsions:
REMARK  status: ('A' for Active; 'I' for Inactive)
REMARK    1  A    between atoms: C_1  and  C_14
REMARK    2  A    between atoms: C_6  and  O_20
REMARK    3  A    between atoms: C_10  and  C_17
REMARK    4  A    between atoms: C_17  and  O_18
REMARK    5  A    between atoms: O_20  and  C_21
REMARK    6  A    between atoms: C_21  and  C_23
REMARK    7  A    between atoms: C_27  and  C_32
REMARK                            x       y       z     vdW  Elec       q    Type
REMARK                         _______ _______ _______ _____ _____    ______ ____
ROOT
ATOM      1  C   UNL     1      33.258 -10.466 -23.434  0.00  0.00    -0.004 C 
ATOM      2  C   UNL     1      34.171 -11.331 -24.040  0.00  0.00    +0.000 C 
ATOM      3  C   UNL     1      32.426 -10.932 -22.418  0.00  0.00    +0.000 C 
ATOM      4  C   UNL     1      34.249 -12.661 -23.629  0.00  0.00    +0.037 C 
ATOM      5  C   UNL     1      32.504 -12.263 -22.007  0.00  0.00    +0.037 C 
ATOM      6  C   UNL     1      33.416 -13.127 -22.611  0.00  0.00    +0.139 C 
ENDROOT
BRANCH   1  14
ATOM      7  O   UNL     1      30.089  -7.284 -23.590  0.00  0.00    -0.275 OA
ATOM      8  N   UNL     1      31.834  -8.667 -24.314  0.00  0.00    -0.302 N 
ATOM      9  C   UNL     1      32.185  -7.392 -22.469  0.00  0.00    +0.081 C 
ATOM     10  C   UNL     1      31.736  -7.303 -21.051  0.00  0.00    +0.108 C 
ATOM     11  C   UNL     1      32.141  -6.063 -21.803  0.00  0.00    +0.021 C 
ATOM     12  C   UNL     1      33.503  -8.008 -22.764  0.00  0.00    +0.033 C 
ATOM     13  C   UNL     1      31.218  -7.740 -23.496  0.00  0.00    +0.222 C 
ATOM     14  C   UNL     1      33.175  -9.023 -23.880  0.00  0.00    +0.095 C 
ATOM     15  H   UNL     1      31.406  -9.050 -25.114  0.00  0.00    +0.150 HD
BRANCH  10  17
ATOM     16  O   UNL     1      33.373  -6.843 -19.436  0.00  0.00    -0.250 OA
ATOM     17  C   UNL     1      32.634  -7.656 -19.972  0.00  0.00    +0.314 C 
BRANCH  17  18
ATOM     18  O   UNL     1      32.557  -8.967 -19.636  0.00  0.00    -0.480 OA
ATOM     19  H   UNL     1      33.249  -9.552 -19.869  0.00  0.00    +0.295 HD
ENDBRANCH  17  18
ENDBRANCH  10  17
ENDBRANCH   1  14
BRANCH   6  20
ATOM     20  O   UNL     1      33.493 -14.435 -22.207  0.00  0.00    -0.471 OA
BRANCH  20  21
ATOM     21  C   UNL     1      34.795 -14.988 -22.069  0.00  0.00    +0.229 C 
BRANCH  21  23
ATOM     22  N   UNL     1      34.739 -19.133 -23.127  0.00  0.00    -0.406 NA
ATOM     23  C   UNL     1      34.763 -16.429 -22.473  0.00  0.00    +0.012 C 
ATOM     24  C   UNL     1      34.361 -16.837 -23.753  0.00  0.00    +0.096 C 
ATOM     25  C   UNL     1      35.150 -17.369 -21.529  0.00  0.00    +0.028 C 
ATOM     26  C   UNL     1      34.365 -18.218 -24.040  0.00  0.00    +0.117 C 
ATOM     27  C   UNL     1      35.119 -18.698 -21.904  0.00  0.00    +0.130 C 
ATOM     28  C   UNL     1      33.964 -15.908 -24.731  0.00  0.00    -0.015 C 
ATOM     29  C   UNL     1      33.965 -18.622 -25.311  0.00  0.00    +0.028 C 
ATOM     30  C   UNL     1      33.570 -16.341 -25.993  0.00  0.00    -0.004 C 
ATOM     31  C   UNL     1      33.571 -17.700 -26.283  0.00  0.00    +0.002 C 
BRANCH  27  32
ATOM     32  C   UNL     1      35.506 -19.739 -20.982  0.00  0.00    +0.030 C 
ATOM     33  C   UNL     1      34.552 -20.642 -20.510  0.00  0.00    +0.003 C 
ATOM     34  C   UNL     1      36.831 -19.843 -20.562  0.00  0.00    +0.003 C 
ATOM     35  C   UNL     1      34.925 -21.649 -19.619  0.00  0.00    +0.000 C 
ATOM     36  C   UNL     1      37.204 -20.850 -19.671  0.00  0.00    +0.000 C 
ATOM     37  C   UNL     1      36.251 -21.752 -19.200  0.00  0.00    +0.000 C 
ENDBRANCH  27  32
ENDBRANCH  21  23
ENDBRANCH  20  21
ENDBRANCH   6  20
TORSDOF 7
ENDMDL
MODEL 6
REMARK VINA RESULT:     -11.0      2.489     10.688
REMARK  Name = 25049750
REMARK  7 active torsions:
REMARK  status: ('A' for Active; 'I' for Inactive)
REMARK    1  A    between atoms: C_1  and  C_14
REMARK    2  A    between atoms: C_6  and  O_20
REMARK    3  A    between atoms: C_10  and  C_17
REMARK    4  A    between atoms: C_17  and  O_18
REMARK    5  A    between atoms: O_20  and  C_21
REMARK    6  A    between atoms: C_21  and  C_23
REMARK    7  A    between atoms: C_27  and  C_32
REMARK                            x       y       z     vdW  Elec       q    Type
REMARK                         _______ _______ _______ _____ _____    ______ ____
ROOT
ATOM      1  C   UNL     1      35.257 -17.317 -23.556  0.00  0.00    -0.004 C 
ATOM      2  C   UNL     1      35.248 -16.303 -22.596  0.00  0.00    +0.000 C 
ATOM      3  C   UNL     1      34.530 -17.166 -24.736  0.00  0.00    +0.000 C 
ATOM      4  C   UNL     1      34.510 -15.141 -22.818  0.00  0.00    +0.037 C 
ATOM      5  C   UNL     1      33.792 -16.003 -24.957  0.00  0.00    +0.037 C 
ATOM      6  C   UNL     1      33.783 -14.990 -23.999  0.00  0.00    +0.139 C 
ENDROOT
BRANCH   1  14
ATOM      7  O   UNL     1      37.301 -19.258 -20.057  0.00  0.00    -0.275 OA
ATOM      8  N   UNL     1      37.002 -18.418 -22.221  0.00  0.00    -0.302 N 
ATOM      9  C   UNL     1      35.541 -19.990 -21.481  0.00  0.00    +0.081 C 
ATOM     10  C   UNL     1      34.437 -20.134 -20.492  0.00  0.00    +0.108 C 
ATOM     11  C   UNL     1      35.296 -21.316 -20.855  0.00  0.00    +0.021 C 
ATOM     12  C   UNL     1      35.198 -19.793 -22.912  0.00  0.00    +0.033 C 
ATOM     13  C   UNL     1      36.712 -19.206 -21.125  0.00  0.00    +0.222 C 
ATOM     14  C   UNL     1      36.058 -18.577 -23.316  0.00  0.00    +0.095 C 
ATOM     15  H   UNL     1      37.774 -17.808 -22.258  0.00  0.00    +0.150 HD
BRANCH  10  17
ATOM     16  O   UNL     1      32.657 -19.724 -21.961  0.00  0.00    -0.250 OA
ATOM     17  C   UNL     1      33.064 -20.246 -20.934  0.00  0.00    +0.314 C 
BRANCH  17  18
ATOM     18  O   UNL     1      32.302 -20.986 -20.091  0.00  0.00    -0.480 OA
ATOM     19  H   UNL     1      32.656 -21.757 -19.696  0.00  0.00    +0.295 HD
ENDBRANCH  17  18
ENDBRANCH  10  17
ENDBRANCH   1  14
BRANCH   6  20
ATOM     20  O   UNL     1      33.058 -13.847 -24.216  0.00  0.00    -0.471 OA
BRANCH  20  21
ATOM     21  C   UNL     1      33.790 -12.679 -24.562  0.00  0.00    +0.229 C 
BRANCH  21  23
ATOM     22  N   UNL     1      32.439  -9.331 -22.266  0.00  0.00    -0.406 NA
ATOM     23  C   UNL     1      33.306 -11.531 -23.732  0.00  0.00    +0.012 C 
ATOM     24  C   UNL     1      32.708 -11.716 -22.477  0.00  0.00    +0.096 C 
ATOM     25  C   UNL     1      33.468 -10.253 -24.247  0.00  0.00    +0.028 C 
ATOM     26  C   UNL     1      32.284 -10.572 -21.769  0.00  0.00    +0.117 C 
ATOM     27  C   UNL     1      33.021  -9.196 -23.480  0.00  0.00    +0.130 C 
ATOM     28  C   UNL     1      32.531 -12.998 -21.929  0.00  0.00    -0.015 C 
ATOM     29  C   UNL     1      31.691 -10.757 -20.524  0.00  0.00    +0.028 C 
ATOM     30  C   UNL     1      31.934 -13.153 -20.681  0.00  0.00    -0.004 C 
ATOM     31  C   UNL     1      31.514 -12.031 -19.978  0.00  0.00    +0.002 C 
BRANCH  27  32
ATOM     32  C   UNL     1      33.151  -7.835 -23.942  0.00  0.00    +0.030 C 
ATOM     33  C   UNL     1      34.414  -7.309 -24.217  0.00  0.00    +0.003 C 
ATOM     34  C   UNL     1      32.014  -7.045 -24.116  0.00  0.00    +0.003 C 
ATOM     35  C   UNL     1      34.540  -5.993 -24.664  0.00  0.00    +0.000 C 
ATOM     36  C   UNL     1      32.140  -5.730 -24.564  0.00  0.00    +0.000 C 
ATOM     37  C   UNL     1      33.403  -5.204 -24.837  0.00  0.00    +0.000 C 
ENDBRANCH  27  32
ENDBRANCH  21  23
ENDBRANCH  20  21
ENDBRANCH   6  20
TORSDOF 7
ENDMDL
MODEL 7
REMARK VINA RESULT:     -10.6      3.355     10.416
REMARK  Name = 25049750
REMARK  7 active torsions:
REMARK  status: ('A' for Active; 'I' for Inactive)
REMARK    1  A    between atoms: C_1  and  C_14
REMARK    2  A    between atoms: C_6  and  O_20
REMARK    3  A    between atoms: C_10  and  C_17
REMARK    4  A    between atoms: C_17  and  O_18
REMARK    5  A    between atoms: O_20  and  C_21
REMARK    6  A    between atoms: C_21  and  C_23
REMARK    7  A    between atoms: C_27  and  C_32
REMARK                            x       y       z     vdW  Elec       q    Type
REMARK                         _______ _______ _______ _____ _____    ______ ____
ROOT
ATOM      1  C   UNL     1      36.056 -20.862 -20.279  0.00  0.00    -0.004 C 
ATOM      2  C   UNL     1      37.173 -20.051 -20.487  0.00  0.00    +0.000 C 
ATOM      3  C   UNL     1      34.796 -20.432 -20.694  0.00  0.00    +0.000 C 
ATOM      4  C   UNL     1      37.028 -18.811 -21.110  0.00  0.00    +0.037 C 
ATOM      5  C   UNL     1      34.652 -19.192 -21.317  0.00  0.00    +0.037 C 
ATOM      6  C   UNL     1      35.767 -18.382 -21.526  0.00  0.00    +0.139 C 
ENDROOT
BRANCH   1  14
ATOM      7  O   UNL     1      36.148 -22.397 -16.057  0.00  0.00    -0.275 OA
ATOM      8  N   UNL     1      36.804 -22.083 -18.283  0.00  0.00    -0.302 N 
ATOM      9  C   UNL     1      34.710 -22.869 -17.893  0.00  0.00    +0.081 C 
ATOM     10  C   UNL     1      33.408 -22.399 -17.343  0.00  0.00    +0.108 C 
ATOM     11  C   UNL     1      33.813 -23.845 -17.219  0.00  0.00    +0.021 C 
ATOM     12  C   UNL     1      34.878 -22.943 -19.367  0.00  0.00    +0.033 C 
ATOM     13  C   UNL     1      35.943 -22.433 -17.261  0.00  0.00    +0.222 C 
ATOM     14  C   UNL     1      36.214 -22.206 -19.605  0.00  0.00    +0.095 C 
ATOM     15  H   UNL     1      37.728 -21.779 -18.130  0.00  0.00    +0.150 HD
BRANCH  10  17
ATOM     16  O   UNL     1      32.400 -21.802 -19.375  0.00  0.00    -0.250 OA
ATOM     17  C   UNL     1      32.276 -22.179 -18.218  0.00  0.00    +0.314 C 
BRANCH  17  18
ATOM     18  O   UNL     1      31.091 -22.437 -17.615  0.00  0.00    -0.480 OA
ATOM     19  H   UNL     1      30.340 -21.912 -17.811  0.00  0.00    +0.295 HD
ENDBRANCH  17  18
ENDBRANCH  10  17
ENDBRANCH   1  14
BRANCH   6  20
ATOM     20  O   UNL     1      35.625 -17.163 -22.137  0.00  0.00    -0.471 OA
BRANCH  20  21
ATOM     21  C   UNL     1      35.051 -16.120 -21.361  0.00  0.00    +0.229 C 
BRANCH  21  23
ATOM     22  N   UNL     1      32.900 -13.393 -23.860  0.00  0.00    -0.406 NA
ATOM     23  C   UNL     1      34.304 -15.189 -22.265  0.00  0.00    +0.012 C 
ATOM     24  C   UNL     1      34.108 -15.465 -23.625  0.00  0.00    +0.096 C 
ATOM     25  C   UNL     1      33.800 -14.022 -21.709  0.00  0.00    +0.028 C 
ATOM     26  C   UNL     1      33.390 -14.527 -24.396  0.00  0.00    +0.117 C 
ATOM     27  C   UNL     1      33.111 -13.165 -22.544  0.00  0.00    +0.130 C 
ATOM     28  C   UNL     1      34.606 -16.639 -24.217  0.00  0.00    -0.015 C 
ATOM     29  C   UNL     1      33.197 -14.802 -25.746  0.00  0.00    +0.028 C 
ATOM     30  C   UNL     1      34.398 -16.888 -25.569  0.00  0.00    -0.004 C 
ATOM     31  C   UNL     1      33.692 -15.968 -26.335  0.00  0.00    +0.002 C 
BRANCH  27  32
ATOM     32  C   UNL     1      32.555 -11.929 -22.045  0.00  0.00    +0.030 C 
ATOM     33  C   UNL     1      32.644 -10.765 -22.810  0.00  0.00    +0.003 C 
ATOM     34  C   UNL     1      31.928 -11.898 -20.800  0.00  0.00    +0.003 C 
ATOM     35  C   UNL     1      32.106  -9.572 -22.329  0.00  0.00    +0.000 C 
ATOM     36  C   UNL     1      31.390 -10.704 -20.319  0.00  0.00    +0.000 C 
ATOM     37  C   UNL     1      31.480  -9.541 -21.083  0.00  0.00    +0.000 C 
ENDBRANCH  27  32
ENDBRANCH  21  23
ENDBRANCH  20  21
ENDBRANCH   6  20
TORSDOF 7
ENDMDL
MODEL 8
REMARK VINA RESULT:     -10.5      1.402      2.150
REMARK  Name = 25049750
REMARK  7 active torsions:
REMARK  status: ('A' for Active; 'I' for Inactive)
REMARK    1  A    between atoms: C_1  and  C_14
REMARK    2  A    between atoms: C_6  and  O_20
REMARK    3  A    between atoms: C_10  and  C_17
REMARK    4  A    between atoms: C_17  and  O_18
REMARK    5  A    between atoms: O_20  and  C_21
REMARK    6  A    between atoms: C_21  and  C_23
REMARK    7  A    between atoms: C_27  and  C_32
REMARK                            x       y       z     vdW  Elec       q    Type
REMARK                         _______ _______ _______ _____ _____    ______ ____
ROOT
ATOM      1  C   UNL     1      32.163 -10.055 -22.803  0.00  0.00    -0.004 C 
ATOM      2  C   UNL     1      31.905 -11.171 -22.005  0.00  0.00    +0.000 C 
ATOM      3  C   UNL     1      33.221 -10.077 -23.710  0.00  0.00    +0.000 C 
ATOM      4  C   UNL     1      32.707 -12.307 -22.115  0.00  0.00    +0.037 C 
ATOM      5  C   UNL     1      34.022 -11.213 -23.820  0.00  0.00    +0.037 C 
ATOM      6  C   UNL     1      33.766 -12.329 -23.024  0.00  0.00    +0.139 C 
ENDROOT
BRANCH   1  14
ATOM      7  O   UNL     1      32.337  -6.145 -20.596  0.00  0.00    -0.275 OA
ATOM      8  N   UNL     1      31.463  -8.163 -21.401  0.00  0.00    -0.302 N 
ATOM      9  C   UNL     1      32.241  -6.662 -22.917  0.00  0.00    +0.081 C 
ATOM     10  C   UNL     1      33.534  -6.082 -23.375  0.00  0.00    +0.108 C 
ATOM     11  C   UNL     1      32.266  -5.273 -23.448  0.00  0.00    +0.021 C 
ATOM     12  C   UNL     1      31.611  -7.734 -23.729  0.00  0.00    +0.033 C 
ATOM     13  C   UNL     1      32.042  -6.912 -21.499  0.00  0.00    +0.222 C 
ATOM     14  C   UNL     1      31.292  -8.825 -22.684  0.00  0.00    +0.095 C 
ATOM     15  H   UNL     1      31.193  -8.566 -20.544  0.00  0.00    +0.150 HD
BRANCH  10  17
ATOM     16  O   UNL     1      34.713  -7.464 -24.858  0.00  0.00    -0.250 OA
ATOM     17  C   UNL     1      34.082  -6.435 -24.667  0.00  0.00    +0.314 C 
BRANCH  17  18
ATOM     18  O   UNL     1      33.813  -5.508 -25.619  0.00  0.00    -0.480 OA
ATOM     19  H   UNL     1      33.013  -5.022 -25.588  0.00  0.00    +0.295 HD
ENDBRANCH  17  18
ENDBRANCH  10  17
ENDBRANCH   1  14
BRANCH   6  20
ATOM     20  O   UNL     1      34.554 -13.445 -23.132  0.00  0.00    -0.471 OA
BRANCH  20  21
ATOM     21  C   UNL     1      34.523 -14.359 -22.045  0.00  0.00    +0.229 C 
BRANCH  21  23
ATOM     22  N   UNL     1      34.795 -18.386 -23.464  0.00  0.00    -0.406 NA
ATOM     23  C   UNL     1      34.604 -15.757 -22.574  0.00  0.00    +0.012 C 
ATOM     24  C   UNL     1      34.222 -16.083 -23.883  0.00  0.00    +0.096 C 
ATOM     25  C   UNL     1      35.079 -16.741 -21.719  0.00  0.00    +0.028 C 
ATOM     26  C   UNL     1      34.336 -17.428 -24.292  0.00  0.00    +0.117 C 
ATOM     27  C   UNL     1      35.153 -18.030 -22.210  0.00  0.00    +0.130 C 
ATOM     28  C   UNL     1      33.739 -15.108 -24.773  0.00  0.00    -0.015 C 
ATOM     29  C   UNL     1      33.955 -17.751 -25.591  0.00  0.00    +0.028 C 
ATOM     30  C   UNL     1      33.366 -15.460 -26.066  0.00  0.00    -0.004 C 
ATOM     31  C   UNL     1      33.475 -16.783 -26.476  0.00  0.00    +0.002 C 
BRANCH  27  32
ATOM     32  C   UNL     1      35.635 -19.112 -21.385  0.00  0.00    +0.030 C 
ATOM     33  C   UNL     1      36.979 -19.163 -21.016  0.00  0.00    +0.003 C 
ATOM     34  C   UNL     1      34.757 -20.108 -20.958  0.00  0.00    +0.003 C 
ATOM     35  C   UNL     1      37.445 -20.208 -20.218  0.00  0.00    +0.000 C 
ATOM     36  C   UNL     1      35.222 -21.153 -20.160  0.00  0.00    +0.000 C 
ATOM     37  C   UNL     1      36.566 -21.204 -19.792  0.00  0.00    +0.000 C 
ENDBRANCH  27  32
ENDBRANCH  21  23
ENDBRANCH  20  21
ENDBRANCH   6  20
TORSDOF 7
ENDMDL
