MODEL 1
REMARK VINA RESULT:     -11.2      0.000      0.000
REMARK  Name = 25118925
REMARK  3 active torsions:
REMARK  status: ('A' for Active; 'I' for Inactive)
REMARK    1  A    between atoms: C_3  and  C_12
REMARK    2  A    between atoms: C_5  and  C_24
REMARK    3  A    between atoms: C_27  and  C_33
REMARK                            x       y       z     vdW  Elec       q    Type
REMARK                         _______ _______ _______ _____ _____    ______ ____
ROOT
ATOM      1  N   UNL     1      31.934 -11.306 -21.530  0.00  0.00    -0.279 N 
ATOM      2  N   UNL     1      33.209 -11.425 -23.345  0.00  0.00    -0.394 NA
ATOM      3  C   UNL     1      32.591 -10.617 -22.512  0.00  0.00    +0.160 C 
ATOM      4  C   UNL     1      32.147 -12.638 -21.752  0.00  0.00    +0.152 C 
ATOM      5  C   UNL     1      32.936 -12.686 -22.876  0.00  0.00    +0.130 C 
ATOM      6  C   UNL     1      31.154 -10.746 -20.453  0.00  0.00    +0.115 C 
ENDROOT
BRANCH   3  12
ATOM      7  N   UNL     1      32.680  -6.534 -23.916  0.00  0.00    -0.296 N 
ATOM      8  N   UNL     1      31.792  -4.329 -24.123  0.00  0.00    -0.233 NA
ATOM      9  N   UNL     1      34.576  -3.592 -26.932  0.00  0.00    -0.223 N 
ATOM     10  N   UNL     1      32.710  -2.690 -25.680  0.00  0.00    -0.232 NA
ATOM     11  N   UNL     1      35.284  -4.731 -27.047  0.00  0.00    -0.183 NA
ATOM     12  C   UNL     1      32.576  -9.103 -22.586  0.00  0.00    +0.070 C 
ATOM     13  C   UNL     1      31.395  -8.575 -23.414  0.00  0.00    +0.030 C 
ATOM     14  C   UNL     1      33.889  -8.538 -23.147  0.00  0.00    +0.030 C 
ATOM     15  C   UNL     1      31.383  -7.048 -23.453  0.00  0.00    +0.092 C 
ATOM     16  C   UNL     1      33.865  -7.009 -23.194  0.00  0.00    +0.092 C 
ATOM     17  C   UNL     1      32.696  -5.264 -24.504  0.00  0.00    +0.118 C 
ATOM     18  C   UNL     1      33.632  -4.940 -25.482  0.00  0.00    +0.152 C 
ATOM     19  C   UNL     1      33.575  -3.662 -26.010  0.00  0.00    +0.133 C 
ATOM     20  C   UNL     1      34.704  -5.548 -26.161  0.00  0.00    +0.105 C 
ATOM     21  C   UNL     1      31.855  -3.117 -24.726  0.00  0.00    +0.252 C 
ATOM     22  H   UNL     1      34.764  -2.785 -27.463  0.00  0.00    +0.176 HD
ENDBRANCH   3  12
BRANCH   5  24
ATOM     23  F   UNL     1      34.792 -17.351 -25.264  0.00  0.00    -0.204 F 
ATOM     24  C   UNL     1      33.416 -13.887 -23.488  0.00  0.00    +0.027 C 
ATOM     25  C   UNL     1      34.118 -14.824 -22.731  0.00  0.00    +0.008 C 
ATOM     26  C   UNL     1      33.178 -14.122 -24.842  0.00  0.00    +0.005 C 
ATOM     27  C   UNL     1      34.585 -15.995 -23.327  0.00  0.00    +0.099 C 
ATOM     28  C   UNL     1      33.644 -15.292 -25.440  0.00  0.00    +0.030 C 
ATOM     29  C   UNL     1      34.348 -16.229 -24.681  0.00  0.00    +0.144 C 
BRANCH  27  33
ATOM     30  F   UNL     1      34.759 -18.233 -22.502  0.00  0.00    -0.166 F 
ATOM     31  F   UNL     1      36.614 -17.203 -22.953  0.00  0.00    -0.166 F 
ATOM     32  F   UNL     1      35.451 -16.630 -21.206  0.00  0.00    -0.166 F 
ATOM     33  C   UNL     1      35.337 -16.995 -22.516  0.00  0.00    +0.421 C 
ENDBRANCH  27  33
ENDBRANCH   5  24
TORSDOF 3
ENDMDL
MODEL 2
REMARK VINA RESULT:     -10.8      3.391      6.079
REMARK  Name = 25118925
REMARK  3 active torsions:
REMARK  status: ('A' for Active; 'I' for Inactive)
REMARK    1  A    between atoms: C_3  and  C_12
REMARK    2  A    between atoms: C_5  and  C_24
REMARK    3  A    between atoms: C_27  and  C_33
REMARK                            x       y       z     vdW  Elec       q    Type
REMARK                         _______ _______ _______ _____ _____    ______ ____
ROOT
ATOM      1  N   UNL     1      34.158 -16.159 -24.840  0.00  0.00    -0.279 N 
ATOM      2  N   UNL     1      34.366 -16.037 -22.631  0.00  0.00    -0.394 NA
ATOM      3  C   UNL     1      33.940 -15.418 -23.711  0.00  0.00    +0.160 C 
ATOM      4  C   UNL     1      34.761 -17.324 -24.455  0.00  0.00    +0.152 C 
ATOM      5  C   UNL     1      34.878 -17.226 -23.089  0.00  0.00    +0.130 C 
ATOM      6  C   UNL     1      33.822 -15.794 -26.195  0.00  0.00    +0.115 C 
ENDROOT
BRANCH   3  12
ATOM      7  N   UNL     1      32.804 -11.336 -22.878  0.00  0.00    -0.296 N 
ATOM      8  N   UNL     1      32.469  -9.050 -23.475  0.00  0.00    -0.233 NA
ATOM      9  N   UNL     1      31.991  -8.216 -19.568  0.00  0.00    -0.223 N 
ATOM     10  N   UNL     1      32.034  -7.316 -21.815  0.00  0.00    -0.232 NA
ATOM     11  N   UNL     1      32.135  -9.392 -18.928  0.00  0.00    -0.183 NA
ATOM     12  C   UNL     1      33.283 -14.052 -23.755  0.00  0.00    +0.070 C 
ATOM     13  C   UNL     1      34.298 -12.930 -24.017  0.00  0.00    +0.030 C 
ATOM     14  C   UNL     1      32.500 -13.746 -22.470  0.00  0.00    +0.030 C 
ATOM     15  C   UNL     1      33.612 -11.566 -24.084  0.00  0.00    +0.092 C 
ATOM     16  C   UNL     1      31.825 -12.375 -22.540  0.00  0.00    +0.092 C 
ATOM     17  C   UNL     1      32.549 -10.007 -22.519  0.00  0.00    +0.118 C 
ATOM     18  C   UNL     1      32.372  -9.648 -21.186  0.00  0.00    +0.152 C 
ATOM     19  C   UNL     1      32.125  -8.313 -20.921  0.00  0.00    +0.133 C 
ATOM     20  C   UNL     1      32.366 -10.260 -19.919  0.00  0.00    +0.105 C 
ATOM     21  C   UNL     1      32.220  -7.782 -23.069  0.00  0.00    +0.252 C 
ATOM     22  H   UNL     1      31.808  -7.368 -19.104  0.00  0.00    +0.176 HD
ENDBRANCH   3  12
BRANCH   5  24
ATOM     23  F   UNL     1      37.142 -21.101 -19.807  0.00  0.00    -0.204 F 
ATOM     24  C   UNL     1      35.457 -18.223 -22.243  0.00  0.00    +0.027 C 
ATOM     25  C   UNL     1      34.649 -19.198 -21.659  0.00  0.00    +0.008 C 
ATOM     26  C   UNL     1      36.832 -18.223 -22.006  0.00  0.00    +0.005 C 
ATOM     27  C   UNL     1      35.215 -20.171 -20.835  0.00  0.00    +0.099 C 
ATOM     28  C   UNL     1      37.398 -19.195 -21.182  0.00  0.00    +0.030 C 
ATOM     29  C   UNL     1      36.589 -20.170 -20.597  0.00  0.00    +0.144 C 
BRANCH  27  33
ATOM     30  F   UNL     1      34.683 -22.488 -20.567  0.00  0.00    -0.166 F 
ATOM     31  F   UNL     1      34.384 -21.204 -18.845  0.00  0.00    -0.166 F 
ATOM     32  F   UNL     1      33.033 -21.071 -20.545  0.00  0.00    -0.166 F 
ATOM     33  C   UNL     1      34.349 -21.212 -20.210  0.00  0.00    +0.421 C 
ENDBRANCH  27  33
ENDBRANCH   5  24
TORSDOF 3
ENDMDL
MODEL 3
REMARK VINA RESULT:     -10.6      1.846      3.006
REMARK  Name = 25118925
REMARK  3 active torsions:
REMARK  status: ('A' for Active; 'I' for Inactive)
REMARK    1  A    between atoms: C_3  and  C_12
REMARK    2  A    between atoms: C_5  and  C_24
REMARK    3  A    between atoms: C_27  and  C_33
REMARK                            x       y       z     vdW  Elec       q    Type
REMARK                         _______ _______ _______ _____ _____    ______ ____
ROOT
ATOM      1  N   UNL     1      33.438 -12.931 -25.369  0.00  0.00    -0.279 N 
ATOM      2  N   UNL     1      34.132 -13.880 -23.484  0.00  0.00    -0.394 NA
ATOM      3  C   UNL     1      33.781 -12.750 -24.058  0.00  0.00    +0.160 C 
ATOM      4  C   UNL     1      33.579 -14.261 -25.649  0.00  0.00    +0.152 C 
ATOM      5  C   UNL     1      34.008 -14.826 -24.471  0.00  0.00    +0.130 C 
ATOM      6  C   UNL     1      33.005 -11.916 -26.299  0.00  0.00    +0.115 C 
ENDROOT
BRANCH   3  12
ATOM      7  N   UNL     1      32.977  -8.608 -23.132  0.00  0.00    -0.296 N 
ATOM      8  N   UNL     1      32.210  -6.849 -21.715  0.00  0.00    -0.233 NA
ATOM      9  N   UNL     1      32.431  -4.362 -24.870  0.00  0.00    -0.223 N 
ATOM     10  N   UNL     1      31.885  -4.569 -22.520  0.00  0.00    -0.232 NA
ATOM     11  N   UNL     1      32.865  -5.118 -25.896  0.00  0.00    -0.183 NA
ATOM     12  C   UNL     1      33.744 -11.387 -23.393  0.00  0.00    +0.070 C 
ATOM     13  C   UNL     1      32.319 -10.979 -22.989  0.00  0.00    +0.030 C 
ATOM     14  C   UNL     1      34.359 -10.294 -24.279  0.00  0.00    +0.030 C 
ATOM     15  C   UNL     1      32.309  -9.616 -22.297  0.00  0.00    +0.092 C 
ATOM     16  C   UNL     1      34.334  -8.932 -23.584  0.00  0.00    +0.092 C 
ATOM     17  C   UNL     1      32.617  -7.270 -22.937  0.00  0.00    +0.118 C 
ATOM     18  C   UNL     1      32.670  -6.355 -23.984  0.00  0.00    +0.152 C 
ATOM     19  C   UNL     1      32.296  -5.053 -23.702  0.00  0.00    +0.133 C 
ATOM     20  C   UNL     1      33.009  -6.330 -25.350  0.00  0.00    +0.105 C 
ATOM     21  C   UNL     1      31.875  -5.543 -21.584  0.00  0.00    +0.252 C 
ATOM     22  H   UNL     1      32.230  -3.402 -24.954  0.00  0.00    +0.176 HD
ENDBRANCH   3  12
BRANCH   5  24
ATOM     23  F   UNL     1      35.108 -20.229 -23.762  0.00  0.00    -0.204 F 
ATOM     24  C   UNL     1      34.293 -16.215 -24.286  0.00  0.00    +0.027 C 
ATOM     25  C   UNL     1      34.941 -16.647 -23.130  0.00  0.00    +0.008 C 
ATOM     26  C   UNL     1      33.920 -17.139 -25.263  0.00  0.00    +0.005 C 
ATOM     27  C   UNL     1      35.218 -18.002 -22.949  0.00  0.00    +0.099 C 
ATOM     28  C   UNL     1      34.197 -18.493 -25.084  0.00  0.00    +0.030 C 
ATOM     29  C   UNL     1      34.846 -18.925 -23.926  0.00  0.00    +0.144 C 
BRANCH  27  33
ATOM     30  F   UNL     1      35.406 -19.623 -21.201  0.00  0.00    -0.166 F 
ATOM     31  F   UNL     1      37.245 -18.703 -21.891  0.00  0.00    -0.166 F 
ATOM     32  F   UNL     1      35.836 -17.551 -20.698  0.00  0.00    -0.166 F 
ATOM     33  C   UNL     1      35.912 -18.461 -21.712  0.00  0.00    +0.421 C 
ENDBRANCH  27  33
ENDBRANCH   5  24
TORSDOF 3
ENDMDL
MODEL 4
REMARK VINA RESULT:     -10.5      0.976      2.053
REMARK  Name = 25118925
REMARK  3 active torsions:
REMARK  status: ('A' for Active; 'I' for Inactive)
REMARK    1  A    between atoms: C_3  and  C_12
REMARK    2  A    between atoms: C_5  and  C_24
REMARK    3  A    between atoms: C_27  and  C_33
REMARK                            x       y       z     vdW  Elec       q    Type
REMARK                         _______ _______ _______ _____ _____    ______ ____
ROOT
ATOM      1  N   UNL     1      31.702 -11.003 -21.122  0.00  0.00    -0.279 N 
ATOM      2  N   UNL     1      33.128 -11.192 -22.815  0.00  0.00    -0.394 NA
ATOM      3  C   UNL     1      32.405 -10.357 -22.102  0.00  0.00    +0.160 C 
ATOM      4  C   UNL     1      31.997 -12.335 -21.217  0.00  0.00    +0.152 C 
ATOM      5  C   UNL     1      32.878 -12.426 -22.268  0.00  0.00    +0.130 C 
ATOM      6  C   UNL     1      30.810 -10.405 -20.158  0.00  0.00    +0.115 C 
ENDROOT
BRANCH   3  12
ATOM      7  N   UNL     1      32.434  -6.394 -23.817  0.00  0.00    -0.296 N 
ATOM      8  N   UNL     1      31.465  -4.265 -24.286  0.00  0.00    -0.233 NA
ATOM      9  N   UNL     1      34.477  -3.587 -26.866  0.00  0.00    -0.223 N 
ATOM     10  N   UNL     1      32.452  -2.700 -25.876  0.00  0.00    -0.232 NA
ATOM     11  N   UNL     1      35.247  -4.689 -26.820  0.00  0.00    -0.183 NA
ATOM     12  C   UNL     1      32.323  -8.856 -22.299  0.00  0.00    +0.070 C 
ATOM     13  C   UNL     1      31.206  -8.461 -23.277  0.00  0.00    +0.030 C 
ATOM     14  C   UNL     1      33.657  -8.262 -22.776  0.00  0.00    +0.030 C 
ATOM     15  C   UNL     1      31.124  -6.944 -23.440  0.00  0.00    +0.092 C 
ATOM     16  C   UNL     1      33.563  -6.745 -22.948  0.00  0.00    +0.092 C 
ATOM     17  C   UNL     1      32.446  -5.173 -24.502  0.00  0.00    +0.118 C 
ATOM     18  C   UNL     1      33.459  -4.872 -25.408  0.00  0.00    +0.152 C 
ATOM     19  C   UNL     1      33.392  -3.644 -26.041  0.00  0.00    +0.133 C 
ATOM     20  C   UNL     1      34.622  -5.469 -25.930  0.00  0.00    +0.105 C 
ATOM     21  C   UNL     1      31.528  -3.101 -24.977  0.00  0.00    +0.252 C 
ATOM     22  H   UNL     1      34.676  -2.813 -27.440  0.00  0.00    +0.176 HD
ENDBRANCH   3  12
BRANCH   5  24
ATOM     23  F   UNL     1      35.163 -17.154 -24.095  0.00  0.00    -0.204 F 
ATOM     24  C   UNL     1      33.464 -13.643 -22.740  0.00  0.00    +0.027 C 
ATOM     25  C   UNL     1      33.177 -14.103 -24.026  0.00  0.00    +0.008 C 
ATOM     26  C   UNL     1      34.324 -14.368 -21.916  0.00  0.00    +0.005 C 
ATOM     27  C   UNL     1      33.749 -15.288 -24.486  0.00  0.00    +0.099 C 
ATOM     28  C   UNL     1      34.896 -15.554 -22.376  0.00  0.00    +0.030 C 
ATOM     29  C   UNL     1      34.608 -16.014 -23.661  0.00  0.00    +0.144 C 
BRANCH  27  33
ATOM     30  F   UNL     1      34.552 -16.034 -26.612  0.00  0.00    -0.166 F 
ATOM     31  F   UNL     1      32.725 -16.942 -25.877  0.00  0.00    -0.166 F 
ATOM     32  F   UNL     1      32.706 -14.885 -26.585  0.00  0.00    -0.166 F 
ATOM     33  C   UNL     1      33.440 -15.779 -25.860  0.00  0.00    +0.421 C 
ENDBRANCH  27  33
ENDBRANCH   5  24
TORSDOF 3
ENDMDL
MODEL 5
REMARK VINA RESULT:     -10.0     10.506     16.010
REMARK  Name = 25118925
REMARK  3 active torsions:
REMARK  status: ('A' for Active; 'I' for Inactive)
REMARK    1  A    between atoms: C_3  and  C_12
REMARK    2  A    between atoms: C_5  and  C_24
REMARK    3  A    between atoms: C_27  and  C_33
REMARK                            x       y       z     vdW  Elec       q    Type
REMARK                         _______ _______ _______ _____ _____    ______ ____
ROOT
ATOM      1  N   UNL     1      33.671 -21.877 -18.965  0.00  0.00    -0.279 N 
ATOM      2  N   UNL     1      35.636 -21.201 -19.750  0.00  0.00    -0.394 NA
ATOM      3  C   UNL     1      35.031 -22.008 -18.907  0.00  0.00    +0.160 C 
ATOM      4  C   UNL     1      33.392 -20.925 -19.905  0.00  0.00    +0.152 C 
ATOM      5  C   UNL     1      34.619 -20.523 -20.375  0.00  0.00    +0.130 C 
ATOM      6  C   UNL     1      32.697 -22.600 -18.184  0.00  0.00    +0.115 C 
ENDROOT
BRANCH   3  12
ATOM      7  N   UNL     1      36.367 -24.124 -15.387  0.00  0.00    -0.296 N 
ATOM      8  N   UNL     1      36.675 -26.088 -14.066  0.00  0.00    -0.233 NA
ATOM      9  N   UNL     1      37.683 -23.716 -10.977  0.00  0.00    -0.223 N 
ATOM     10  N   UNL     1      37.368 -25.996 -11.729  0.00  0.00    -0.232 NA
ATOM     11  N   UNL     1      37.596 -22.457 -11.445  0.00  0.00    -0.183 NA
ATOM     12  C   UNL     1      35.710 -22.983 -17.965  0.00  0.00    +0.070 C 
ATOM     13  C   UNL     1      34.697 -23.824 -17.174  0.00  0.00    +0.030 C 
ATOM     14  C   UNL     1      36.663 -22.277 -16.989  0.00  0.00    +0.030 C 
ATOM     15  C   UNL     1      35.402 -24.818 -16.252  0.00  0.00    +0.092 C 
ATOM     16  C   UNL     1      37.356 -23.277 -16.062  0.00  0.00    +0.092 C 
ATOM     17  C   UNL     1      36.699 -24.737 -14.173  0.00  0.00    +0.118 C 
ATOM     18  C   UNL     1      37.058 -23.978 -13.064  0.00  0.00    +0.152 C 
ATOM     19  C   UNL     1      37.371 -24.665 -11.904  0.00  0.00    +0.133 C 
ATOM     20  C   UNL     1      37.216 -22.623 -12.716  0.00  0.00    +0.105 C 
ATOM     21  C   UNL     1      37.007 -26.625 -12.868  0.00  0.00    +0.252 C 
ATOM     22  H   UNL     1      37.947 -23.931 -10.054  0.00  0.00    +0.176 HD
ENDBRANCH   3  12
BRANCH   5  24
ATOM     23  F   UNL     1      35.415 -16.649 -24.283  0.00  0.00    -0.204 F 
ATOM     24  C   UNL     1      34.823 -19.528 -21.383  0.00  0.00    +0.027 C 
ATOM     25  C   UNL     1      34.390 -19.758 -22.689  0.00  0.00    +0.008 C 
ATOM     26  C   UNL     1      35.453 -18.327 -21.058  0.00  0.00    +0.005 C 
ATOM     27  C   UNL     1      34.589 -18.788 -23.671  0.00  0.00    +0.099 C 
ATOM     28  C   UNL     1      35.653 -17.356 -22.040  0.00  0.00    +0.030 C 
ATOM     29  C   UNL     1      35.220 -17.587 -23.346  0.00  0.00    +0.144 C 
BRANCH  27  33
ATOM     30  F   UNL     1      32.767 -19.030 -25.201  0.00  0.00    -0.166 F 
ATOM     31  F   UNL     1      34.577 -18.111 -25.964  0.00  0.00    -0.166 F 
ATOM     32  F   UNL     1      34.536 -20.246 -25.548  0.00  0.00    -0.166 F 
ATOM     33  C   UNL     1      34.127 -19.036 -25.066  0.00  0.00    +0.421 C 
ENDBRANCH  27  33
ENDBRANCH   5  24
TORSDOF 3
ENDMDL
MODEL 6
REMARK VINA RESULT:      -9.8      1.365      3.054
REMARK  Name = 25118925
REMARK  3 active torsions:
REMARK  status: ('A' for Active; 'I' for Inactive)
REMARK    1  A    between atoms: C_3  and  C_12
REMARK    2  A    between atoms: C_5  and  C_24
REMARK    3  A    between atoms: C_27  and  C_33
REMARK                            x       y       z     vdW  Elec       q    Type
REMARK                         _______ _______ _______ _____ _____    ______ ____
ROOT
ATOM      1  N   UNL     1      32.281 -10.940 -21.945  0.00  0.00    -0.279 N 
ATOM      2  N   UNL     1      33.421 -11.735 -23.677  0.00  0.00    -0.394 NA
ATOM      3  C   UNL     1      32.793 -10.689 -23.188  0.00  0.00    +0.160 C 
ATOM      4  C   UNL     1      32.604 -12.229 -21.622  0.00  0.00    +0.152 C 
ATOM      5  C   UNL     1      33.307 -12.698 -22.706  0.00  0.00    +0.130 C 
ATOM      6  C   UNL     1      31.535 -10.026 -21.114  0.00  0.00    +0.115 C 
ENDROOT
BRANCH   3  12
ATOM      7  N   UNL     1      32.347  -6.468 -23.988  0.00  0.00    -0.296 N 
ATOM      8  N   UNL     1      32.970  -4.418 -25.037  0.00  0.00    -0.233 NA
ATOM      9  N   UNL     1      30.433  -2.511 -22.565  0.00  0.00    -0.223 N 
ATOM     10  N   UNL     1      32.028  -2.268 -24.371  0.00  0.00    -0.232 NA
ATOM     11  N   UNL     1      29.890  -3.471 -21.794  0.00  0.00    -0.183 NA
ATOM     12  C   UNL     1      32.627  -9.347 -23.874  0.00  0.00    +0.070 C 
ATOM     13  C   UNL     1      33.815  -8.410 -23.609  0.00  0.00    +0.030 C 
ATOM     14  C   UNL     1      31.322  -8.647 -23.468  0.00  0.00    +0.030 C 
ATOM     15  C   UNL     1      33.640  -7.075 -24.332  0.00  0.00    +0.092 C 
ATOM     16  C   UNL     1      31.160  -7.307 -24.187  0.00  0.00    +0.092 C 
ATOM     17  C   UNL     1      32.236  -5.078 -24.109  0.00  0.00    +0.118 C 
ATOM     18  C   UNL     1      31.378  -4.355 -23.287  0.00  0.00    +0.152 C 
ATOM     19  C   UNL     1      31.331  -2.985 -23.475  0.00  0.00    +0.133 C 
ATOM     20  C   UNL     1      30.468  -4.592 -22.239  0.00  0.00    +0.105 C 
ATOM     21  C   UNL     1      32.822  -3.073 -25.109  0.00  0.00    +0.252 C 
ATOM     22  H   UNL     1      30.205  -1.557 -22.480  0.00  0.00    +0.176 HD
ENDBRANCH   3  12
BRANCH   5  24
ATOM     23  F   UNL     1      35.432 -17.817 -23.136  0.00  0.00    -0.204 F 
ATOM     24  C   UNL     1      33.852 -14.015 -22.819  0.00  0.00    +0.027 C 
ATOM     25  C   UNL     1      33.714 -14.728 -24.010  0.00  0.00    +0.008 C 
ATOM     26  C   UNL     1      34.524 -14.587 -21.739  0.00  0.00    +0.005 C 
ATOM     27  C   UNL     1      34.247 -16.012 -24.121  0.00  0.00    +0.099 C 
ATOM     28  C   UNL     1      35.056 -15.871 -21.848  0.00  0.00    +0.030 C 
ATOM     29  C   UNL     1      34.917 -16.583 -23.039  0.00  0.00    +0.144 C 
BRANCH  27  33
ATOM     30  F   UNL     1      35.288 -17.102 -25.978  0.00  0.00    -0.166 F 
ATOM     31  F   UNL     1      33.433 -17.957 -25.249  0.00  0.00    -0.166 F 
ATOM     32  F   UNL     1      33.405 -16.077 -26.343  0.00  0.00    -0.166 F 
ATOM     33  C   UNL     1      34.097 -16.773 -25.394  0.00  0.00    +0.421 C 
ENDBRANCH  27  33
ENDBRANCH   5  24
TORSDOF 3
ENDMDL
MODEL 7
REMARK VINA RESULT:      -9.7      1.394      2.410
REMARK  Name = 25118925
REMARK  3 active torsions:
REMARK  status: ('A' for Active; 'I' for Inactive)
REMARK    1  A    between atoms: C_3  and  C_12
REMARK    2  A    between atoms: C_5  and  C_24
REMARK    3  A    between atoms: C_27  and  C_33
REMARK                            x       y       z     vdW  Elec       q    Type
REMARK                         _______ _______ _______ _____ _____    ______ ____
ROOT
ATOM      1  N   UNL     1      33.715 -11.948 -24.603  0.00  0.00    -0.279 N 
ATOM      2  N   UNL     1      33.971 -12.302 -22.425  0.00  0.00    -0.394 NA
ATOM      3  C   UNL     1      33.701 -11.405 -23.348  0.00  0.00    +0.160 C 
ATOM      4  C   UNL     1      34.014 -13.275 -24.471  0.00  0.00    +0.152 C 
ATOM      5  C   UNL     1      34.167 -13.469 -23.119  0.00  0.00    +0.130 C 
ATOM      6  C   UNL     1      33.465 -11.261 -25.847  0.00  0.00    +0.115 C 
ENDROOT
BRANCH   3  12
ATOM      7  N   UNL     1      32.853  -7.203 -23.878  0.00  0.00    -0.296 N 
ATOM      8  N   UNL     1      31.562  -5.226 -23.530  0.00  0.00    -0.233 NA
ATOM      9  N   UNL     1      33.741  -3.435 -26.399  0.00  0.00    -0.223 N 
ATOM     10  N   UNL     1      31.940  -3.178 -24.801  0.00  0.00    -0.232 NA
ATOM     11  N   UNL     1      34.618  -4.364 -26.820  0.00  0.00    -0.183 NA
ATOM     12  C   UNL     1      33.403  -9.938 -23.105  0.00  0.00    +0.070 C 
ATOM     13  C   UNL     1      32.041  -9.521 -23.679  0.00  0.00    +0.030 C 
ATOM     14  C   UNL     1      34.500  -9.023 -23.670  0.00  0.00    +0.030 C 
ATOM     15  C   UNL     1      31.749  -8.047 -23.399  0.00  0.00    +0.092 C 
ATOM     16  C   UNL     1      34.195  -7.550 -23.397  0.00  0.00    +0.092 C 
ATOM     17  C   UNL     1      32.556  -5.871 -24.189  0.00  0.00    +0.118 C 
ATOM     18  C   UNL     1      33.270  -5.190 -25.170  0.00  0.00    +0.152 C 
ATOM     19  C   UNL     1      32.910  -3.876 -25.413  0.00  0.00    +0.133 C 
ATOM     20  C   UNL     1      34.327  -5.431 -26.068  0.00  0.00    +0.105 C 
ATOM     21  C   UNL     1      31.320  -3.938 -23.873  0.00  0.00    +0.252 C 
ATOM     22  H   UNL     1      33.702  -2.523 -26.768  0.00  0.00    +0.176 HD
ENDBRANCH   3  12
BRANCH   5  24
ATOM     23  F   UNL     1      35.424 -18.323 -20.717  0.00  0.00    -0.204 F 
ATOM     24  C   UNL     1      34.490 -14.719 -22.504  0.00  0.00    +0.027 C 
ATOM     25  C   UNL     1      34.679 -15.856 -23.289  0.00  0.00    +0.008 C 
ATOM     26  C   UNL     1      34.618 -14.801 -21.117  0.00  0.00    +0.005 C 
ATOM     27  C   UNL     1      34.995 -17.075 -22.690  0.00  0.00    +0.099 C 
ATOM     28  C   UNL     1      34.933 -16.019 -20.516  0.00  0.00    +0.030 C 
ATOM     29  C   UNL     1      35.121 -17.156 -21.303  0.00  0.00    +0.144 C 
BRANCH  27  33
ATOM     30  F   UNL     1      34.317 -19.298 -23.254  0.00  0.00    -0.166 F 
ATOM     31  F   UNL     1      35.057 -18.055 -24.870  0.00  0.00    -0.166 F 
ATOM     32  F   UNL     1      36.437 -18.834 -23.379  0.00  0.00    -0.166 F 
ATOM     33  C   UNL     1      35.195 -18.289 -23.531  0.00  0.00    +0.421 C 
ENDBRANCH  27  33
ENDBRANCH   5  24
TORSDOF 3
ENDMDL
MODEL 8
REMARK VINA RESULT:      -9.5      7.631     13.706
REMARK  Name = 25118925
REMARK  3 active torsions:
REMARK  status: ('A' for Active; 'I' for Inactive)
REMARK    1  A    between atoms: C_3  and  C_12
REMARK    2  A    between atoms: C_5  and  C_24
REMARK    3  A    between atoms: C_27  and  C_33
REMARK                            x       y       z     vdW  Elec       q    Type
REMARK                         _______ _______ _______ _____ _____    ______ ____
ROOT
ATOM      1  N   UNL     1      36.529 -18.695 -22.093  0.00  0.00    -0.279 N 
ATOM      2  N   UNL     1      34.382 -18.642 -22.660  0.00  0.00    -0.394 NA
ATOM      3  C   UNL     1      35.303 -19.291 -21.982  0.00  0.00    +0.160 C 
ATOM      4  C   UNL     1      36.380 -17.597 -22.892  0.00  0.00    +0.152 C 
ATOM      5  C   UNL     1      35.048 -17.585 -23.230  0.00  0.00    +0.130 C 
ATOM      6  C   UNL     1      37.763 -19.133 -21.485  0.00  0.00    +0.115 C 
ENDROOT
BRANCH   3  12
ATOM      7  N   UNL     1      34.908 -22.101 -18.726  0.00  0.00    -0.296 N 
ATOM      8  N   UNL     1      33.739 -23.758 -17.467  0.00  0.00    -0.233 NA
ATOM      9  N   UNL     1      36.537 -23.392 -14.599  0.00  0.00    -0.223 N 
ATOM     10  N   UNL     1      34.504 -24.518 -15.279  0.00  0.00    -0.232 NA
ATOM     11  N   UNL     1      37.398 -22.461 -15.051  0.00  0.00    -0.183 NA
ATOM     12  C   UNL     1      35.086 -20.548 -21.162  0.00  0.00    +0.070 C 
ATOM     13  C   UNL     1      33.888 -20.418 -20.210  0.00  0.00    +0.030 C 
ATOM     14  C   UNL     1      36.337 -20.941 -20.362  0.00  0.00    +0.030 C 
ATOM     15  C   UNL     1      33.671 -21.705 -19.414  0.00  0.00    +0.092 C 
ATOM     16  C   UNL     1      36.108 -22.222 -19.560  0.00  0.00    +0.092 C 
ATOM     17  C   UNL     1      34.780 -22.897 -17.582  0.00  0.00    +0.118 C 
ATOM     18  C   UNL     1      35.712 -22.823 -16.551  0.00  0.00    +0.152 C 
ATOM     19  C   UNL     1      35.509 -23.646 -15.458  0.00  0.00    +0.133 C 
ATOM     20  C   UNL     1      36.890 -22.119 -16.241  0.00  0.00    +0.105 C 
ATOM     21  C   UNL     1      33.667 -24.504 -16.339  0.00  0.00    +0.252 C 
ATOM     22  H   UNL     1      36.639 -23.845 -13.732  0.00  0.00    +0.176 HD
ENDBRANCH   3  12
BRANCH   5  24
ATOM     23  F   UNL     1      32.625 -13.786 -26.487  0.00  0.00    -0.204 F 
ATOM     24  C   UNL     1      34.424 -16.606 -24.065  0.00  0.00    +0.027 C 
ATOM     25  C   UNL     1      34.264 -15.298 -23.608  0.00  0.00    +0.008 C 
ATOM     26  C   UNL     1      33.978 -16.959 -25.339  0.00  0.00    +0.005 C 
ATOM     27  C   UNL     1      33.657 -14.343 -24.423  0.00  0.00    +0.099 C 
ATOM     28  C   UNL     1      33.371 -16.005 -26.155  0.00  0.00    +0.030 C 
ATOM     29  C   UNL     1      33.210 -14.697 -25.696  0.00  0.00    +0.144 C 
BRANCH  27  33
ATOM     30  F   UNL     1      34.522 -12.508 -23.158  0.00  0.00    -0.166 F 
ATOM     31  F   UNL     1      33.376 -12.024 -24.934  0.00  0.00    -0.166 F 
ATOM     32  F   UNL     1      32.366 -12.792 -23.167  0.00  0.00    -0.166 F 
ATOM     33  C   UNL     1      33.485 -12.946 -23.932  0.00  0.00    +0.421 C 
ENDBRANCH  27  33
ENDBRANCH   5  24
TORSDOF 3
ENDMDL
MODEL 9
REMARK VINA RESULT:      -9.3      5.428     10.658
REMARK  Name = 25118925
REMARK  3 active torsions:
REMARK  status: ('A' for Active; 'I' for Inactive)
REMARK    1  A    between atoms: C_3  and  C_12
REMARK    2  A    between atoms: C_5  and  C_24
REMARK    3  A    between atoms: C_27  and  C_33
REMARK                            x       y       z     vdW  Elec       q    Type
REMARK                         _______ _______ _______ _____ _____    ______ ____
ROOT
ATOM      1  N   UNL     1      32.309 -11.832 -22.040  0.00  0.00    -0.279 N 
ATOM      2  N   UNL     1      33.296 -10.529 -23.544  0.00  0.00    -0.394 NA
ATOM      3  C   UNL     1      33.116 -11.768 -23.142  0.00  0.00    +0.160 C 
ATOM      4  C   UNL     1      31.952 -10.552 -21.719  0.00  0.00    +0.152 C 
ATOM      5  C   UNL     1      32.573  -9.767 -22.660  0.00  0.00    +0.130 C 
ATOM      6  C   UNL     1      31.900 -13.022 -21.333  0.00  0.00    +0.115 C 
ENDROOT
BRANCH   3  12
ATOM      7  N   UNL     1      34.115 -15.853 -24.125  0.00  0.00    -0.296 N 
ATOM      8  N   UNL     1      34.309 -17.701 -25.622  0.00  0.00    -0.233 NA
ATOM      9  N   UNL     1      34.983 -20.066 -22.437  0.00  0.00    -0.223 N 
ATOM     10  N   UNL     1      34.765 -19.969 -24.847  0.00  0.00    -0.232 NA
ATOM     11  N   UNL     1      34.932 -19.252 -21.366  0.00  0.00    -0.183 NA
ATOM     12  C   UNL     1      33.707 -13.008 -23.785  0.00  0.00    +0.070 C 
ATOM     13  C   UNL     1      32.628 -13.908 -24.405  0.00  0.00    +0.030 C 
ATOM     14  C   UNL     1      34.552 -13.825 -22.796  0.00  0.00    +0.030 C 
ATOM     15  C   UNL     1      33.248 -15.137 -25.070  0.00  0.00    +0.092 C 
ATOM     16  C   UNL     1      35.158 -15.059 -23.467  0.00  0.00    +0.092 C 
ATOM     17  C   UNL     1      34.331 -17.217 -24.356  0.00  0.00    +0.118 C 
ATOM     18  C   UNL     1      34.571 -18.091 -23.301  0.00  0.00    +0.152 C 
ATOM     19  C   UNL     1      34.773 -19.423 -23.621  0.00  0.00    +0.133 C 
ATOM     20  C   UNL     1      34.680 -18.051 -21.899  0.00  0.00    +0.105 C 
ATOM     21  C   UNL     1      34.525 -19.028 -25.786  0.00  0.00    +0.252 C 
ATOM     22  H   UNL     1      35.156 -21.032 -22.373  0.00  0.00    +0.176 HD
ENDBRANCH   3  12
BRANCH   5  24
ATOM     23  F   UNL     1      32.224  -4.222 -22.890  0.00  0.00    -0.204 F 
ATOM     24  C   UNL     1      32.485  -8.340 -22.722  0.00  0.00    +0.027 C 
ATOM     25  C   UNL     1      33.129  -7.645 -23.745  0.00  0.00    +0.008 C 
ATOM     26  C   UNL     1      31.754  -7.645 -21.758  0.00  0.00    +0.005 C 
ATOM     27  C   UNL     1      33.043  -6.254 -23.805  0.00  0.00    +0.099 C 
ATOM     28  C   UNL     1      31.668  -6.255 -21.817  0.00  0.00    +0.030 C 
ATOM     29  C   UNL     1      32.312  -5.559 -22.841  0.00  0.00    +0.144 C 
BRANCH  27  33
ATOM     30  F   UNL     1      33.356  -5.909 -26.151  0.00  0.00    -0.166 F 
ATOM     31  F   UNL     1      33.509  -4.165 -24.871  0.00  0.00    -0.166 F 
ATOM     32  F   UNL     1      35.089  -5.660 -24.861  0.00  0.00    -0.166 F 
ATOM     33  C   UNL     1      33.732  -5.512 -24.899  0.00  0.00    +0.421 C 
ENDBRANCH  27  33
ENDBRANCH   5  24
TORSDOF 3
ENDMDL
