MODEL 1
REMARK VINA RESULT:     -11.4      0.000      0.000
REMARK  Name = 9801640
REMARK  6 active torsions:
REMARK  status: ('A' for Active; 'I' for Inactive)
REMARK    1  A    between atoms: C_1  and  C_2
REMARK    2  A    between atoms: C_1  and  C_16
REMARK    3  A    between atoms: C_2  and  N_3
REMARK    4  A    between atoms: C_7  and  C_11
REMARK    5  A    between atoms: C_16  and  C_17
REMARK    6  A    between atoms: C_17  and  N_21
REMARK                            x       y       z     vdW  Elec       q    Type
REMARK                         _______ _______ _______ _____ _____    ______ ____
ROOT
ATOM      1  C   UNL     1      33.946 -15.359 -23.994  0.00  0.00    -0.021 C 
ENDROOT
BRANCH   1   2
ATOM      2  C   UNL     1      35.218 -16.119 -24.370  0.00  0.00    -0.077 C 
BRANCH   2   3
ATOM      3  N   UNL     1      35.425 -17.243 -23.460  0.00  0.00    +0.390 N 
ATOM      4  C   UNL     1      35.191 -16.848 -22.068  0.00  0.00    -0.072 C 
ATOM      5  C   UNL     1      34.563 -18.378 -23.830  0.00  0.00    -0.051 C 
ATOM      6  C   UNL     1      35.576 -17.999 -21.127  0.00  0.00    +0.005 C 
ATOM      7  C   UNL     1      35.001 -19.330 -21.556  0.00  0.00    -0.013 C 
ATOM      8  C   UNL     1      34.535 -19.484 -22.810  0.00  0.00    -0.052 C 
ATOM      9  H   UNL     1      36.397 -17.539 -23.543  0.00  0.00    -0.079 HD
BRANCH   7  11
ATOM     10  N   UNL     1      36.167 -20.786 -20.034  0.00  0.00    -0.244 NA
ATOM     11  C   UNL     1      34.974 -20.436 -20.569  0.00  0.00    +0.077 C 
ATOM     12  C   UNL     1      33.772 -21.048 -20.243  0.00  0.00    +0.019 C 
ATOM     13  C   UNL     1      33.797 -22.081 -19.312  0.00  0.00    +0.003 C 
ATOM     14  C   UNL     1      36.152 -21.795 -19.134  0.00  0.00    +0.099 C 
ATOM     15  C   UNL     1      35.006 -22.468 -18.743  0.00  0.00    +0.021 C 
ENDBRANCH   7  11
ENDBRANCH   2   3
ENDBRANCH   1   2
BRANCH   1  16
ATOM     16  C   UNL     1      34.270 -13.932 -23.542  0.00  0.00    +0.020 C 
BRANCH  16  17
ATOM     17  C   UNL     1      33.585 -12.875 -24.402  0.00  0.00    +0.099 C 
BRANCH  17  21
ATOM     18 CL   UNL     1      35.213 -10.516 -25.042  0.00  0.00    -0.062 Cl
ATOM     19  O   UNL     1      32.188  -8.929 -23.044  0.00  0.00    -0.448 OA
ATOM     20  O   UNL     1      31.705 -12.890 -22.373  0.00  0.00    -0.269 OA
ATOM     21  N   UNL     1      33.240 -11.667 -23.638  0.00  0.00    -0.244 N 
ATOM     22  C   UNL     1      32.342 -11.850 -22.563  0.00  0.00    +0.256 C 
ATOM     23  C   UNL     1      33.805 -10.452 -24.021  0.00  0.00    +0.151 C 
ATOM     24  C   UNL     1      32.194 -10.811 -21.516  0.00  0.00    +0.088 C 
ATOM     25  C   UNL     1      32.110  -9.448 -21.783  0.00  0.00    +0.150 C 
ATOM     26  C   UNL     1      33.328  -9.234 -23.735  0.00  0.00    +0.206 C 
ATOM     27  C   UNL     1      32.069 -11.249 -20.187  0.00  0.00    +0.008 C 
ATOM     28  C   UNL     1      31.882  -8.532 -20.749  0.00  0.00    +0.038 C 
ATOM     29  C   UNL     1      31.863 -10.335 -19.152  0.00  0.00    +0.000 C 
ATOM     30  C   UNL     1      31.765  -8.976 -19.434  0.00  0.00    +0.003 C 
ENDBRANCH  17  21
ENDBRANCH  16  17
ENDBRANCH   1  16
TORSDOF 6
ENDMDL
MODEL 2
REMARK VINA RESULT:     -11.0      4.140     10.449
REMARK  Name = 9801640
REMARK  6 active torsions:
REMARK  status: ('A' for Active; 'I' for Inactive)
REMARK    1  A    between atoms: C_1  and  C_2
REMARK    2  A    between atoms: C_1  and  C_16
REMARK    3  A    between atoms: C_2  and  N_3
REMARK    4  A    between atoms: C_7  and  C_11
REMARK    5  A    between atoms: C_16  and  C_17
REMARK    6  A    between atoms: C_17  and  N_21
REMARK                            x       y       z     vdW  Elec       q    Type
REMARK                         _______ _______ _______ _____ _____    ______ ____
ROOT
ATOM      1  C   UNL     1      36.356 -18.329 -22.319  0.00  0.00    -0.021 C 
ENDROOT
BRANCH   1   2
ATOM      2  C   UNL     1      35.404 -18.019 -23.473  0.00  0.00    -0.077 C 
BRANCH   2   3
ATOM      3  N   UNL     1      35.162 -16.581 -23.559  0.00  0.00    +0.390 N 
ATOM      4  C   UNL     1      33.996 -16.289 -24.398  0.00  0.00    -0.072 C 
ATOM      5  C   UNL     1      34.995 -15.999 -22.217  0.00  0.00    -0.051 C 
ATOM      6  C   UNL     1      33.867 -14.772 -24.605  0.00  0.00    +0.005 C 
ATOM      7  C   UNL     1      33.984 -13.990 -23.316  0.00  0.00    -0.013 C 
ATOM      8  C   UNL     1      34.506 -14.576 -22.223  0.00  0.00    -0.052 C 
ATOM      9  H   UNL     1      35.977 -16.151 -23.995  0.00  0.00    -0.079 HD
BRANCH   7  11
ATOM     10  N   UNL     1      32.561 -12.279 -22.396  0.00  0.00    -0.244 NA
ATOM     11  C   UNL     1      33.518 -12.582 -23.304  0.00  0.00    +0.077 C 
ATOM     12  C   UNL     1      34.060 -11.663 -24.191  0.00  0.00    +0.019 C 
ATOM     13  C   UNL     1      33.591 -10.354 -24.143  0.00  0.00    +0.003 C 
ATOM     14  C   UNL     1      32.130 -10.997 -22.380  0.00  0.00    +0.099 C 
ATOM     15  C   UNL     1      32.608 -10.007 -23.223  0.00  0.00    +0.021 C 
ENDBRANCH   7  11
ENDBRANCH   2   3
ENDBRANCH   1   2
BRANCH   1  16
ATOM     16  C   UNL     1      35.612 -18.983 -21.150  0.00  0.00    +0.020 C 
BRANCH  16  17
ATOM     17  C   UNL     1      35.275 -20.447 -21.415  0.00  0.00    +0.099 C 
BRANCH  17  21
ATOM     18 CL   UNL     1      32.476 -20.391 -20.525  0.00  0.00    -0.062 Cl
ATOM     19  O   UNL     1      33.986 -23.342 -18.364  0.00  0.00    -0.448 OA
ATOM     20  O   UNL     1      37.293 -21.621 -19.934  0.00  0.00    -0.269 OA
ATOM     21  N   UNL     1      35.011 -21.195 -20.178  0.00  0.00    -0.244 N 
ATOM     22  C   UNL     1      36.149 -21.647 -19.474  0.00  0.00    +0.256 C 
ATOM     23  C   UNL     1      33.688 -21.407 -19.797  0.00  0.00    +0.151 C 
ATOM     24  C   UNL     1      36.039 -22.090 -18.063  0.00  0.00    +0.088 C 
ATOM     25  C   UNL     1      35.015 -22.899 -17.582  0.00  0.00    +0.150 C 
ATOM     26  C   UNL     1      33.248 -22.366 -18.972  0.00  0.00    +0.206 C 
ATOM     27  C   UNL     1      37.071 -21.713 -17.188  0.00  0.00    +0.008 C 
ATOM     28  C   UNL     1      35.025 -23.349 -16.257  0.00  0.00    +0.038 C 
ATOM     29  C   UNL     1      37.072 -22.143 -15.860  0.00  0.00    +0.000 C 
ATOM     30  C   UNL     1      36.050 -22.965 -15.395  0.00  0.00    +0.003 C 
ENDBRANCH  17  21
ENDBRANCH  16  17
ENDBRANCH   1  16
TORSDOF 6
ENDMDL
MODEL 3
REMARK VINA RESULT:     -11.0      6.670     11.987
REMARK  Name = 9801640
REMARK  6 active torsions:
REMARK  status: ('A' for Active; 'I' for Inactive)
REMARK    1  A    between atoms: C_1  and  C_2
REMARK    2  A    between atoms: C_1  and  C_16
REMARK    3  A    between atoms: C_2  and  N_3
REMARK    4  A    between atoms: C_7  and  C_11
REMARK    5  A    between atoms: C_16  and  C_17
REMARK    6  A    between atoms: C_17  and  N_21
REMARK                            x       y       z     vdW  Elec       q    Type
REMARK                         _______ _______ _______ _____ _____    ______ ____
ROOT
ATOM      1  C   UNL     1      37.103 -21.601 -16.971  0.00  0.00    -0.021 C 
ENDROOT
BRANCH   1   2
ATOM      2  C   UNL     1      36.404 -22.131 -18.222  0.00  0.00    -0.077 C 
BRANCH   2   3
ATOM      3  N   UNL     1      36.074 -21.030 -19.123  0.00  0.00    +0.390 N 
ATOM      4  C   UNL     1      37.167 -20.769 -20.065  0.00  0.00    -0.072 C 
ATOM      5  C   UNL     1      34.821 -21.304 -19.845  0.00  0.00    -0.051 C 
ATOM      6  C   UNL     1      36.862 -19.506 -20.884  0.00  0.00    +0.005 C 
ATOM      7  C   UNL     1      35.462 -19.498 -21.456  0.00  0.00    -0.013 C 
ATOM      8  C   UNL     1      34.534 -20.339 -20.964  0.00  0.00    -0.052 C 
ATOM      9  H   UNL     1      35.941 -20.191 -18.558  0.00  0.00    -0.079 HD
BRANCH   7  11
ATOM     10  N   UNL     1      35.432 -17.245 -22.304  0.00  0.00    -0.244 NA
ATOM     11  C   UNL     1      35.156 -18.547 -22.551  0.00  0.00    +0.077 C 
ATOM     12  C   UNL     1      34.618 -19.009 -23.744  0.00  0.00    +0.019 C 
ATOM     13  C   UNL     1      34.347 -18.079 -24.742  0.00  0.00    +0.003 C 
ATOM     14  C   UNL     1      35.154 -16.370 -23.298  0.00  0.00    +0.099 C 
ATOM     15  C   UNL     1      34.617 -16.733 -24.522  0.00  0.00    +0.021 C 
ENDBRANCH   7  11
ENDBRANCH   2   3
ENDBRANCH   1   2
BRANCH   1  16
ATOM     16  C   UNL     1      36.716 -22.419 -15.735  0.00  0.00    +0.020 C 
BRANCH  16  17
ATOM     17  C   UNL     1      35.974 -23.703 -16.089  0.00  0.00    +0.099 C 
BRANCH  17  21
ATOM     18 CL   UNL     1      36.522 -25.289 -13.678  0.00  0.00    -0.062 Cl
ATOM     19  O   UNL     1      32.978 -23.728 -12.868  0.00  0.00    -0.448 OA
ATOM     20  O   UNL     1      33.428 -22.893 -16.801  0.00  0.00    -0.269 OA
ATOM     21  N   UNL     1      34.805 -23.932 -15.228  0.00  0.00    -0.244 N 
ATOM     22  C   UNL     1      33.555 -23.559 -15.770  0.00  0.00    +0.256 C 
ATOM     23  C   UNL     1      35.006 -24.483 -13.964  0.00  0.00    +0.151 C 
ATOM     24  C   UNL     1      32.293 -24.053 -15.170  0.00  0.00    +0.088 C 
ATOM     25  C   UNL     1      32.053 -24.103 -13.800  0.00  0.00    +0.150 C 
ATOM     26  C   UNL     1      34.170 -24.393 -12.922  0.00  0.00    +0.206 C 
ATOM     27  C   UNL     1      31.266 -24.430 -16.051  0.00  0.00    +0.008 C 
ATOM     28  C   UNL     1      30.803 -24.499 -13.310  0.00  0.00    +0.038 C 
ATOM     29  C   UNL     1      30.025 -24.846 -15.563  0.00  0.00    +0.000 C 
ATOM     30  C   UNL     1      29.793 -24.877 -14.191  0.00  0.00    +0.003 C 
ENDBRANCH  17  21
ENDBRANCH  16  17
ENDBRANCH   1  16
TORSDOF 6
ENDMDL
MODEL 4
REMARK VINA RESULT:     -10.8      2.361      3.494
REMARK  Name = 9801640
REMARK  6 active torsions:
REMARK  status: ('A' for Active; 'I' for Inactive)
REMARK    1  A    between atoms: C_1  and  C_2
REMARK    2  A    between atoms: C_1  and  C_16
REMARK    3  A    between atoms: C_2  and  N_3
REMARK    4  A    between atoms: C_7  and  C_11
REMARK    5  A    between atoms: C_16  and  C_17
REMARK    6  A    between atoms: C_17  and  N_21
REMARK                            x       y       z     vdW  Elec       q    Type
REMARK                         _______ _______ _______ _____ _____    ______ ____
ROOT
ATOM      1  C   UNL     1      32.844 -13.288 -23.154  0.00  0.00    -0.021 C 
ENDROOT
BRANCH   1   2
ATOM      2  C   UNL     1      34.193 -13.923 -23.486  0.00  0.00    -0.077 C 
BRANCH   2   3
ATOM      3  N   UNL     1      34.283 -15.259 -22.902  0.00  0.00    +0.390 N 
ATOM      4  C   UNL     1      35.129 -16.137 -23.716  0.00  0.00    -0.072 C 
ATOM      5  C   UNL     1      34.782 -15.192 -21.520  0.00  0.00    -0.051 C 
ATOM      6  C   UNL     1      35.068 -17.572 -23.171  0.00  0.00    +0.005 C 
ATOM      7  C   UNL     1      35.265 -17.643 -21.673  0.00  0.00    -0.013 C 
ATOM      8  C   UNL     1      35.130 -16.531 -20.928  0.00  0.00    -0.052 C 
ATOM      9  H   UNL     1      33.344 -15.657 -22.885  0.00  0.00    -0.079 HD
BRANCH   7  11
ATOM     10  N   UNL     1      36.875 -19.111 -20.648  0.00  0.00    -0.244 NA
ATOM     11  C   UNL     1      35.598 -18.956 -21.069  0.00  0.00    +0.077 C 
ATOM     12  C   UNL     1      34.625 -19.939 -20.962  0.00  0.00    +0.019 C 
ATOM     13  C   UNL     1      34.984 -21.154 -20.390  0.00  0.00    +0.003 C 
ATOM     14  C   UNL     1      37.187 -20.306 -20.098  0.00  0.00    +0.099 C 
ATOM     15  C   UNL     1      36.288 -21.349 -19.947  0.00  0.00    +0.021 C 
ENDBRANCH   7  11
ENDBRANCH   2   3
ENDBRANCH   1   2
BRANCH   1  16
ATOM     16  C   UNL     1      33.003 -12.157 -22.133  0.00  0.00    +0.020 C 
BRANCH  16  17
ATOM     17  C   UNL     1      31.697 -11.414 -21.871  0.00  0.00    +0.099 C 
BRANCH  17  21
ATOM     18 CL   UNL     1      31.158 -10.401 -19.168  0.00  0.00    -0.062 Cl
ATOM     19  O   UNL     1      33.126  -7.389 -20.816  0.00  0.00    -0.448 OA
ATOM     20  O   UNL     1      32.316  -9.755 -23.996  0.00  0.00    -0.269 OA
ATOM     21  N   UNL     1      31.897  -9.967 -21.709  0.00  0.00    -0.244 N 
ATOM     22  C   UNL     1      32.103  -9.233 -22.899  0.00  0.00    +0.256 C 
ATOM     23  C   UNL     1      31.878  -9.432 -20.423  0.00  0.00    +0.151 C 
ATOM     24  C   UNL     1      31.963  -7.758 -22.910  0.00  0.00    +0.088 C 
ATOM     25  C   UNL     1      32.471  -6.923 -21.920  0.00  0.00    +0.150 C 
ATOM     26  C   UNL     1      32.422  -8.269 -20.043  0.00  0.00    +0.206 C 
ATOM     27  C   UNL     1      31.333  -7.180 -24.025  0.00  0.00    +0.008 C 
ATOM     28  C   UNL     1      32.377  -5.532 -22.044  0.00  0.00    +0.038 C 
ATOM     29  C   UNL     1      31.219  -5.793 -24.140  0.00  0.00    +0.000 C 
ATOM     30  C   UNL     1      31.746  -4.969 -23.150  0.00  0.00    +0.003 C 
ENDBRANCH  17  21
ENDBRANCH  16  17
ENDBRANCH   1  16
TORSDOF 6
ENDMDL
MODEL 5
REMARK VINA RESULT:     -10.7      6.492     12.229
REMARK  Name = 9801640
REMARK  6 active torsions:
REMARK  status: ('A' for Active; 'I' for Inactive)
REMARK    1  A    between atoms: C_1  and  C_2
REMARK    2  A    between atoms: C_1  and  C_16
REMARK    3  A    between atoms: C_2  and  N_3
REMARK    4  A    between atoms: C_7  and  C_11
REMARK    5  A    between atoms: C_16  and  C_17
REMARK    6  A    between atoms: C_17  and  N_21
REMARK                            x       y       z     vdW  Elec       q    Type
REMARK                         _______ _______ _______ _____ _____    ______ ____
ROOT
ATOM      1  C   UNL     1      35.095 -22.445 -18.956  0.00  0.00    -0.021 C 
ENDROOT
BRANCH   1   2
ATOM      2  C   UNL     1      36.330 -21.683 -19.435  0.00  0.00    -0.077 C 
BRANCH   2   3
ATOM      3  N   UNL     1      36.005 -20.879 -20.611  0.00  0.00    +0.390 N 
ATOM      4  C   UNL     1      34.584 -20.521 -20.632  0.00  0.00    -0.072 C 
ATOM      5  C   UNL     1      36.846 -19.673 -20.667  0.00  0.00    -0.051 C 
ATOM      6  C   UNL     1      34.240 -19.823 -21.956  0.00  0.00    +0.005 C 
ATOM      7  C   UNL     1      35.217 -18.727 -22.317  0.00  0.00    -0.013 C 
ATOM      8  C   UNL     1      36.416 -18.673 -21.708  0.00  0.00    -0.052 C 
ATOM      9  H   UNL     1      36.198 -21.442 -21.439  0.00  0.00    -0.079 HD
BRANCH   7  11
ATOM     10  N   UNL     1      34.909 -16.437 -22.992  0.00  0.00    -0.244 NA
ATOM     11  C   UNL     1      34.817 -17.739 -23.348  0.00  0.00    +0.077 C 
ATOM     12  C   UNL     1      34.379 -18.171 -24.592  0.00  0.00    +0.019 C 
ATOM     13  C   UNL     1      34.014 -17.208 -25.526  0.00  0.00    +0.003 C 
ATOM     14  C   UNL     1      34.544 -15.529 -23.927  0.00  0.00    +0.099 C 
ATOM     15  C   UNL     1      34.095 -15.860 -25.195  0.00  0.00    +0.021 C 
ENDBRANCH   7  11
ENDBRANCH   2   3
ENDBRANCH   1   2
BRANCH   1  16
ATOM     16  C   UNL     1      35.028 -22.479 -17.426  0.00  0.00    +0.020 C 
BRANCH  16  17
ATOM     17  C   UNL     1      34.200 -23.647 -16.901  0.00  0.00    +0.099 C 
BRANCH  17  21
ATOM     18 CL   UNL     1      31.801 -22.953 -15.355  0.00  0.00    -0.062 Cl
ATOM     19  O   UNL     1      33.945 -24.975 -12.714  0.00  0.00    -0.448 OA
ATOM     20  O   UNL     1      36.592 -24.361 -15.711  0.00  0.00    -0.269 OA
ATOM     21  N   UNL     1      34.336 -23.823 -15.447  0.00  0.00    -0.244 N 
ATOM     22  C   UNL     1      35.642 -24.084 -14.975  0.00  0.00    +0.256 C 
ATOM     23  C   UNL     1      33.194 -23.729 -14.655  0.00  0.00    +0.151 C 
ATOM     24  C   UNL     1      35.970 -23.929 -13.538  0.00  0.00    +0.088 C 
ATOM     25  C   UNL     1      35.154 -24.375 -12.503  0.00  0.00    +0.150 C 
ATOM     26  C   UNL     1      33.040 -24.240 -13.427  0.00  0.00    +0.206 C 
ATOM     27  C   UNL     1      37.212 -23.354 -13.221  0.00  0.00    +0.008 C 
ATOM     28  C   UNL     1      35.572 -24.273 -11.171  0.00  0.00    +0.038 C 
ATOM     29  C   UNL     1      37.622 -23.232 -11.891  0.00  0.00    +0.000 C 
ATOM     30  C   UNL     1      36.802 -23.696 -10.867  0.00  0.00    +0.003 C 
ENDBRANCH  17  21
ENDBRANCH  16  17
ENDBRANCH   1  16
TORSDOF 6
ENDMDL
MODEL 6
REMARK VINA RESULT:     -10.6      1.704      2.738
REMARK  Name = 9801640
REMARK  6 active torsions:
REMARK  status: ('A' for Active; 'I' for Inactive)
REMARK    1  A    between atoms: C_1  and  C_2
REMARK    2  A    between atoms: C_1  and  C_16
REMARK    3  A    between atoms: C_2  and  N_3
REMARK    4  A    between atoms: C_7  and  C_11
REMARK    5  A    between atoms: C_16  and  C_17
REMARK    6  A    between atoms: C_17  and  N_21
REMARK                            x       y       z     vdW  Elec       q    Type
REMARK                         _______ _______ _______ _____ _____    ______ ____
ROOT
ATOM      1  C   UNL     1      33.643 -14.391 -23.891  0.00  0.00    -0.021 C 
ENDROOT
BRANCH   1   2
ATOM      2  C   UNL     1      34.863 -15.310 -23.938  0.00  0.00    -0.077 C 
BRANCH   2   3
ATOM      3  N   UNL     1      34.637 -16.494 -23.112  0.00  0.00    +0.390 N 
ATOM      4  C   UNL     1      35.037 -17.716 -23.818  0.00  0.00    -0.072 C 
ATOM      5  C   UNL     1      35.349 -16.379 -21.829  0.00  0.00    -0.051 C 
ATOM      6  C   UNL     1      34.635 -18.949 -22.995  0.00  0.00    +0.005 C 
ATOM      7  C   UNL     1      35.040 -18.846 -21.541  0.00  0.00    -0.013 C 
ATOM      8  C   UNL     1      35.369 -17.649 -21.022  0.00  0.00    -0.052 C 
ATOM      9  H   UNL     1      33.638 -16.557 -22.919  0.00  0.00    -0.079 HD
BRANCH   7  11
ATOM     10  N   UNL     1      36.265 -20.487 -20.275  0.00  0.00    -0.244 NA
ATOM     11  C   UNL     1      35.054 -20.085 -20.726  0.00  0.00    +0.077 C 
ATOM     12  C   UNL     1      33.870 -20.760 -20.467  0.00  0.00    +0.019 C 
ATOM     13  C   UNL     1      33.934 -21.917 -19.698  0.00  0.00    +0.003 C 
ATOM     14  C   UNL     1      36.287 -21.617 -19.532  0.00  0.00    +0.099 C 
ATOM     15  C   UNL     1      35.161 -22.360 -19.218  0.00  0.00    +0.021 C 
ENDBRANCH   7  11
ENDBRANCH   2   3
ENDBRANCH   1   2
BRANCH   1  16
ATOM     16  C   UNL     1      34.003 -13.026 -23.295  0.00  0.00    +0.020 C 
BRANCH  16  17
ATOM     17  C   UNL     1      33.393 -11.866 -24.075  0.00  0.00    +0.099 C 
BRANCH  17  21
ATOM     18 CL   UNL     1      31.118 -12.361 -22.284  0.00  0.00    -0.062 Cl
ATOM     19  O   UNL     1      32.718  -9.095 -20.725  0.00  0.00    -0.448 OA
ATOM     20  O   UNL     1      34.630  -9.401 -24.277  0.00  0.00    -0.269 OA
ATOM     21  N   UNL     1      33.038 -10.733 -23.208  0.00  0.00    -0.244 N 
ATOM     22  C   UNL     1      33.679  -9.508 -23.498  0.00  0.00    +0.256 C 
ATOM     23  C   UNL     1      32.121 -10.942 -22.180  0.00  0.00    +0.151 C 
ATOM     24  C   UNL     1      33.159  -8.234 -22.947  0.00  0.00    +0.088 C 
ATOM     25  C   UNL     1      32.730  -8.075 -21.633  0.00  0.00    +0.150 C 
ATOM     26  C   UNL     1      31.982 -10.190 -21.081  0.00  0.00    +0.206 C 
ATOM     27  C   UNL     1      33.165  -7.115 -23.797  0.00  0.00    +0.008 C 
ATOM     28  C   UNL     1      32.334  -6.818 -21.160  0.00  0.00    +0.038 C 
ATOM     29  C   UNL     1      32.750  -5.865 -23.333  0.00  0.00    +0.000 C 
ATOM     30  C   UNL     1      32.339  -5.717 -22.012  0.00  0.00    +0.003 C 
ENDBRANCH  17  21
ENDBRANCH  16  17
ENDBRANCH   1  16
TORSDOF 6
ENDMDL
MODEL 7
REMARK VINA RESULT:     -10.1      2.435      4.401
REMARK  Name = 9801640
REMARK  6 active torsions:
REMARK  status: ('A' for Active; 'I' for Inactive)
REMARK    1  A    between atoms: C_1  and  C_2
REMARK    2  A    between atoms: C_1  and  C_16
REMARK    3  A    between atoms: C_2  and  N_3
REMARK    4  A    between atoms: C_7  and  C_11
REMARK    5  A    between atoms: C_16  and  C_17
REMARK    6  A    between atoms: C_17  and  N_21
REMARK                            x       y       z     vdW  Elec       q    Type
REMARK                         _______ _______ _______ _____ _____    ______ ____
ROOT
ATOM      1  C   UNL     1      34.127 -11.736 -25.604  0.00  0.00    -0.021 C 
ENDROOT
BRANCH   1   2
ATOM      2  C   UNL     1      33.063 -12.770 -25.969  0.00  0.00    -0.077 C 
BRANCH   2   3
ATOM      3  N   UNL     1      33.251 -13.989 -25.187  0.00  0.00    +0.390 N 
ATOM      4  C   UNL     1      33.866 -15.047 -25.994  0.00  0.00    -0.072 C 
ATOM      5  C   UNL     1      34.055 -13.719 -23.985  0.00  0.00    -0.051 C 
ATOM      6  C   UNL     1      33.897 -16.360 -25.198  0.00  0.00    +0.005 C 
ATOM      7  C   UNL     1      34.431 -16.186 -23.794  0.00  0.00    -0.013 C 
ATOM      8  C   UNL     1      34.498 -14.956 -23.251  0.00  0.00    -0.052 C 
ATOM      9  H   UNL     1      32.332 -14.316 -24.890  0.00  0.00    -0.079 HD
BRANCH   7  11
ATOM     10  N   UNL     1      35.496 -17.177 -21.875  0.00  0.00    -0.244 NA
ATOM     11  C   UNL     1      34.862 -17.395 -23.050  0.00  0.00    +0.077 C 
ATOM     12  C   UNL     1      34.609 -18.657 -23.569  0.00  0.00    +0.019 C 
ATOM     13  C   UNL     1      35.032 -19.761 -22.837  0.00  0.00    +0.003 C 
ATOM     14  C   UNL     1      35.893 -18.275 -21.192  0.00  0.00    +0.099 C 
ATOM     15  C   UNL     1      35.687 -19.574 -21.625  0.00  0.00    +0.021 C 
ENDBRANCH   7  11
ENDBRANCH   2   3
ENDBRANCH   1   2
BRANCH   1  16
ATOM     16  C   UNL     1      33.488 -10.450 -25.071  0.00  0.00    +0.020 C 
BRANCH  16  17
ATOM     17  C   UNL     1      34.159  -9.945 -23.798  0.00  0.00    +0.099 C 
BRANCH  17  21
ATOM     18 CL   UNL     1      32.053 -11.141 -22.138  0.00  0.00    -0.062 Cl
ATOM     19  O   UNL     1      32.177  -7.424 -20.787  0.00  0.00    -0.448 OA
ATOM     20  O   UNL     1      34.422  -7.214 -24.146  0.00  0.00    -0.269 OA
ATOM     21  N   UNL     1      33.327  -8.974 -23.072  0.00  0.00    -0.244 N 
ATOM     22  C   UNL     1      33.502  -7.619 -23.431  0.00  0.00    +0.256 C 
ATOM     23  C   UNL     1      32.450  -9.446 -22.098  0.00  0.00    +0.151 C 
ATOM     24  C   UNL     1      32.498  -6.600 -23.043  0.00  0.00    +0.088 C 
ATOM     25  C   UNL     1      31.908  -6.531 -21.785  0.00  0.00    +0.150 C 
ATOM     26  C   UNL     1      31.934  -8.734 -21.089  0.00  0.00    +0.206 C 
ATOM     27  C   UNL     1      32.181  -5.615 -23.994  0.00  0.00    +0.008 C 
ATOM     28  C   UNL     1      31.034  -5.486 -21.464  0.00  0.00    +0.038 C 
ATOM     29  C   UNL     1      31.292  -4.584 -23.682  0.00  0.00    +0.000 C 
ATOM     30  C   UNL     1      30.722  -4.518 -22.415  0.00  0.00    +0.003 C 
ENDBRANCH  17  21
ENDBRANCH  16  17
ENDBRANCH   1  16
TORSDOF 6
ENDMDL
MODEL 8
REMARK VINA RESULT:      -9.9      3.539      5.685
REMARK  Name = 9801640
REMARK  6 active torsions:
REMARK  status: ('A' for Active; 'I' for Inactive)
REMARK    1  A    between atoms: C_1  and  C_2
REMARK    2  A    between atoms: C_1  and  C_16
REMARK    3  A    between atoms: C_2  and  N_3
REMARK    4  A    between atoms: C_7  and  C_11
REMARK    5  A    between atoms: C_16  and  C_17
REMARK    6  A    between atoms: C_17  and  N_21
REMARK                            x       y       z     vdW  Elec       q    Type
REMARK                         _______ _______ _______ _____ _____    ______ ____
ROOT
ATOM      1  C   UNL     1      34.791 -10.779 -24.374  0.00  0.00    -0.021 C 
ENDROOT
BRANCH   1   2
ATOM      2  C   UNL     1      33.590 -11.722 -24.303  0.00  0.00    -0.077 C 
BRANCH   2   3
ATOM      3  N   UNL     1      34.026 -13.108 -24.454  0.00  0.00    +0.390 N 
ATOM      4  C   UNL     1      34.025 -13.807 -23.166  0.00  0.00    -0.072 C 
ATOM      5  C   UNL     1      33.182 -13.816 -25.430  0.00  0.00    -0.051 C 
ATOM      6  C   UNL     1      34.643 -15.204 -23.329  0.00  0.00    +0.005 C 
ATOM      7  C   UNL     1      34.080 -15.964 -24.509  0.00  0.00    -0.013 C 
ATOM      8  C   UNL     1      33.406 -15.304 -25.469  0.00  0.00    -0.052 C 
ATOM      9  H   UNL     1      34.983 -13.100 -24.805  0.00  0.00    -0.079 HD
BRANCH   7  11
ATOM     10  N   UNL     1      33.978 -18.031 -25.740  0.00  0.00    -0.244 NA
ATOM     11  C   UNL     1      34.300 -17.429 -24.571  0.00  0.00    +0.077 C 
ATOM     12  C   UNL     1      34.807 -18.103 -23.470  0.00  0.00    +0.019 C 
ATOM     13  C   UNL     1      34.996 -19.477 -23.575  0.00  0.00    +0.003 C 
ATOM     14  C   UNL     1      34.174 -19.367 -25.804  0.00  0.00    +0.099 C 
ATOM     15  C   UNL     1      34.675 -20.128 -24.761  0.00  0.00    +0.021 C 
ENDBRANCH   7  11
ENDBRANCH   2   3
ENDBRANCH   1   2
BRANCH   1  16
ATOM     16  C   UNL     1      34.339  -9.320 -24.501  0.00  0.00    +0.020 C 
BRANCH  16  17
ATOM     17  C   UNL     1      34.044  -8.678 -23.150  0.00  0.00    +0.099 C 
BRANCH  17  21
ATOM     18 CL   UNL     1      31.213  -9.088 -22.483  0.00  0.00    -0.062 Cl
ATOM     19  O   UNL     1      31.517  -5.143 -22.461  0.00  0.00    -0.448 OA
ATOM     20  O   UNL     1      35.018  -6.285 -24.136  0.00  0.00    -0.269 OA
ATOM     21  N   UNL     1      33.206  -7.476 -23.270  0.00  0.00    -0.244 N 
ATOM     22  C   UNL     1      33.812  -6.359 -23.890  0.00  0.00    +0.256 C 
ATOM     23  C   UNL     1      31.906  -7.517 -22.772  0.00  0.00    +0.151 C 
ATOM     24  C   UNL     1      32.987  -5.232 -24.386  0.00  0.00    +0.088 C 
ATOM     25  C   UNL     1      31.925  -4.677 -23.679  0.00  0.00    +0.150 C 
ATOM     26  C   UNL     1      31.159  -6.461 -22.427  0.00  0.00    +0.206 C 
ATOM     27  C   UNL     1      33.353  -4.660 -25.616  0.00  0.00    +0.008 C 
ATOM     28  C   UNL     1      31.249  -3.555 -24.172  0.00  0.00    +0.038 C 
ATOM     29  C   UNL     1      32.665  -3.555 -26.121  0.00  0.00    +0.000 C 
ATOM     30  C   UNL     1      31.615  -3.000 -25.396  0.00  0.00    +0.003 C 
ENDBRANCH  17  21
ENDBRANCH  16  17
ENDBRANCH   1  16
TORSDOF 6
ENDMDL
MODEL 9
REMARK VINA RESULT:      -9.9      3.579      6.209
REMARK  Name = 9801640
REMARK  6 active torsions:
REMARK  status: ('A' for Active; 'I' for Inactive)
REMARK    1  A    between atoms: C_1  and  C_2
REMARK    2  A    between atoms: C_1  and  C_16
REMARK    3  A    between atoms: C_2  and  N_3
REMARK    4  A    between atoms: C_7  and  C_11
REMARK    5  A    between atoms: C_16  and  C_17
REMARK    6  A    between atoms: C_17  and  N_21
REMARK                            x       y       z     vdW  Elec       q    Type
REMARK                         _______ _______ _______ _____ _____    ______ ____
ROOT
ATOM      1  C   UNL     1      32.624 -10.244 -22.765  0.00  0.00    -0.021 C 
ENDROOT
BRANCH   1   2
ATOM      2  C   UNL     1      33.321 -10.482 -24.104  0.00  0.00    -0.077 C 
BRANCH   2   3
ATOM      3  N   UNL     1      33.771 -11.869 -24.202  0.00  0.00    +0.390 N 
ATOM      4  C   UNL     1      33.345 -12.648 -23.035  0.00  0.00    -0.072 C 
ATOM      5  C   UNL     1      33.286 -12.488 -25.446  0.00  0.00    -0.051 C 
ATOM      6  C   UNL     1      33.971 -14.050 -23.086  0.00  0.00    +0.005 C 
ATOM      7  C   UNL     1      33.818 -14.716 -24.435  0.00  0.00    -0.013 C 
ATOM      8  C   UNL     1      33.499 -13.976 -25.513  0.00  0.00    -0.052 C 
ATOM      9  H   UNL     1      34.791 -11.867 -24.221  0.00  0.00    -0.079 HD
BRANCH   7  11
ATOM     10  N   UNL     1      34.797 -16.730 -23.552  0.00  0.00    -0.244 NA
ATOM     11  C   UNL     1      34.035 -16.180 -24.525  0.00  0.00    +0.077 C 
ATOM     12  C   UNL     1      33.468 -16.904 -25.565  0.00  0.00    +0.019 C 
ATOM     13  C   UNL     1      33.700 -18.274 -25.608  0.00  0.00    +0.003 C 
ATOM     14  C   UNL     1      35.001 -18.065 -23.628  0.00  0.00    +0.099 C 
ATOM     15  C   UNL     1      34.480 -18.873 -24.624  0.00  0.00    +0.021 C 
ENDBRANCH   7  11
ENDBRANCH   2   3
ENDBRANCH   1   2
BRANCH   1  16
ATOM     16  C   UNL     1      31.751  -8.987 -22.813  0.00  0.00    +0.020 C 
BRANCH  16  17
ATOM     17  C   UNL     1      32.402  -7.793 -22.122  0.00  0.00    +0.099 C 
BRANCH  17  21
ATOM     18 CL   UNL     1      35.136  -7.518 -23.157  0.00  0.00    -0.062 Cl
ATOM     19  O   UNL     1      33.082  -5.148 -25.571  0.00  0.00    -0.448 OA
ATOM     20  O   UNL     1      30.413  -5.942 -22.636  0.00  0.00    -0.269 OA
ATOM     21  N   UNL     1      32.600  -6.656 -23.032  0.00  0.00    -0.244 N 
ATOM     22  C   UNL     1      31.531  -5.736 -23.114  0.00  0.00    +0.256 C 
ATOM     23  C   UNL     1      33.797  -6.570 -23.740  0.00  0.00    +0.151 C 
ATOM     24  C   UNL     1      31.736  -4.391 -23.703  0.00  0.00    +0.088 C 
ATOM     25  C   UNL     1      32.459  -4.156 -24.868  0.00  0.00    +0.150 C 
ATOM     26  C   UNL     1      33.999  -5.879 -24.868  0.00  0.00    +0.206 C 
ATOM     27  C   UNL     1      31.103  -3.309 -23.070  0.00  0.00    +0.008 C 
ATOM     28  C   UNL     1      32.535  -2.869 -25.413  0.00  0.00    +0.038 C 
ATOM     29  C   UNL     1      31.196  -2.020 -23.600  0.00  0.00    +0.000 C 
ATOM     30  C   UNL     1      31.909  -1.801 -24.774  0.00  0.00    +0.003 C 
ENDBRANCH  17  21
ENDBRANCH  16  17
ENDBRANCH   1  16
TORSDOF 6
ENDMDL
