MODEL 1
REMARK VINA RESULT:     -12.2      0.000      0.000
REMARK  Name = 6914614
REMARK  7 active torsions:
REMARK  status: ('A' for Active; 'I' for Inactive)
REMARK    1  A    between atoms: O_1  and  C_4
REMARK    2  A    between atoms: O_1  and  C_18
REMARK    3  A    between atoms: C_9  and  C_13
REMARK    4  A    between atoms: C_18  and  C_19
REMARK    5  A    between atoms: C_19  and  N_20
REMARK    6  A    between atoms: C_19  and  C_24
REMARK    7  A    between atoms: C_24  and  C_26
REMARK                            x       y       z     vdW  Elec       q    Type
REMARK                         _______ _______ _______ _____ _____    ______ ____
ROOT
ATOM      1  O   UNL     1      35.599 -17.800 -23.444  0.00  0.00    -0.476 OA
ENDROOT
BRANCH   1   4
ATOM      2  N   UNL     1      33.051 -13.807 -24.382  0.00  0.00    -0.404 NA
ATOM      3  N   UNL     1      33.590 -16.858 -26.313  0.00  0.00    -0.258 NA
ATOM      4  C   UNL     1      34.791 -17.043 -24.232  0.00  0.00    +0.159 C 
ATOM      5  C   UNL     1      34.342 -15.773 -23.848  0.00  0.00    +0.063 C 
ATOM      6  C   UNL     1      33.509 -15.033 -24.704  0.00  0.00    +0.136 C 
ATOM      7  C   UNL     1      34.701 -15.199 -22.621  0.00  0.00    +0.008 C 
ATOM      8  C   UNL     1      34.389 -17.533 -25.462  0.00  0.00    +0.130 C 
ATOM      9  C   UNL     1      33.419 -13.288 -23.187  0.00  0.00    +0.131 C 
ATOM     10  C   UNL     1      34.233 -13.937 -22.280  0.00  0.00    +0.032 C 
ATOM     11  C   UNL     1      33.178 -15.633 -25.907  0.00  0.00    +0.184 C 
BRANCH   9  13
ATOM     12  N   UNL     1      31.874  -9.424 -22.368  0.00  0.00    -0.242 NA
ATOM     13  C   UNL     1      32.893 -11.973 -22.908  0.00  0.00    +0.033 C 
ATOM     14  C   UNL     1      33.330 -10.874 -23.642  0.00  0.00    +0.023 C 
ATOM     15  C   UNL     1      31.946 -11.796 -21.904  0.00  0.00    +0.023 C 
ATOM     16  C   UNL     1      32.794  -9.633 -23.336  0.00  0.00    +0.099 C 
ATOM     17  C   UNL     1      31.472 -10.513 -21.676  0.00  0.00    +0.099 C 
ENDBRANCH   9  13
ENDBRANCH   1   4
BRANCH   1  18
ATOM     18  C   UNL     1      35.145 -19.113 -23.116  0.00  0.00    +0.184 C 
BRANCH  18  19
ATOM     19  C   UNL     1      35.534 -19.510 -21.686  0.00  0.00    -0.017 C 
BRANCH  19  20
ATOM     20  N   UNL     1      35.567 -18.300 -20.856  0.00  0.00    +0.384 N 
ATOM     21  H   UNL     1      34.612 -18.009 -20.641  0.00  0.00    -0.089 HD
ATOM     22  H   UNL     1      36.043 -17.553 -21.362  0.00  0.00    -0.089 HD
ATOM     23  H   UNL     1      36.066 -18.496 -19.988  0.00  0.00    -0.089 HD
ENDBRANCH  19  20
BRANCH  19  24
ATOM     24  C   UNL     1      34.576 -20.526 -21.034  0.00  0.00    +0.009 C 
BRANCH  24  26
ATOM     25  N   UNL     1      36.634 -22.032 -18.421  0.00  0.00    -0.312 N 
ATOM     26  C   UNL     1      35.171 -21.241 -19.855  0.00  0.00    -0.008 C 
ATOM     27  C   UNL     1      34.453 -21.964 -18.883  0.00  0.00    +0.011 C 
ATOM     28  C   UNL     1      35.400 -22.457 -17.983  0.00  0.00    +0.048 C 
ATOM     29  C   UNL     1      36.500 -21.289 -19.563  0.00  0.00    +0.058 C 
ATOM     30  C   UNL     1      33.092 -22.257 -18.664  0.00  0.00    +0.001 C 
ATOM     31  C   UNL     1      35.053 -23.231 -16.870  0.00  0.00    +0.015 C 
ATOM     32  C   UNL     1      32.730 -23.031 -17.556  0.00  0.00    +0.000 C 
ATOM     33  C   UNL     1      33.698 -23.510 -16.673  0.00  0.00    +0.001 C 
ATOM     34  H   UNL     1      37.489 -22.233 -17.977  0.00  0.00    +0.152 HD
ENDBRANCH  24  26
ENDBRANCH  19  24
ENDBRANCH  18  19
ENDBRANCH   1  18
TORSDOF 7
ENDMDL
MODEL 2
REMARK VINA RESULT:     -12.0      2.558     10.927
REMARK  Name = 6914614
REMARK  7 active torsions:
REMARK  status: ('A' for Active; 'I' for Inactive)
REMARK    1  A    between atoms: O_1  and  C_4
REMARK    2  A    between atoms: O_1  and  C_18
REMARK    3  A    between atoms: C_9  and  C_13
REMARK    4  A    between atoms: C_18  and  C_19
REMARK    5  A    between atoms: C_19  and  N_20
REMARK    6  A    between atoms: C_19  and  C_24
REMARK    7  A    between atoms: C_24  and  C_26
REMARK                            x       y       z     vdW  Elec       q    Type
REMARK                         _______ _______ _______ _____ _____    ______ ____
ROOT
ATOM      1  O   UNL     1      35.436 -20.869 -20.362  0.00  0.00    -0.476 OA
ENDROOT
BRANCH   1   4
ATOM      2  N   UNL     1      35.278 -23.428 -16.269  0.00  0.00    -0.404 NA
ATOM      3  N   UNL     1      32.732 -22.700 -18.783  0.00  0.00    -0.258 NA
ATOM      4  C   UNL     1      34.791 -21.638 -19.445  0.00  0.00    +0.159 C 
ATOM      5  C   UNL     1      35.428 -22.136 -18.301  0.00  0.00    +0.063 C 
ATOM      6  C   UNL     1      34.712 -22.925 -17.385  0.00  0.00    +0.136 C 
ATOM      7  C   UNL     1      36.776 -21.872 -18.029  0.00  0.00    +0.008 C 
ATOM      8  C   UNL     1      33.456 -21.947 -19.636  0.00  0.00    +0.130 C 
ATOM      9  C   UNL     1      36.583 -23.150 -16.043  0.00  0.00    +0.131 C 
ATOM     10  C   UNL     1      37.368 -22.386 -16.883  0.00  0.00    +0.032 C 
ATOM     11  C   UNL     1      33.382 -23.162 -17.689  0.00  0.00    +0.184 C 
BRANCH   9  13
ATOM     12  N   UNL     1      38.167 -24.827 -12.483  0.00  0.00    -0.242 NA
ATOM     13  C   UNL     1      37.122 -23.720 -14.831  0.00  0.00    +0.033 C 
ATOM     14  C   UNL     1      38.016 -24.785 -14.896  0.00  0.00    +0.023 C 
ATOM     15  C   UNL     1      36.751 -23.210 -13.591  0.00  0.00    +0.023 C 
ATOM     16  C   UNL     1      38.506 -25.297 -13.705  0.00  0.00    +0.099 C 
ATOM     17  C   UNL     1      37.297 -23.793 -12.458  0.00  0.00    +0.099 C 
ENDBRANCH   9  13
ENDBRANCH   1   4
BRANCH   1  18
ATOM     18  C   UNL     1      34.635 -20.236 -21.360  0.00  0.00    +0.184 C 
BRANCH  18  19
ATOM     19  C   UNL     1      35.134 -18.820 -21.676  0.00  0.00    -0.017 C 
BRANCH  19  20
ATOM     20  N   UNL     1      36.179 -18.464 -20.708  0.00  0.00    +0.384 N 
ATOM     21  H   UNL     1      36.641 -17.605 -21.006  0.00  0.00    -0.089 HD
ATOM     22  H   UNL     1      36.863 -19.217 -20.654  0.00  0.00    -0.089 HD
ATOM     23  H   UNL     1      35.757 -18.321 -19.789  0.00  0.00    -0.089 HD
ENDBRANCH  19  20
BRANCH  19  24
ATOM     24  C   UNL     1      35.709 -18.660 -23.097  0.00  0.00    +0.009 C 
BRANCH  24  26
ATOM     25  N   UNL     1      33.667 -17.038 -25.653  0.00  0.00    -0.312 N 
ATOM     26  C   UNL     1      34.890 -17.760 -23.978  0.00  0.00    -0.008 C 
ATOM     27  C   UNL     1      34.587 -16.410 -23.720  0.00  0.00    +0.011 C 
ATOM     28  C   UNL     1      33.810 -15.971 -24.795  0.00  0.00    +0.048 C 
ATOM     29  C   UNL     1      34.324 -18.133 -25.158  0.00  0.00    +0.058 C 
ATOM     30  C   UNL     1      34.887 -15.502 -22.685  0.00  0.00    +0.001 C 
ATOM     31  C   UNL     1      33.316 -14.665 -24.887  0.00  0.00    +0.015 C 
ATOM     32  C   UNL     1      34.400 -14.192 -22.764  0.00  0.00    +0.000 C 
ATOM     33  C   UNL     1      33.627 -13.782 -23.849  0.00  0.00    +0.001 C 
ATOM     34  H   UNL     1      33.165 -17.017 -26.499  0.00  0.00    +0.152 HD
ENDBRANCH  24  26
ENDBRANCH  19  24
ENDBRANCH  18  19
ENDBRANCH   1  18
TORSDOF 7
ENDMDL
MODEL 3
REMARK VINA RESULT:     -11.9      2.796     11.172
REMARK  Name = 6914614
REMARK  7 active torsions:
REMARK  status: ('A' for Active; 'I' for Inactive)
REMARK    1  A    between atoms: O_1  and  C_4
REMARK    2  A    between atoms: O_1  and  C_18
REMARK    3  A    between atoms: C_9  and  C_13
REMARK    4  A    between atoms: C_18  and  C_19
REMARK    5  A    between atoms: C_19  and  N_20
REMARK    6  A    between atoms: C_19  and  C_24
REMARK    7  A    between atoms: C_24  and  C_26
REMARK                            x       y       z     vdW  Elec       q    Type
REMARK                         _______ _______ _______ _____ _____    ______ ____
ROOT
ATOM      1  O   UNL     1      35.990 -20.851 -19.874  0.00  0.00    -0.476 OA
ENDROOT
BRANCH   1   4
ATOM      2  N   UNL     1      35.100 -23.707 -16.083  0.00  0.00    -0.404 NA
ATOM      3  N   UNL     1      33.007 -22.663 -18.887  0.00  0.00    -0.258 NA
ATOM      4  C   UNL     1      35.182 -21.656 -19.134  0.00  0.00    +0.159 C 
ATOM      5  C   UNL     1      35.613 -22.271 -17.952  0.00  0.00    +0.063 C 
ATOM      6  C   UNL     1      34.734 -23.093 -17.226  0.00  0.00    +0.136 C 
ATOM      7  C   UNL     1      36.911 -22.095 -17.455  0.00  0.00    +0.008 C 
ATOM      8  C   UNL     1      33.883 -21.883 -19.552  0.00  0.00    +0.130 C 
ATOM      9  C   UNL     1      36.362 -23.512 -15.636  0.00  0.00    +0.131 C 
ATOM     10  C   UNL     1      37.297 -22.725 -16.279  0.00  0.00    +0.032 C 
ATOM     11  C   UNL     1      33.460 -23.240 -17.749  0.00  0.00    +0.184 C 
BRANCH   9  13
ATOM     12  N   UNL     1      37.308 -25.534 -12.029  0.00  0.00    -0.242 NA
ATOM     13  C   UNL     1      36.684 -24.200 -14.409  0.00  0.00    +0.033 C 
ATOM     14  C   UNL     1      37.918 -24.826 -14.260  0.00  0.00    +0.023 C 
ATOM     15  C   UNL     1      35.763 -24.242 -13.367  0.00  0.00    +0.023 C 
ATOM     16  C   UNL     1      38.179 -25.472 -13.062  0.00  0.00    +0.099 C 
ATOM     17  C   UNL     1      36.120 -24.915 -12.209  0.00  0.00    +0.099 C 
ENDBRANCH   9  13
ENDBRANCH   1   4
BRANCH   1  18
ATOM     18  C   UNL     1      35.402 -20.190 -20.994  0.00  0.00    +0.184 C 
BRANCH  18  19
ATOM     19  C   UNL     1      36.148 -18.897 -21.348  0.00  0.00    -0.017 C 
BRANCH  19  20
ATOM     20  N   UNL     1      37.590 -19.137 -21.218  0.00  0.00    +0.384 N 
ATOM     21  H   UNL     1      37.749 -19.917 -20.580  0.00  0.00    -0.089 HD
ATOM     22  H   UNL     1      38.042 -18.300 -20.851  0.00  0.00    -0.089 HD
ATOM     23  H   UNL     1      37.981 -19.362 -22.133  0.00  0.00    -0.089 HD
ENDBRANCH  19  20
BRANCH  19  24
ATOM     24  C   UNL     1      35.864 -18.379 -22.771  0.00  0.00    +0.009 C 
BRANCH  24  26
ATOM     25  N   UNL     1      34.619 -14.998 -22.181  0.00  0.00    -0.312 N 
ATOM     26  C   UNL     1      35.256 -17.005 -22.801  0.00  0.00    -0.008 C 
ATOM     27  C   UNL     1      34.588 -16.424 -23.895  0.00  0.00    +0.011 C 
ATOM     28  C   UNL     1      34.192 -15.151 -23.481  0.00  0.00    +0.048 C 
ATOM     29  C   UNL     1      35.270 -16.127 -21.761  0.00  0.00    +0.058 C 
ATOM     30  C   UNL     1      34.272 -16.841 -25.204  0.00  0.00    +0.001 C 
ATOM     31  C   UNL     1      33.493 -14.269 -24.313  0.00  0.00    +0.015 C 
ATOM     32  C   UNL     1      33.574 -15.969 -26.048  0.00  0.00    +0.000 C 
ATOM     33  C   UNL     1      33.191 -14.703 -25.607  0.00  0.00    +0.001 C 
ATOM     34  H   UNL     1      34.477 -14.192 -21.633  0.00  0.00    +0.152 HD
ENDBRANCH  24  26
ENDBRANCH  19  24
ENDBRANCH  18  19
ENDBRANCH   1  18
TORSDOF 7
ENDMDL
MODEL 4
REMARK VINA RESULT:     -11.7      1.577     10.225
REMARK  Name = 6914614
REMARK  7 active torsions:
REMARK  status: ('A' for Active; 'I' for Inactive)
REMARK    1  A    between atoms: O_1  and  C_4
REMARK    2  A    between atoms: O_1  and  C_18
REMARK    3  A    between atoms: C_9  and  C_13
REMARK    4  A    between atoms: C_18  and  C_19
REMARK    5  A    between atoms: C_19  and  N_20
REMARK    6  A    between atoms: C_19  and  C_24
REMARK    7  A    between atoms: C_24  and  C_26
REMARK                            x       y       z     vdW  Elec       q    Type
REMARK                         _______ _______ _______ _____ _____    ______ ____
ROOT
ATOM      1  O   UNL     1      34.675 -15.226 -24.307  0.00  0.00    -0.476 OA
ENDROOT
BRANCH   1   4
ATOM      2  N   UNL     1      34.701 -19.797 -22.750  0.00  0.00    -0.404 NA
ATOM      3  N   UNL     1      33.906 -18.339 -26.001  0.00  0.00    -0.258 NA
ATOM      4  C   UNL     1      34.502 -16.562 -24.487  0.00  0.00    +0.159 C 
ATOM      5  C   UNL     1      34.710 -17.492 -23.461  0.00  0.00    +0.063 C 
ATOM      6  C   UNL     1      34.515 -18.862 -23.703  0.00  0.00    +0.136 C 
ATOM      7  C   UNL     1      35.113 -17.102 -22.177  0.00  0.00    +0.008 C 
ATOM      8  C   UNL     1      34.104 -17.034 -25.725  0.00  0.00    +0.130 C 
ATOM      9  C   UNL     1      35.091 -19.379 -21.523  0.00  0.00    +0.131 C 
ATOM     10  C   UNL     1      35.308 -18.058 -21.189  0.00  0.00    +0.032 C 
ATOM     11  C   UNL     1      34.116 -19.208 -24.984  0.00  0.00    +0.184 C 
BRANCH   9  13
ATOM     12  N   UNL     1      35.620 -22.474 -18.671  0.00  0.00    -0.242 NA
ATOM     13  C   UNL     1      35.271 -20.433 -20.552  0.00  0.00    +0.033 C 
ATOM     14  C   UNL     1      34.176 -21.161 -20.098  0.00  0.00    +0.023 C 
ATOM     15  C   UNL     1      36.541 -20.726 -20.064  0.00  0.00    +0.023 C 
ATOM     16  C   UNL     1      34.402 -22.163 -19.167  0.00  0.00    +0.099 C 
ATOM     17  C   UNL     1      36.661 -21.746 -19.134  0.00  0.00    +0.099 C 
ENDBRANCH   9  13
ENDBRANCH   1   4
BRANCH   1  18
ATOM     18  C   UNL     1      33.507 -14.406 -24.346  0.00  0.00    +0.184 C 
BRANCH  18  19
ATOM     19  C   UNL     1      33.563 -13.285 -23.300  0.00  0.00    -0.017 C 
BRANCH  19  20
ATOM     20  N   UNL     1      34.593 -13.619 -22.310  0.00  0.00    +0.384 N 
ATOM     21  H   UNL     1      34.331 -14.477 -21.823  0.00  0.00    -0.089 HD
ATOM     22  H   UNL     1      34.676 -12.859 -21.636  0.00  0.00    -0.089 HD
ATOM     23  H   UNL     1      35.487 -13.756 -22.781  0.00  0.00    -0.089 HD
ENDBRANCH  19  20
BRANCH  19  24
ATOM     24  C   UNL     1      33.880 -11.896 -23.887  0.00  0.00    +0.009 C 
BRANCH  24  26
ATOM     25  N   UNL     1      31.652  -9.686 -22.020  0.00  0.00    -0.312 N 
ATOM     26  C   UNL     1      33.136 -10.776 -23.214  0.00  0.00    -0.008 C 
ATOM     27  C   UNL     1      33.473  -9.411 -23.279  0.00  0.00    +0.011 C 
ATOM     28  C   UNL     1      32.518  -8.737 -22.514  0.00  0.00    +0.048 C 
ATOM     29  C   UNL     1      32.025 -10.933 -22.445  0.00  0.00    +0.058 C 
ATOM     30  C   UNL     1      34.490  -8.664 -23.906  0.00  0.00    +0.001 C 
ATOM     31  C   UNL     1      32.530  -7.348 -22.343  0.00  0.00    +0.015 C 
ATOM     32  C   UNL     1      34.515  -7.274 -23.744  0.00  0.00    +0.000 C 
ATOM     33  C   UNL     1      33.549  -6.627 -22.975  0.00  0.00    +0.001 C 
ATOM     34  H   UNL     1      30.876  -9.495 -21.445  0.00  0.00    +0.152 HD
ENDBRANCH  24  26
ENDBRANCH  19  24
ENDBRANCH  18  19
ENDBRANCH   1  18
TORSDOF 7
ENDMDL
MODEL 5
REMARK VINA RESULT:     -11.4      3.468      6.670
REMARK  Name = 6914614
REMARK  7 active torsions:
REMARK  status: ('A' for Active; 'I' for Inactive)
REMARK    1  A    between atoms: O_1  and  C_4
REMARK    2  A    between atoms: O_1  and  C_18
REMARK    3  A    between atoms: C_9  and  C_13
REMARK    4  A    between atoms: C_18  and  C_19
REMARK    5  A    between atoms: C_19  and  N_20
REMARK    6  A    between atoms: C_19  and  C_24
REMARK    7  A    between atoms: C_24  and  C_26
REMARK                            x       y       z     vdW  Elec       q    Type
REMARK                         _______ _______ _______ _____ _____    ______ ____
ROOT
ATOM      1  O   UNL     1      36.645 -22.430 -18.464  0.00  0.00    -0.476 OA
ENDROOT
BRANCH   1   4
ATOM      2  N   UNL     1      33.988 -19.829 -21.545  0.00  0.00    -0.404 NA
ATOM      3  N   UNL     1      33.067 -22.334 -19.054  0.00  0.00    -0.258 NA
ATOM      4  C   UNL     1      35.460 -22.056 -19.017  0.00  0.00    +0.159 C 
ATOM      5  C   UNL     1      35.375 -21.095 -20.032  0.00  0.00    +0.063 C 
ATOM      6  C   UNL     1      34.124 -20.746 -20.568  0.00  0.00    +0.136 C 
ATOM      7  C   UNL     1      36.511 -20.455 -20.545  0.00  0.00    +0.008 C 
ATOM      8  C   UNL     1      34.288 -22.638 -18.569  0.00  0.00    +0.130 C 
ATOM      9  C   UNL     1      35.110 -19.233 -22.013  0.00  0.00    +0.131 C 
ATOM     10  C   UNL     1      36.382 -19.507 -21.551  0.00  0.00    +0.032 C 
ATOM     11  C   UNL     1      33.026 -21.401 -20.035  0.00  0.00    +0.184 C 
BRANCH   9  13
ATOM     12  N   UNL     1      34.465 -16.380 -25.085  0.00  0.00    -0.242 NA
ATOM     13  C   UNL     1      34.890 -18.262 -23.058  0.00  0.00    +0.033 C 
ATOM     14  C   UNL     1      34.368 -18.660 -24.286  0.00  0.00    +0.023 C 
ATOM     15  C   UNL     1      35.199 -16.922 -22.846  0.00  0.00    +0.023 C 
ATOM     16  C   UNL     1      34.175 -17.689 -25.256  0.00  0.00    +0.099 C 
ATOM     17  C   UNL     1      34.970 -16.029 -23.881  0.00  0.00    +0.099 C 
ENDBRANCH   9  13
ENDBRANCH   1   4
BRANCH   1  18
ATOM     18  C   UNL     1      36.921 -21.969 -17.142  0.00  0.00    +0.184 C 
BRANCH  18  19
ATOM     19  C   UNL     1      36.611 -23.041 -16.089  0.00  0.00    -0.017 C 
BRANCH  19  20
ATOM     20  N   UNL     1      37.867 -23.689 -15.695  0.00  0.00    +0.384 N 
ATOM     21  H   UNL     1      37.668 -24.452 -15.048  0.00  0.00    -0.089 HD
ATOM     22  H   UNL     1      38.473 -23.007 -15.239  0.00  0.00    -0.089 HD
ATOM     23  H   UNL     1      38.334 -24.058 -16.524  0.00  0.00    -0.089 HD
ENDBRANCH  19  20
BRANCH  19  24
ATOM     24  C   UNL     1      35.923 -22.495 -14.822  0.00  0.00    +0.009 C 
BRANCH  24  26
ATOM     25  N   UNL     1      34.209 -25.024 -12.824  0.00  0.00    -0.312 N 
ATOM     26  C   UNL     1      34.993 -23.479 -14.172  0.00  0.00    -0.008 C 
ATOM     27  C   UNL     1      33.658 -23.720 -14.548  0.00  0.00    +0.011 C 
ATOM     28  C   UNL     1      33.179 -24.704 -13.680  0.00  0.00    +0.048 C 
ATOM     29  C   UNL     1      35.318 -24.278 -13.119  0.00  0.00    +0.058 C 
ATOM     30  C   UNL     1      32.794 -23.210 -15.537  0.00  0.00    +0.001 C 
ATOM     31  C   UNL     1      31.874 -25.204 -13.751  0.00  0.00    +0.015 C 
ATOM     32  C   UNL     1      31.486 -23.701 -15.621  0.00  0.00    +0.000 C 
ATOM     33  C   UNL     1      31.035 -24.684 -14.741  0.00  0.00    +0.001 C 
ATOM     34  H   UNL     1      34.154 -25.692 -12.103  0.00  0.00    +0.152 HD
ENDBRANCH  24  26
ENDBRANCH  19  24
ENDBRANCH  18  19
ENDBRANCH   1  18
TORSDOF 7
ENDMDL
MODEL 6
REMARK VINA RESULT:     -11.1      2.152      9.620
REMARK  Name = 6914614
REMARK  7 active torsions:
REMARK  status: ('A' for Active; 'I' for Inactive)
REMARK    1  A    between atoms: O_1  and  C_4
REMARK    2  A    between atoms: O_1  and  C_18
REMARK    3  A    between atoms: C_9  and  C_13
REMARK    4  A    between atoms: C_18  and  C_19
REMARK    5  A    between atoms: C_19  and  N_20
REMARK    6  A    between atoms: C_19  and  C_24
REMARK    7  A    between atoms: C_24  and  C_26
REMARK                            x       y       z     vdW  Elec       q    Type
REMARK                         _______ _______ _______ _____ _____    ______ ____
ROOT
ATOM      1  O   UNL     1      33.948 -13.482 -23.998  0.00  0.00    -0.476 OA
ENDROOT
BRANCH   1   4
ATOM      2  N   UNL     1      34.853 -18.180 -23.347  0.00  0.00    -0.404 NA
ATOM      3  N   UNL     1      33.611 -16.319 -26.232  0.00  0.00    -0.258 NA
ATOM      4  C   UNL     1      33.993 -14.772 -24.426  0.00  0.00    +0.159 C 
ATOM      5  C   UNL     1      34.423 -15.821 -23.603  0.00  0.00    +0.063 C 
ATOM      6  C   UNL     1      34.448 -17.136 -24.097  0.00  0.00    +0.136 C 
ATOM      7  C   UNL     1      34.836 -15.606 -22.282  0.00  0.00    +0.008 C 
ATOM      8  C   UNL     1      33.602 -15.073 -25.718  0.00  0.00    +0.130 C 
ATOM      9  C   UNL     1      35.244 -17.931 -22.076  0.00  0.00    +0.131 C 
ATOM     10  C   UNL     1      35.255 -16.675 -21.502  0.00  0.00    +0.032 C 
ATOM     11  C   UNL     1      34.032 -17.307 -25.407  0.00  0.00    +0.184 C 
BRANCH   9  13
ATOM     12  N   UNL     1      36.477 -21.349 -19.887  0.00  0.00    -0.242 NA
ATOM     13  C   UNL     1      35.664 -19.095 -21.331  0.00  0.00    +0.033 C 
ATOM     14  C   UNL     1      34.740 -20.076 -20.987  0.00  0.00    +0.023 C 
ATOM     15  C   UNL     1      36.995 -19.241 -20.952  0.00  0.00    +0.023 C 
ATOM     16  C   UNL     1      35.192 -21.174 -20.272  0.00  0.00    +0.099 C 
ATOM     17  C   UNL     1      37.347 -20.376 -20.238  0.00  0.00    +0.099 C 
ENDBRANCH   9  13
ENDBRANCH   1   4
BRANCH   1  18
ATOM     18  C   UNL     1      33.724 -12.476 -24.986  0.00  0.00    +0.184 C 
BRANCH  18  19
ATOM     19  C   UNL     1      34.252 -11.108 -24.536  0.00  0.00    -0.017 C 
BRANCH  19  20
ATOM     20  N   UNL     1      35.330 -10.700 -25.446  0.00  0.00    +0.384 N 
ATOM     21  H   UNL     1      35.867  -9.944 -25.019  0.00  0.00    -0.089 HD
ATOM     22  H   UNL     1      34.928 -10.377 -26.325  0.00  0.00    -0.089 HD
ATOM     23  H   UNL     1      35.944 -11.495 -25.624  0.00  0.00    -0.089 HD
ENDBRANCH  19  20
BRANCH  19  24
ATOM     24  C   UNL     1      33.183  -9.998 -24.514  0.00  0.00    +0.009 C 
BRANCH  24  26
ATOM     25  N   UNL     1      33.294  -7.811 -21.593  0.00  0.00    -0.312 N 
ATOM     26  C   UNL     1      33.066  -9.302 -23.188  0.00  0.00    -0.008 C 
ATOM     27  C   UNL     1      32.368  -9.784 -22.065  0.00  0.00    +0.011 C 
ATOM     28  C   UNL     1      32.525  -8.823 -21.065  0.00  0.00    +0.048 C 
ATOM     29  C   UNL     1      33.627  -8.098 -22.890  0.00  0.00    +0.058 C 
ATOM     30  C   UNL     1      31.612 -10.940 -21.783  0.00  0.00    +0.001 C 
ATOM     31  C   UNL     1      31.961  -8.959 -19.791  0.00  0.00    +0.015 C 
ATOM     32  C   UNL     1      31.042 -11.090 -20.513  0.00  0.00    +0.000 C 
ATOM     33  C   UNL     1      31.216 -10.113 -19.533  0.00  0.00    +0.001 C 
ATOM     34  H   UNL     1      33.564  -6.998 -21.109  0.00  0.00    +0.152 HD
ENDBRANCH  24  26
ENDBRANCH  19  24
ENDBRANCH  18  19
ENDBRANCH   1  18
TORSDOF 7
ENDMDL
MODEL 7
REMARK VINA RESULT:     -11.0      2.175     10.197
REMARK  Name = 6914614
REMARK  7 active torsions:
REMARK  status: ('A' for Active; 'I' for Inactive)
REMARK    1  A    between atoms: O_1  and  C_4
REMARK    2  A    between atoms: O_1  and  C_18
REMARK    3  A    between atoms: C_9  and  C_13
REMARK    4  A    between atoms: C_18  and  C_19
REMARK    5  A    between atoms: C_19  and  N_20
REMARK    6  A    between atoms: C_19  and  C_24
REMARK    7  A    between atoms: C_24  and  C_26
REMARK                            x       y       z     vdW  Elec       q    Type
REMARK                         _______ _______ _______ _____ _____    ______ ____
ROOT
ATOM      1  O   UNL     1      33.660 -13.482 -24.113  0.00  0.00    -0.476 OA
ENDROOT
BRANCH   1   4
ATOM      2  N   UNL     1      34.857 -18.110 -23.426  0.00  0.00    -0.404 NA
ATOM      3  N   UNL     1      33.556 -16.341 -26.343  0.00  0.00    -0.258 NA
ATOM      4  C   UNL     1      33.798 -14.767 -24.535  0.00  0.00    +0.159 C 
ATOM      5  C   UNL     1      34.279 -15.784 -23.700  0.00  0.00    +0.063 C 
ATOM      6  C   UNL     1      34.400 -17.096 -24.188  0.00  0.00    +0.136 C 
ATOM      7  C   UNL     1      34.649 -15.539 -22.371  0.00  0.00    +0.008 C 
ATOM      8  C   UNL     1      33.455 -15.096 -25.834  0.00  0.00    +0.130 C 
ATOM      9  C   UNL     1      35.205 -17.832 -22.148  0.00  0.00    +0.131 C 
ATOM     10  C   UNL     1      35.122 -16.577 -21.578  0.00  0.00    +0.032 C 
ATOM     11  C   UNL     1      34.023 -17.297 -25.505  0.00  0.00    +0.184 C 
BRANCH   9  13
ATOM     12  N   UNL     1      36.613 -21.157 -19.921  0.00  0.00    -0.242 NA
ATOM     13  C   UNL     1      35.684 -18.964 -21.390  0.00  0.00    +0.033 C 
ATOM     14  C   UNL     1      34.802 -19.962 -20.988  0.00  0.00    +0.023 C 
ATOM     15  C   UNL     1      37.031 -19.063 -21.056  0.00  0.00    +0.023 C 
ATOM     16  C   UNL     1      35.311 -21.028 -20.264  0.00  0.00    +0.099 C 
ATOM     17  C   UNL     1      37.441 -20.169 -20.328  0.00  0.00    +0.099 C 
ENDBRANCH   9  13
ENDBRANCH   1   4
BRANCH   1  18
ATOM     18  C   UNL     1      33.984 -12.452 -25.047  0.00  0.00    +0.184 C 
BRANCH  18  19
ATOM     19  C   UNL     1      34.281 -11.120 -24.346  0.00  0.00    -0.017 C 
BRANCH  19  20
ATOM     20  N   UNL     1      35.419 -10.480 -25.017  0.00  0.00    +0.384 N 
ATOM     21  H   UNL     1      35.075  -9.819 -25.714  0.00  0.00    -0.089 HD
ATOM     22  H   UNL     1      35.987 -11.192 -25.475  0.00  0.00    -0.089 HD
ATOM     23  H   UNL     1      35.984  -9.984 -24.328  0.00  0.00    -0.089 HD
ENDBRANCH  19  20
BRANCH  19  24
ATOM     24  C   UNL     1      33.096 -10.135 -24.344  0.00  0.00    +0.009 C 
BRANCH  24  26
ATOM     25  N   UNL     1      31.859  -9.923 -20.915  0.00  0.00    -0.312 N 
ATOM     26  C   UNL     1      32.626  -9.763 -22.966  0.00  0.00    -0.008 C 
ATOM     27  C   UNL     1      32.555  -8.457 -22.446  0.00  0.00    +0.011 C 
ATOM     28  C   UNL     1      32.066  -8.581 -21.144  0.00  0.00    +0.048 C 
ATOM     29  C   UNL     1      32.200 -10.649 -22.025  0.00  0.00    +0.058 C 
ATOM     30  C   UNL     1      32.854  -7.171 -22.939  0.00  0.00    +0.001 C 
ATOM     31  C   UNL     1      31.861  -7.479 -20.305  0.00  0.00    +0.015 C 
ATOM     32  C   UNL     1      32.653  -6.059 -22.112  0.00  0.00    +0.000 C 
ATOM     33  C   UNL     1      32.164  -6.213 -20.816  0.00  0.00    +0.001 C 
ATOM     34  H   UNL     1      31.516 -10.304 -20.075  0.00  0.00    +0.152 HD
ENDBRANCH  24  26
ENDBRANCH  19  24
ENDBRANCH  18  19
ENDBRANCH   1  18
TORSDOF 7
ENDMDL
MODEL 8
REMARK VINA RESULT:     -10.8      3.785      7.093
REMARK  Name = 6914614
REMARK  7 active torsions:
REMARK  status: ('A' for Active; 'I' for Inactive)
REMARK    1  A    between atoms: O_1  and  C_4
REMARK    2  A    between atoms: O_1  and  C_18
REMARK    3  A    between atoms: C_9  and  C_13
REMARK    4  A    between atoms: C_18  and  C_19
REMARK    5  A    between atoms: C_19  and  N_20
REMARK    6  A    between atoms: C_19  and  C_24
REMARK    7  A    between atoms: C_24  and  C_26
REMARK                            x       y       z     vdW  Elec       q    Type
REMARK                         _______ _______ _______ _____ _____    ______ ____
ROOT
ATOM      1  O   UNL     1      33.273 -22.563 -18.222  0.00  0.00    -0.476 OA
ENDROOT
BRANCH   1   4
ATOM      2  N   UNL     1      35.577 -19.912 -21.537  0.00  0.00    -0.404 NA
ATOM      3  N   UNL     1      36.804 -21.915 -18.742  0.00  0.00    -0.258 NA
ATOM      4  C   UNL     1      34.400 -22.056 -18.791  0.00  0.00    +0.159 C 
ATOM      5  C   UNL     1      34.363 -21.218 -19.913  0.00  0.00    +0.063 C 
ATOM      6  C   UNL     1      35.558 -20.721 -20.459  0.00  0.00    +0.136 C 
ATOM      7  C   UNL     1      33.157 -20.849 -20.524  0.00  0.00    +0.008 C 
ATOM      8  C   UNL     1      35.633 -22.370 -18.250  0.00  0.00    +0.130 C 
ATOM      9  C   UNL     1      34.391 -19.579 -22.098  0.00  0.00    +0.131 C 
ATOM     10  C   UNL     1      33.166 -20.017 -21.635  0.00  0.00    +0.032 C 
ATOM     11  C   UNL     1      36.728 -21.108 -19.827  0.00  0.00    +0.184 C 
BRANCH   9  13
ATOM     12  N   UNL     1      34.673 -17.030 -25.476  0.00  0.00    -0.242 NA
ATOM     13  C   UNL     1      34.487 -18.711 -23.248  0.00  0.00    +0.033 C 
ATOM     14  C   UNL     1      33.975 -19.118 -24.476  0.00  0.00    +0.023 C 
ATOM     15  C   UNL     1      35.092 -17.463 -23.135  0.00  0.00    +0.023 C 
ATOM     16  C   UNL     1      34.091 -18.248 -25.549  0.00  0.00    +0.099 C 
ATOM     17  C   UNL     1      35.159 -16.668 -24.268  0.00  0.00    +0.099 C 
ENDBRANCH   9  13
ENDBRANCH   1   4
BRANCH   1  18
ATOM     18  C   UNL     1      33.420 -23.734 -17.419  0.00  0.00    +0.184 C 
BRANCH  18  19
ATOM     19  C   UNL     1      33.077 -23.463 -15.949  0.00  0.00    -0.017 C 
BRANCH  19  20
ATOM     20  N   UNL     1      31.636 -23.672 -15.758  0.00  0.00    +0.384 N 
ATOM     21  H   UNL     1      31.285 -23.009 -15.067  0.00  0.00    -0.089 HD
ATOM     22  H   UNL     1      31.471 -24.624 -15.431  0.00  0.00    -0.089 HD
ATOM     23  H   UNL     1      31.151 -23.528 -16.644  0.00  0.00    -0.089 HD
ENDBRANCH  19  20
BRANCH  19  24
ATOM     24  C   UNL     1      33.838 -24.358 -14.952  0.00  0.00    +0.009 C 
BRANCH  24  26
ATOM     25  N   UNL     1      37.213 -22.976 -14.798  0.00  0.00    -0.312 N 
ATOM     26  C   UNL     1      35.310 -24.066 -14.884  0.00  0.00    -0.008 C 
ATOM     27  C   UNL     1      36.338 -25.027 -14.839  0.00  0.00    +0.011 C 
ATOM     28  C   UNL     1      37.537 -24.314 -14.784  0.00  0.00    +0.048 C 
ATOM     29  C   UNL     1      35.855 -22.819 -14.859  0.00  0.00    +0.058 C 
ATOM     30  C   UNL     1      36.386 -26.435 -14.837  0.00  0.00    +0.001 C 
ATOM     31  C   UNL     1      38.787 -24.941 -14.727  0.00  0.00    +0.015 C 
ATOM     32  C   UNL     1      37.628 -27.076 -14.781  0.00  0.00    +0.000 C 
ATOM     33  C   UNL     1      38.810 -26.339 -14.727  0.00  0.00    +0.001 C 
ATOM     34  H   UNL     1      37.865 -22.239 -14.767  0.00  0.00    +0.152 HD
ENDBRANCH  24  26
ENDBRANCH  19  24
ENDBRANCH  18  19
ENDBRANCH   1  18
TORSDOF 7
ENDMDL
MODEL 9
REMARK VINA RESULT:     -10.8      2.707     10.749
REMARK  Name = 6914614
REMARK  7 active torsions:
REMARK  status: ('A' for Active; 'I' for Inactive)
REMARK    1  A    between atoms: O_1  and  C_4
REMARK    2  A    between atoms: O_1  and  C_18
REMARK    3  A    between atoms: C_9  and  C_13
REMARK    4  A    between atoms: C_18  and  C_19
REMARK    5  A    between atoms: C_19  and  N_20
REMARK    6  A    between atoms: C_19  and  C_24
REMARK    7  A    between atoms: C_24  and  C_26
REMARK                            x       y       z     vdW  Elec       q    Type
REMARK                         _______ _______ _______ _____ _____    ______ ____
ROOT
ATOM      1  O   UNL     1      35.864 -21.714 -19.822  0.00  0.00    -0.476 OA
ENDROOT
BRANCH   1   4
ATOM      2  N   UNL     1      33.977 -23.424 -15.719  0.00  0.00    -0.404 NA
ATOM      3  N   UNL     1      37.349 -22.313 -16.567  0.00  0.00    -0.258 NA
ATOM      4  C   UNL     1      35.952 -22.083 -18.516  0.00  0.00    +0.159 C 
ATOM      5  C   UNL     1      34.854 -22.576 -17.800  0.00  0.00    +0.063 C 
ATOM      6  C   UNL     1      35.001 -22.944 -16.452  0.00  0.00    +0.136 C 
ATOM      7  C   UNL     1      33.590 -22.722 -18.387  0.00  0.00    +0.008 C 
ATOM      8  C   UNL     1      37.164 -21.972 -17.859  0.00  0.00    +0.130 C 
ATOM      9  C   UNL     1      32.772 -23.549 -16.322  0.00  0.00    +0.131 C 
ATOM     10  C   UNL     1      32.528 -23.215 -17.639  0.00  0.00    +0.032 C 
ATOM     11  C   UNL     1      36.265 -22.786 -15.908  0.00  0.00    +0.184 C 
BRANCH   9  13
ATOM     12  N   UNL     1      29.688 -25.078 -13.844  0.00  0.00    -0.242 NA
ATOM     13  C   UNL     1      31.722 -24.069 -15.479  0.00  0.00    +0.033 C 
ATOM     14  C   UNL     1      32.033 -24.659 -14.257  0.00  0.00    +0.023 C 
ATOM     15  C   UNL     1      30.393 -23.985 -15.882  0.00  0.00    +0.023 C 
ATOM     16  C   UNL     1      30.990 -25.143 -13.484  0.00  0.00    +0.099 C 
ATOM     17  C   UNL     1      29.423 -24.499 -15.036  0.00  0.00    +0.099 C 
ENDBRANCH   9  13
ENDBRANCH   1   4
BRANCH   1  18
ATOM     18  C   UNL     1      36.499 -20.491 -20.197  0.00  0.00    +0.184 C 
BRANCH  18  19
ATOM     19  C   UNL     1      35.691 -19.733 -21.257  0.00  0.00    -0.017 C 
BRANCH  19  20
ATOM     20  N   UNL     1      34.263 -19.874 -20.948  0.00  0.00    +0.384 N 
ATOM     21  H   UNL     1      34.080 -20.819 -20.610  0.00  0.00    -0.089 HD
ATOM     22  H   UNL     1      33.715 -19.702 -21.790  0.00  0.00    -0.089 HD
ATOM     23  H   UNL     1      34.003 -19.199 -20.229  0.00  0.00    -0.089 HD
ENDBRANCH  19  20
BRANCH  19  24
ATOM     24  C   UNL     1      36.027 -18.231 -21.346  0.00  0.00    +0.009 C 
BRANCH  24  26
ATOM     25  N   UNL     1      34.738 -17.183 -24.597  0.00  0.00    -0.312 N 
ATOM     26  C   UNL     1      35.434 -17.552 -22.548  0.00  0.00    -0.008 C 
ATOM     27  C   UNL     1      34.905 -16.249 -22.579  0.00  0.00    +0.011 C 
ATOM     28  C   UNL     1      34.469 -16.034 -23.888  0.00  0.00    +0.048 C 
ATOM     29  C   UNL     1      35.327 -18.113 -23.784  0.00  0.00    +0.058 C 
ATOM     30  C   UNL     1      34.745 -15.216 -21.633  0.00  0.00    +0.001 C 
ATOM     31  C   UNL     1      33.878 -14.834 -24.301  0.00  0.00    +0.015 C 
ATOM     32  C   UNL     1      34.156 -14.010 -22.031  0.00  0.00    +0.000 C 
ATOM     33  C   UNL     1      33.730 -13.824 -23.345  0.00  0.00    +0.001 C 
ATOM     34  H   UNL     1      34.536 -17.316 -25.551  0.00  0.00    +0.152 HD
ENDBRANCH  24  26
ENDBRANCH  19  24
ENDBRANCH  18  19
ENDBRANCH   1  18
TORSDOF 7
ENDMDL
