MODEL 1
REMARK VINA RESULT:     -12.1      0.000      0.000
REMARK  Name = 119057475
REMARK  5 active torsions:
REMARK  status: ('A' for Active; 'I' for Inactive)
REMARK    1  A    between atoms: N_1  and  C_22
REMARK    2  A    between atoms: C_2  and  N_8
REMARK    3  A    between atoms: N_8  and  C_11
REMARK    4  A    between atoms: C_11  and  C_16
REMARK    5  A    between atoms: C_22  and  C_26
REMARK                            x       y       z     vdW  Elec       q    Type
REMARK                         _______ _______ _______ _____ _____    ______ ____
ROOT
ATOM      1  N   UNL     1      34.370 -22.668 -19.404  0.00  0.00    +0.387 N 
ATOM      2  C   UNL     1      34.787 -20.085 -20.714  0.00  0.00    -0.066 C 
ATOM      3  C   UNL     1      35.696 -22.036 -19.396  0.00  0.00    -0.079 C 
ATOM      4  C   UNL     1      33.300 -21.661 -19.421  0.00  0.00    -0.079 C 
ATOM      5  C   UNL     1      35.889 -21.143 -20.625  0.00  0.00    -0.044 C 
ATOM      6  C   UNL     1      33.412 -20.756 -20.651  0.00  0.00    -0.044 C 
ATOM      7  H   UNL     1      34.292 -23.223 -20.256  0.00  0.00    -0.080 HD
ENDROOT
BRANCH   2   8
ATOM      8  N   UNL     1      34.933 -19.304 -21.940  0.00  0.00    +0.389 N 
ATOM      9  H   UNL     1      34.024 -18.919 -22.200  0.00  0.00    -0.084 HD
ATOM     10  H   UNL     1      35.283 -19.915 -22.678  0.00  0.00    -0.084 HD
BRANCH   8  11
ATOM     11  C   UNL     1      35.877 -18.213 -21.750  0.00  0.00    -0.032 C 
BRANCH  11  16
ATOM     12  O   UNL     1      33.939 -15.069 -24.905  0.00  0.00    -0.467 OA
ATOM     13  O   UNL     1      33.681 -13.203 -22.731  0.00  0.00    -0.453 OA
ATOM     14  N   UNL     1      35.108 -16.006 -21.064  0.00  0.00    -0.151 NA
ATOM     15  N   UNL     1      34.564 -14.783 -21.313  0.00  0.00    -0.107 NA
ATOM     16  C   UNL     1      35.265 -16.878 -22.081  0.00  0.00    +0.062 C 
ATOM     17  C   UNL     1      34.889 -16.593 -23.378  0.00  0.00    +0.056 C 
ATOM     18  C   UNL     1      34.326 -15.353 -23.626  0.00  0.00    +0.194 C 
ATOM     19  C   UNL     1      34.195 -14.465 -22.572  0.00  0.00    +0.278 C 
ATOM     20  C   UNL     1      33.101 -13.911 -24.965  0.00  0.00    +0.253 C 
ATOM     21  C   UNL     1      33.673 -12.802 -24.103  0.00  0.00    +0.254 C 
ENDBRANCH  11  16
ENDBRANCH   8  11
ENDBRANCH   2   8
BRANCH   1  22
ATOM     22  C   UNL     1      34.219 -23.556 -18.252  0.00  0.00    -0.071 C 
BRANCH  22  26
ATOM     23  F   UNL     1      31.324 -23.181 -16.747  0.00  0.00    -0.204 F 
ATOM     24  O   UNL     1      37.832 -23.589 -14.261  0.00  0.00    -0.270 OA
ATOM     25  N   UNL     1      35.647 -23.488 -15.016  0.00  0.00    -0.255 N 
ATOM     26  C   UNL     1      34.353 -22.785 -16.946  0.00  0.00    +0.025 C 
ATOM     27  C   UNL     1      35.789 -22.891 -16.351  0.00  0.00    +0.101 C 
ATOM     28  C   UNL     1      33.507 -23.356 -15.841  0.00  0.00    +0.018 C 
ATOM     29  C   UNL     1      34.303 -23.731 -14.773  0.00  0.00    +0.052 C 
ATOM     30  C   UNL     1      33.834 -24.288 -13.601  0.00  0.00    +0.014 C 
ATOM     31  C   UNL     1      32.140 -23.536 -15.747  0.00  0.00    +0.137 C 
ATOM     32  C   UNL     1      36.630 -23.784 -14.098  0.00  0.00    +0.253 C 
ATOM     33  C   UNL     1      32.459 -24.476 -13.499  0.00  0.00    +0.004 C 
ATOM     34  C   UNL     1      31.619 -24.099 -14.569  0.00  0.00    +0.029 C 
ATOM     35  C   UNL     1      34.830 -24.623 -12.587  0.00  0.00    +0.006 C 
ATOM     36  C   UNL     1      36.133 -24.391 -12.814  0.00  0.00    +0.058 C 
ENDBRANCH  22  26
ENDBRANCH   1  22
TORSDOF 5
ENDMDL
MODEL 2
REMARK VINA RESULT:     -12.0      2.420     10.994
REMARK  Name = 119057475
REMARK  5 active torsions:
REMARK  status: ('A' for Active; 'I' for Inactive)
REMARK    1  A    between atoms: N_1  and  C_22
REMARK    2  A    between atoms: C_2  and  N_8
REMARK    3  A    between atoms: N_8  and  C_11
REMARK    4  A    between atoms: C_11  and  C_16
REMARK    5  A    between atoms: C_22  and  C_26
REMARK                            x       y       z     vdW  Elec       q    Type
REMARK                         _______ _______ _______ _____ _____    ______ ____
ROOT
ATOM      1  N   UNL     1      34.501 -20.388 -20.720  0.00  0.00    +0.387 N 
ATOM      2  C   UNL     1      35.129 -22.440 -18.730  0.00  0.00    -0.066 C 
ATOM      3  C   UNL     1      35.825 -21.025 -20.699  0.00  0.00    -0.079 C 
ATOM      4  C   UNL     1      33.460 -21.312 -20.249  0.00  0.00    -0.079 C 
ATOM      5  C   UNL     1      36.192 -21.491 -19.288  0.00  0.00    -0.044 C 
ATOM      6  C   UNL     1      33.746 -21.788 -18.822  0.00  0.00    -0.044 C 
ATOM      7  H   UNL     1      34.526 -19.592 -20.082  0.00  0.00    -0.080 HD
ENDROOT
BRANCH   2   8
ATOM      8  N   UNL     1      35.447 -22.800 -17.350  0.00  0.00    +0.389 N 
ATOM      9  H   UNL     1      35.716 -21.959 -16.839  0.00  0.00    -0.084 HD
ATOM     10  H   UNL     1      36.213 -23.473 -17.355  0.00  0.00    -0.084 HD
BRANCH   8  11
ATOM     11  C   UNL     1      34.297 -23.408 -16.696  0.00  0.00    -0.032 C 
BRANCH  11  16
ATOM     12  O   UNL     1      37.164 -23.277 -12.778  0.00  0.00    -0.467 OA
ATOM     13  O   UNL     1      35.007 -24.459 -11.285  0.00  0.00    -0.453 OA
ATOM     14  N   UNL     1      33.536 -24.180 -14.515  0.00  0.00    -0.151 NA
ATOM     15  N   UNL     1      33.718 -24.429 -13.189  0.00  0.00    -0.107 NA
ATOM     16  C   UNL     1      34.551 -23.657 -15.234  0.00  0.00    +0.062 C 
ATOM     17  C   UNL     1      35.779 -23.349 -14.683  0.00  0.00    +0.056 C 
ATOM     18  C   UNL     1      35.957 -23.592 -13.331  0.00  0.00    +0.194 C 
ATOM     19  C   UNL     1      34.910 -24.151 -12.619  0.00  0.00    +0.278 C 
ATOM     20  C   UNL     1      37.113 -23.279 -11.347  0.00  0.00    +0.253 C 
ATOM     21  C   UNL     1      36.368 -24.502 -10.849  0.00  0.00    +0.254 C 
ENDBRANCH  11  16
ENDBRANCH   8  11
ENDBRANCH   2   8
BRANCH   1  22
ATOM     22  C   UNL     1      34.186 -19.903 -22.063  0.00  0.00    -0.071 C 
BRANCH  22  26
ATOM     23  F   UNL     1      34.496 -19.753 -25.328  0.00  0.00    -0.204 F 
ATOM     24  O   UNL     1      35.121 -14.877 -20.376  0.00  0.00    -0.270 OA
ATOM     25  N   UNL     1      34.889 -16.436 -22.070  0.00  0.00    -0.255 N 
ATOM     26  C   UNL     1      35.156 -18.811 -22.492  0.00  0.00    +0.025 C 
ATOM     27  C   UNL     1      35.286 -17.690 -21.418  0.00  0.00    +0.101 C 
ATOM     28  C   UNL     1      34.679 -18.046 -23.695  0.00  0.00    +0.018 C 
ATOM     29  C   UNL     1      34.553 -16.703 -23.390  0.00  0.00    +0.052 C 
ATOM     30  C   UNL     1      34.137 -15.730 -24.276  0.00  0.00    +0.014 C 
ATOM     31  C   UNL     1      34.382 -18.467 -24.977  0.00  0.00    +0.137 C 
ATOM     32  C   UNL     1      34.835 -15.168 -21.535  0.00  0.00    +0.253 C 
ATOM     33  C   UNL     1      33.832 -16.147 -25.568  0.00  0.00    +0.004 C 
ATOM     34  C   UNL     1      33.955 -17.509 -25.913  0.00  0.00    +0.029 C 
ATOM     35  C   UNL     1      34.061 -14.364 -23.767  0.00  0.00    +0.006 C 
ATOM     36  C   UNL     1      34.385 -14.097 -22.491  0.00  0.00    +0.058 C 
ENDBRANCH  22  26
ENDBRANCH   1  22
TORSDOF 5
ENDMDL
MODEL 3
REMARK VINA RESULT:     -11.7      0.922      1.272
REMARK  Name = 119057475
REMARK  5 active torsions:
REMARK  status: ('A' for Active; 'I' for Inactive)
REMARK    1  A    between atoms: N_1  and  C_22
REMARK    2  A    between atoms: C_2  and  N_8
REMARK    3  A    between atoms: N_8  and  C_11
REMARK    4  A    between atoms: C_11  and  C_16
REMARK    5  A    between atoms: C_22  and  C_26
REMARK                            x       y       z     vdW  Elec       q    Type
REMARK                         _______ _______ _______ _____ _____    ______ ____
ROOT
ATOM      1  N   UNL     1      34.470 -22.694 -19.330  0.00  0.00    +0.387 N 
ATOM      2  C   UNL     1      35.124 -20.159 -20.637  0.00  0.00    -0.066 C 
ATOM      3  C   UNL     1      35.806 -22.101 -19.178  0.00  0.00    -0.079 C 
ATOM      4  C   UNL     1      33.443 -21.656 -19.497  0.00  0.00    -0.079 C 
ATOM      5  C   UNL     1      36.172 -21.246 -20.394  0.00  0.00    -0.044 C 
ATOM      6  C   UNL     1      33.729 -20.786 -20.724  0.00  0.00    -0.044 C 
ATOM      7  H   UNL     1      34.476 -23.268 -20.174  0.00  0.00    -0.080 HD
ENDROOT
BRANCH   2   8
ATOM      8  N   UNL     1      35.439 -19.413 -21.854  0.00  0.00    +0.389 N 
ATOM      9  H   UNL     1      34.628 -19.427 -22.473  0.00  0.00    -0.084 HD
ATOM     10  H   UNL     1      36.239 -19.853 -22.309  0.00  0.00    -0.084 HD
BRANCH   8  11
ATOM     11  C   UNL     1      35.779 -18.034 -21.542  0.00  0.00    -0.032 C 
BRANCH  11  16
ATOM     12  O   UNL     1      34.199 -13.610 -22.779  0.00  0.00    -0.467 OA
ATOM     13  O   UNL     1      33.527 -14.684 -25.362  0.00  0.00    -0.453 OA
ATOM     14  N   UNL     1      34.895 -17.554 -23.760  0.00  0.00    -0.151 NA
ATOM     15  N   UNL     1      34.348 -16.724 -24.691  0.00  0.00    -0.107 NA
ATOM     16  C   UNL     1      35.182 -17.071 -22.534  0.00  0.00    +0.062 C 
ATOM     17  C   UNL     1      34.957 -15.758 -22.173  0.00  0.00    +0.056 C 
ATOM     18  C   UNL     1      34.412 -14.914 -23.126  0.00  0.00    +0.194 C 
ATOM     19  C   UNL     1      34.102 -15.436 -24.369  0.00  0.00    +0.278 C 
ATOM     20  C   UNL     1      33.937 -12.790 -23.921  0.00  0.00    +0.253 C 
ATOM     21  C   UNL     1      32.955 -13.478 -24.850  0.00  0.00    +0.254 C 
ENDBRANCH  11  16
ENDBRANCH   8  11
ENDBRANCH   2   8
BRANCH   1  22
ATOM     22  C   UNL     1      34.154 -23.547 -18.185  0.00  0.00    -0.071 C 
BRANCH  22  26
ATOM     23  F   UNL     1      31.264 -23.139 -16.680  0.00  0.00    -0.204 F 
ATOM     24  O   UNL     1      37.765 -23.641 -14.194  0.00  0.00    -0.270 OA
ATOM     25  N   UNL     1      35.582 -23.508 -14.949  0.00  0.00    -0.255 N 
ATOM     26  C   UNL     1      34.298 -22.783 -16.877  0.00  0.00    +0.025 C 
ATOM     27  C   UNL     1      35.732 -22.909 -16.282  0.00  0.00    +0.101 C 
ATOM     28  C   UNL     1      33.445 -23.346 -15.775  0.00  0.00    +0.018 C 
ATOM     29  C   UNL     1      34.235 -23.735 -14.708  0.00  0.00    +0.052 C 
ATOM     30  C   UNL     1      33.759 -24.290 -13.537  0.00  0.00    +0.014 C 
ATOM     31  C   UNL     1      32.075 -23.508 -15.681  0.00  0.00    +0.137 C 
ATOM     32  C   UNL     1      36.561 -23.821 -14.032  0.00  0.00    +0.253 C 
ATOM     33  C   UNL     1      32.381 -24.459 -13.437  0.00  0.00    +0.004 C 
ATOM     34  C   UNL     1      31.547 -24.068 -14.506  0.00  0.00    +0.029 C 
ATOM     35  C   UNL     1      34.749 -24.641 -12.524  0.00  0.00    +0.006 C 
ATOM     36  C   UNL     1      36.056 -24.425 -12.750  0.00  0.00    +0.058 C 
ENDBRANCH  22  26
ENDBRANCH   1  22
TORSDOF 5
ENDMDL
MODEL 4
REMARK VINA RESULT:     -11.5      3.235     11.603
REMARK  Name = 119057475
REMARK  5 active torsions:
REMARK  status: ('A' for Active; 'I' for Inactive)
REMARK    1  A    between atoms: N_1  and  C_22
REMARK    2  A    between atoms: C_2  and  N_8
REMARK    3  A    between atoms: N_8  and  C_11
REMARK    4  A    between atoms: C_11  and  C_16
REMARK    5  A    between atoms: C_22  and  C_26
REMARK                            x       y       z     vdW  Elec       q    Type
REMARK                         _______ _______ _______ _____ _____    ______ ____
ROOT
ATOM      1  N   UNL     1      34.512 -15.525 -22.141  0.00  0.00    +0.387 N 
ATOM      2  C   UNL     1      35.590 -18.238 -22.339  0.00  0.00    -0.066 C 
ATOM      3  C   UNL     1      35.167 -16.152 -20.985  0.00  0.00    -0.079 C 
ATOM      4  C   UNL     1      35.088 -16.007 -23.404  0.00  0.00    -0.079 C 
ATOM      5  C   UNL     1      35.029 -17.676 -21.031  0.00  0.00    -0.044 C 
ATOM      6  C   UNL     1      34.948 -17.526 -23.533  0.00  0.00    -0.044 C 
ATOM      7  H   UNL     1      33.527 -15.789 -22.125  0.00  0.00    -0.080 HD
ENDROOT
BRANCH   2   8
ATOM      8  N   UNL     1      35.365 -19.681 -22.407  0.00  0.00    +0.389 N 
ATOM      9  H   UNL     1      36.130 -20.160 -21.931  0.00  0.00    -0.084 HD
ATOM     10  H   UNL     1      35.327 -19.960 -23.388  0.00  0.00    -0.084 HD
BRANCH   8  11
ATOM     11  C   UNL     1      34.107 -20.039 -21.771  0.00  0.00    -0.032 C 
BRANCH  11  16
ATOM     12  O   UNL     1      32.414 -22.651 -18.042  0.00  0.00    -0.467 OA
ATOM     13  O   UNL     1      35.144 -23.211 -17.327  0.00  0.00    -0.453 OA
ATOM     14  N   UNL     1      35.593 -21.211 -20.237  0.00  0.00    -0.151 NA
ATOM     15  N   UNL     1      35.836 -21.993 -19.150  0.00  0.00    -0.107 NA
ATOM     16  C   UNL     1      34.318 -20.912 -20.563  0.00  0.00    +0.062 C 
ATOM     17  C   UNL     1      33.233 -21.375 -19.846  0.00  0.00    +0.056 C 
ATOM     18  C   UNL     1      33.484 -22.180 -18.748  0.00  0.00    +0.194 C 
ATOM     19  C   UNL     1      34.800 -22.453 -18.418  0.00  0.00    +0.278 C 
ATOM     20  C   UNL     1      32.786 -23.703 -17.146  0.00  0.00    +0.253 C 
ATOM     21  C   UNL     1      34.058 -23.338 -16.406  0.00  0.00    +0.254 C 
ENDBRANCH  11  16
ENDBRANCH   8  11
ENDBRANCH   2   8
BRANCH   1  22
ATOM     22  C   UNL     1      34.608 -14.068 -22.057  0.00  0.00    -0.071 C 
BRANCH  22  26
ATOM     23  F   UNL     1      31.634 -13.849 -20.684  0.00  0.00    -0.204 F 
ATOM     24  O   UNL     1      34.863  -9.878 -25.427  0.00  0.00    -0.270 OA
ATOM     25  N   UNL     1      33.752 -11.128 -23.829  0.00  0.00    -0.255 N 
ATOM     26  C   UNL     1      33.603 -13.399 -22.984  0.00  0.00    +0.025 C 
ATOM     27  C   UNL     1      34.297 -12.477 -24.030  0.00  0.00    +0.101 C 
ATOM     28  C   UNL     1      32.696 -12.439 -22.265  0.00  0.00    +0.018 C 
ATOM     29  C   UNL     1      32.825 -11.168 -22.796  0.00  0.00    +0.052 C 
ATOM     30  C   UNL     1      32.129 -10.058 -22.361  0.00  0.00    +0.014 C 
ATOM     31  C   UNL     1      31.805 -12.638 -21.228  0.00  0.00    +0.137 C 
ATOM     32  C   UNL     1      34.054  -9.969 -24.508  0.00  0.00    +0.253 C 
ATOM     33  C   UNL     1      31.233 -10.250 -21.314  0.00  0.00    +0.004 C 
ATOM     34  C   UNL     1      31.074 -11.535 -20.753  0.00  0.00    +0.029 C 
ATOM     35  C   UNL     1      32.405  -8.798 -23.044  0.00  0.00    +0.006 C 
ATOM     36  C   UNL     1      33.301  -8.751 -24.045  0.00  0.00    +0.058 C 
ENDBRANCH  22  26
ENDBRANCH   1  22
TORSDOF 5
ENDMDL
MODEL 5
REMARK VINA RESULT:     -11.4      4.302     12.207
REMARK  Name = 119057475
REMARK  5 active torsions:
REMARK  status: ('A' for Active; 'I' for Inactive)
REMARK    1  A    between atoms: N_1  and  C_22
REMARK    2  A    between atoms: C_2  and  N_8
REMARK    3  A    between atoms: N_8  and  C_11
REMARK    4  A    between atoms: C_11  and  C_16
REMARK    5  A    between atoms: C_22  and  C_26
REMARK                            x       y       z     vdW  Elec       q    Type
REMARK                         _______ _______ _______ _____ _____    ______ ____
ROOT
ATOM      1  N   UNL     1      33.461 -14.741 -24.353  0.00  0.00    +0.387 N 
ATOM      2  C   UNL     1      34.751 -17.366 -24.278  0.00  0.00    -0.066 C 
ATOM      3  C   UNL     1      34.610 -14.980 -23.469  0.00  0.00    -0.079 C 
ATOM      4  C   UNL     1      33.543 -15.564 -25.567  0.00  0.00    -0.079 C 
ATOM      5  C   UNL     1      34.689 -16.452 -23.053  0.00  0.00    -0.044 C 
ATOM      6  C   UNL     1      33.586 -17.055 -25.223  0.00  0.00    -0.044 C 
ATOM      7  H   UNL     1      32.616 -15.009 -23.849  0.00  0.00    -0.080 HD
ENDROOT
BRANCH   2   8
ATOM      8  N   UNL     1      34.731 -18.768 -23.866  0.00  0.00    +0.389 N 
ATOM      9  H   UNL     1      35.086 -19.345 -24.629  0.00  0.00    -0.084 HD
ATOM     10  H   UNL     1      33.772 -19.029 -23.640  0.00  0.00    -0.084 HD
BRANCH   8  11
ATOM     11  C   UNL     1      35.560 -18.973 -22.688  0.00  0.00    -0.032 C 
BRANCH  11  16
ATOM     12  O   UNL     1      35.682 -22.043 -18.927  0.00  0.00    -0.467 OA
ATOM     13  O   UNL     1      32.808 -22.131 -19.036  0.00  0.00    -0.453 OA
ATOM     14  N   UNL     1      33.527 -19.862 -21.683  0.00  0.00    -0.151 NA
ATOM     15  N   UNL     1      32.862 -20.634 -20.781  0.00  0.00    -0.107 NA
ATOM     16  C   UNL     1      34.876 -19.839 -21.665  0.00  0.00    +0.062 C 
ATOM     17  C   UNL     1      35.626 -20.561 -20.758  0.00  0.00    +0.056 C 
ATOM     18  C   UNL     1      34.946 -21.337 -19.835  0.00  0.00    +0.194 C 
ATOM     19  C   UNL     1      33.563 -21.364 -19.887  0.00  0.00    +0.278 C 
ATOM     20  C   UNL     1      34.874 -22.539 -17.854  0.00  0.00    +0.253 C 
ATOM     21  C   UNL     1      33.592 -23.140 -18.396  0.00  0.00    +0.254 C 
ENDBRANCH  11  16
ENDBRANCH   8  11
ENDBRANCH   2   8
BRANCH   1  22
ATOM     22  C   UNL     1      33.369 -13.323 -24.701  0.00  0.00    -0.071 C 
BRANCH  22  26
ATOM     23  F   UNL     1      35.704 -11.202 -25.611  0.00  0.00    -0.204 F 
ATOM     24  O   UNL     1      30.793 -10.862 -20.665  0.00  0.00    -0.270 OA
ATOM     25  N   UNL     1      32.417 -10.893 -22.312  0.00  0.00    -0.255 N 
ATOM     26  C   UNL     1      33.821 -12.445 -23.543  0.00  0.00    +0.025 C 
ATOM     27  C   UNL     1      32.727 -12.323 -22.441  0.00  0.00    +0.101 C 
ATOM     28  C   UNL     1      34.030 -11.011 -23.944  0.00  0.00    +0.018 C 
ATOM     29  C   UNL     1      33.206 -10.181 -23.205  0.00  0.00    +0.052 C 
ATOM     30  C   UNL     1      33.156  -8.808 -23.330  0.00  0.00    +0.014 C 
ATOM     31  C   UNL     1      34.879 -10.446 -24.876  0.00  0.00    +0.137 C 
ATOM     32  C   UNL     1      31.514 -10.281 -21.472  0.00  0.00    +0.253 C 
ATOM     33  C   UNL     1      34.006  -8.231 -24.269  0.00  0.00    +0.004 C 
ATOM     34  C   UNL     1      34.862  -9.049 -25.036  0.00  0.00    +0.029 C 
ATOM     35  C   UNL     1      32.218  -8.101 -22.463  0.00  0.00    +0.006 C 
ATOM     36  C   UNL     1      31.450  -8.783 -21.597  0.00  0.00    +0.058 C 
ENDBRANCH  22  26
ENDBRANCH   1  22
TORSDOF 5
ENDMDL
MODEL 6
REMARK VINA RESULT:     -11.4      7.513     11.767
REMARK  Name = 119057475
REMARK  5 active torsions:
REMARK  status: ('A' for Active; 'I' for Inactive)
REMARK    1  A    between atoms: N_1  and  C_22
REMARK    2  A    between atoms: C_2  and  N_8
REMARK    3  A    between atoms: N_8  and  C_11
REMARK    4  A    between atoms: C_11  and  C_16
REMARK    5  A    between atoms: C_22  and  C_26
REMARK                            x       y       z     vdW  Elec       q    Type
REMARK                         _______ _______ _______ _____ _____    ______ ____
ROOT
ATOM      1  N   UNL     1      32.664 -11.917 -22.039  0.00  0.00    +0.387 N 
ATOM      2  C   UNL     1      31.770  -9.130 -21.996  0.00  0.00    -0.066 C 
ATOM      3  C   UNL     1      31.551 -11.505 -21.171  0.00  0.00    -0.079 C 
ATOM      4  C   UNL     1      32.717 -11.099 -23.259  0.00  0.00    -0.079 C 
ATOM      5  C   UNL     1      31.683 -10.034 -20.765  0.00  0.00    -0.044 C 
ATOM      6  C   UNL     1      32.889  -9.615 -22.923  0.00  0.00    -0.044 C 
ATOM      7  H   UNL     1      33.532 -11.771 -21.525  0.00  0.00    -0.080 HD
ENDROOT
BRANCH   2   8
ATOM      8  N   UNL     1      31.990  -7.743 -21.592  0.00  0.00    +0.389 N 
ATOM      9  H   UNL     1      32.170  -7.713 -20.587  0.00  0.00    -0.084 HD
ATOM     10  H   UNL     1      31.157  -7.200 -21.819  0.00  0.00    -0.084 HD
BRANCH   8  11
ATOM     11  C   UNL     1      33.127  -7.173 -22.297  0.00  0.00    -0.032 C 
BRANCH  11  16
ATOM     12  O   UNL     1      30.565  -3.080 -22.823  0.00  0.00    -0.467 OA
ATOM     13  O   UNL     1      31.849  -2.724 -25.373  0.00  0.00    -0.453 OA
ATOM     14  N   UNL     1      33.364  -5.746 -24.257  0.00  0.00    -0.151 NA
ATOM     15  N   UNL     1      33.048  -4.650 -25.001  0.00  0.00    -0.107 NA
ATOM     16  C   UNL     1      32.744  -5.942 -23.075  0.00  0.00    +0.062 C 
ATOM     17  C   UNL     1      31.800  -5.072 -22.570  0.00  0.00    +0.056 C 
ATOM     18  C   UNL     1      31.489  -3.952 -23.324  0.00  0.00    +0.194 C 
ATOM     19  C   UNL     1      32.120  -3.783 -24.544  0.00  0.00    +0.278 C 
ATOM     20  C   UNL     1      30.569  -1.835 -23.529  0.00  0.00    +0.253 C 
ATOM     21  C   UNL     1      30.622  -2.078 -25.024  0.00  0.00    +0.254 C 
ENDBRANCH  11  16
ENDBRANCH   8  11
ENDBRANCH   2   8
BRANCH   1  22
ATOM     22  C   UNL     1      32.551 -13.335 -22.377  0.00  0.00    -0.071 C 
BRANCH  22  26
ATOM     23  F   UNL     1      34.880 -14.333 -20.288  0.00  0.00    -0.204 F 
ATOM     24  O   UNL     1      33.358 -16.271 -26.817  0.00  0.00    -0.270 OA
ATOM     25  N   UNL     1      33.890 -15.704 -24.638  0.00  0.00    -0.255 N 
ATOM     26  C   UNL     1      33.796 -13.824 -23.105  0.00  0.00    +0.025 C 
ATOM     27  C   UNL     1      33.476 -14.297 -24.554  0.00  0.00    +0.101 C 
ATOM     28  C   UNL     1      34.384 -15.062 -22.488  0.00  0.00    +0.018 C 
ATOM     29  C   UNL     1      34.413 -16.091 -23.412  0.00  0.00    +0.052 C 
ATOM     30  C   UNL     1      34.896 -17.360 -23.162  0.00  0.00    +0.014 C 
ATOM     31  C   UNL     1      34.876 -15.296 -21.218  0.00  0.00    +0.137 C 
ATOM     32  C   UNL     1      33.810 -16.561 -25.712  0.00  0.00    +0.253 C 
ATOM     33  C   UNL     1      35.390 -17.604 -21.884  0.00  0.00    +0.004 C 
ATOM     34  C   UNL     1      35.378 -16.574 -20.920  0.00  0.00    +0.029 C 
ATOM     35  C   UNL     1      34.840 -18.315 -24.265  0.00  0.00    +0.006 C 
ATOM     36  C   UNL     1      34.334 -17.948 -25.455  0.00  0.00    +0.058 C 
ENDBRANCH  22  26
ENDBRANCH   1  22
TORSDOF 5
ENDMDL
MODEL 7
REMARK VINA RESULT:     -11.3      2.090      2.857
REMARK  Name = 119057475
REMARK  5 active torsions:
REMARK  status: ('A' for Active; 'I' for Inactive)
REMARK    1  A    between atoms: N_1  and  C_22
REMARK    2  A    between atoms: C_2  and  N_8
REMARK    3  A    between atoms: N_8  and  C_11
REMARK    4  A    between atoms: C_11  and  C_16
REMARK    5  A    between atoms: C_22  and  C_26
REMARK                            x       y       z     vdW  Elec       q    Type
REMARK                         _______ _______ _______ _____ _____    ______ ____
ROOT
ATOM      1  N   UNL     1      35.085 -22.045 -19.096  0.00  0.00    +0.387 N 
ATOM      2  C   UNL     1      34.798 -19.999 -21.170  0.00  0.00    -0.066 C 
ATOM      3  C   UNL     1      36.234 -21.217 -19.490  0.00  0.00    -0.079 C 
ATOM      4  C   UNL     1      33.823 -21.306 -19.244  0.00  0.00    -0.079 C 
ATOM      5  C   UNL     1      36.109 -20.755 -20.944  0.00  0.00    -0.044 C 
ATOM      6  C   UNL     1      33.617 -20.848 -20.690  0.00  0.00    -0.044 C 
ATOM      7  H   UNL     1      35.052 -22.851 -19.719  0.00  0.00    -0.080 HD
ENDROOT
BRANCH   2   8
ATOM      8  N   UNL     1      34.652 -19.649 -22.581  0.00  0.00    +0.389 N 
ATOM      9  H   UNL     1      33.745 -19.201 -22.721  0.00  0.00    -0.084 HD
ATOM     10  H   UNL     1      34.717 -20.500 -23.138  0.00  0.00    -0.084 HD
BRANCH   8  11
ATOM     11  C   UNL     1      35.705 -18.735 -22.999  0.00  0.00    -0.032 C 
BRANCH  11  16
ATOM     12  O   UNL     1      33.627 -15.079 -25.429  0.00  0.00    -0.467 OA
ATOM     13  O   UNL     1      34.005 -13.445 -23.091  0.00  0.00    -0.453 OA
ATOM     14  N   UNL     1      35.353 -16.548 -21.985  0.00  0.00    -0.151 NA
ATOM     15  N   UNL     1      34.929 -15.255 -22.016  0.00  0.00    -0.107 NA
ATOM     16  C   UNL     1      35.213 -17.315 -23.086  0.00  0.00    +0.062 C 
ATOM     17  C   UNL     1      34.644 -16.852 -24.255  0.00  0.00    +0.056 C 
ATOM     18  C   UNL     1      34.203 -15.539 -24.279  0.00  0.00    +0.194 C 
ATOM     19  C   UNL     1      34.379 -14.764 -23.146  0.00  0.00    +0.278 C 
ATOM     20  C   UNL     1      32.943 -13.839 -25.224  0.00  0.00    +0.253 C 
ATOM     21  C   UNL     1      33.796 -12.898 -24.395  0.00  0.00    +0.254 C 
ENDBRANCH  11  16
ENDBRANCH   8  11
ENDBRANCH   2   8
BRANCH   1  22
ATOM     22  C   UNL     1      35.243 -22.520 -17.722  0.00  0.00    -0.071 C 
BRANCH  22  26
ATOM     23  F   UNL     1      36.366 -24.561 -15.409  0.00  0.00    -0.204 F 
ATOM     24  O   UNL     1      29.889 -22.668 -17.183  0.00  0.00    -0.270 OA
ATOM     25  N   UNL     1      32.011 -23.305 -16.517  0.00  0.00    -0.255 N 
ATOM     26  C   UNL     1      34.246 -23.626 -17.409  0.00  0.00    +0.025 C 
ATOM     27  C   UNL     1      32.786 -23.214 -17.762  0.00  0.00    +0.101 C 
ATOM     28  C   UNL     1      34.146 -23.922 -15.937  0.00  0.00    +0.018 C 
ATOM     29  C   UNL     1      32.850 -23.725 -15.495  0.00  0.00    +0.052 C 
ATOM     30  C   UNL     1      32.425 -23.912 -14.196  0.00  0.00    +0.014 C 
ATOM     31  C   UNL     1      35.100 -24.345 -15.032  0.00  0.00    +0.137 C 
ATOM     32  C   UNL     1      30.675 -23.040 -16.315  0.00  0.00    +0.253 C 
ATOM     33  C   UNL     1      33.381 -24.335 -13.277  0.00  0.00    +0.004 C 
ATOM     34  C   UNL     1      34.711 -24.550 -13.697  0.00  0.00    +0.029 C 
ATOM     35  C   UNL     1      31.016 -23.649 -13.919  0.00  0.00    +0.006 C 
ATOM     36  C   UNL     1      30.197 -23.242 -14.903  0.00  0.00    +0.058 C 
ENDBRANCH  22  26
ENDBRANCH   1  22
TORSDOF 5
ENDMDL
MODEL 8
REMARK VINA RESULT:     -11.3      7.468     11.404
REMARK  Name = 119057475
REMARK  5 active torsions:
REMARK  status: ('A' for Active; 'I' for Inactive)
REMARK    1  A    between atoms: N_1  and  C_22
REMARK    2  A    between atoms: C_2  and  N_8
REMARK    3  A    between atoms: N_8  and  C_11
REMARK    4  A    between atoms: C_11  and  C_16
REMARK    5  A    between atoms: C_22  and  C_26
REMARK                            x       y       z     vdW  Elec       q    Type
REMARK                         _______ _______ _______ _____ _____    ______ ____
ROOT
ATOM      1  N   UNL     1      32.690 -11.984 -22.057  0.00  0.00    +0.387 N 
ATOM      2  C   UNL     1      31.791  -9.200 -22.132  0.00  0.00    -0.066 C 
ATOM      3  C   UNL     1      31.553 -11.546 -21.234  0.00  0.00    -0.079 C 
ATOM      4  C   UNL     1      32.775 -11.207 -23.302  0.00  0.00    -0.079 C 
ATOM      5  C   UNL     1      31.672 -10.062 -20.874  0.00  0.00    -0.044 C 
ATOM      6  C   UNL     1      32.935  -9.713 -23.011  0.00  0.00    -0.044 C 
ATOM      7  H   UNL     1      33.544 -11.819 -21.524  0.00  0.00    -0.080 HD
ENDROOT
BRANCH   2   8
ATOM      8  N   UNL     1      31.998  -7.800 -21.768  0.00  0.00    +0.389 N 
ATOM      9  H   UNL     1      31.917  -7.703 -20.755  0.00  0.00    -0.084 HD
ATOM     10  H   UNL     1      31.291  -7.232 -22.236  0.00  0.00    -0.084 HD
BRANCH   8  11
ATOM     11  C   UNL     1      33.315  -7.345 -22.187  0.00  0.00    -0.032 C 
BRANCH  11  16
ATOM     12  O   UNL     1      35.034  -5.270 -26.229  0.00  0.00    -0.467 OA
ATOM     13  O   UNL     1      32.806  -3.453 -26.122  0.00  0.00    -0.453 OA
ATOM     14  N   UNL     1      32.172  -5.486 -23.269  0.00  0.00    -0.151 NA
ATOM     15  N   UNL     1      32.053  -4.539 -24.240  0.00  0.00    -0.107 NA
ATOM     16  C   UNL     1      33.230  -6.322 -23.288  0.00  0.00    +0.062 C 
ATOM     17  C   UNL     1      34.207  -6.272 -24.262  0.00  0.00    +0.056 C 
ATOM     18  C   UNL     1      34.078  -5.316 -25.255  0.00  0.00    +0.194 C 
ATOM     19  C   UNL     1      32.997  -4.453 -25.202  0.00  0.00    +0.278 C 
ATOM     20  C   UNL     1      34.626  -4.470 -27.342  0.00  0.00    +0.253 C 
ATOM     21  C   UNL     1      34.000  -3.176 -26.859  0.00  0.00    +0.254 C 
ENDBRANCH  11  16
ENDBRANCH   8  11
ENDBRANCH   2   8
BRANCH   1  22
ATOM     22  C   UNL     1      32.589 -13.413 -22.351  0.00  0.00    -0.071 C 
BRANCH  22  26
ATOM     23  F   UNL     1      34.934 -14.419 -20.285  0.00  0.00    -0.204 F 
ATOM     24  O   UNL     1      33.338 -16.356 -26.795  0.00  0.00    -0.270 OA
ATOM     25  N   UNL     1      33.895 -15.790 -24.622  0.00  0.00    -0.255 N 
ATOM     26  C   UNL     1      33.824 -13.908 -23.091  0.00  0.00    +0.025 C 
ATOM     27  C   UNL     1      33.487 -14.381 -24.536  0.00  0.00    +0.101 C 
ATOM     28  C   UNL     1      34.413 -15.148 -22.478  0.00  0.00    +0.018 C 
ATOM     29  C   UNL     1      34.429 -16.178 -23.402  0.00  0.00    +0.052 C 
ATOM     30  C   UNL     1      34.909 -17.448 -23.156  0.00  0.00    +0.014 C 
ATOM     31  C   UNL     1      34.917 -15.383 -21.213  0.00  0.00    +0.137 C 
ATOM     32  C   UNL     1      33.800 -16.647 -25.695  0.00  0.00    +0.253 C 
ATOM     33  C   UNL     1      35.414 -17.694 -21.883  0.00  0.00    +0.004 C 
ATOM     34  C   UNL     1      35.417 -16.663 -20.919  0.00  0.00    +0.029 C 
ATOM     35  C   UNL     1      34.837 -18.405 -24.257  0.00  0.00    +0.006 C 
ATOM     36  C   UNL     1      34.321 -18.036 -25.442  0.00  0.00    +0.058 C 
ENDBRANCH  22  26
ENDBRANCH   1  22
TORSDOF 5
ENDMDL
MODEL 9
REMARK VINA RESULT:     -11.2      2.930     10.907
REMARK  Name = 119057475
REMARK  5 active torsions:
REMARK  status: ('A' for Active; 'I' for Inactive)
REMARK    1  A    between atoms: N_1  and  C_22
REMARK    2  A    between atoms: C_2  and  N_8
REMARK    3  A    between atoms: N_8  and  C_11
REMARK    4  A    between atoms: C_11  and  C_16
REMARK    5  A    between atoms: C_22  and  C_26
REMARK                            x       y       z     vdW  Elec       q    Type
REMARK                         _______ _______ _______ _____ _____    ______ ____
ROOT
ATOM      1  N   UNL     1      34.275 -20.733 -20.484  0.00  0.00    +0.387 N 
ATOM      2  C   UNL     1      34.368 -22.712 -18.329  0.00  0.00    -0.066 C 
ATOM      3  C   UNL     1      35.482 -21.543 -20.268  0.00  0.00    -0.079 C 
ATOM      4  C   UNL     1      33.064 -21.471 -20.098  0.00  0.00    -0.079 C 
ATOM      5  C   UNL     1      35.613 -21.958 -18.800  0.00  0.00    -0.044 C 
ATOM      6  C   UNL     1      33.113 -21.884 -18.625  0.00  0.00    -0.044 C 
ATOM      7  H   UNL     1      34.341 -19.907 -19.890  0.00  0.00    -0.080 HD
ENDROOT
BRANCH   2   8
ATOM      8  N   UNL     1      34.469 -23.018 -16.904  0.00  0.00    +0.389 N 
ATOM      9  H   UNL     1      34.349 -24.022 -16.769  0.00  0.00    -0.084 HD
ATOM     10  H   UNL     1      33.742 -22.503 -16.407  0.00  0.00    -0.084 HD
BRANCH   8  11
ATOM     11  C   UNL     1      35.766 -22.618 -16.380  0.00  0.00    -0.032 C 
BRANCH  11  16
ATOM     12  O   UNL     1      39.859 -24.624 -14.703  0.00  0.00    -0.467 OA
ATOM     13  O   UNL     1      38.427 -27.108 -14.471  0.00  0.00    -0.453 OA
ATOM     14  N   UNL     1      35.873 -24.955 -15.701  0.00  0.00    -0.151 NA
ATOM     15  N   UNL     1      36.532 -26.048 -15.228  0.00  0.00    -0.107 NA
ATOM     16  C   UNL     1      36.542 -23.792 -15.847  0.00  0.00    +0.062 C 
ATOM     17  C   UNL     1      37.877 -23.651 -15.527  0.00  0.00    +0.056 C 
ATOM     18  C   UNL     1      38.542 -24.761 -15.035  0.00  0.00    +0.194 C 
ATOM     19  C   UNL     1      37.841 -25.949 -14.916  0.00  0.00    +0.278 C 
ATOM     20  C   UNL     1      40.333 -25.729 -13.928  0.00  0.00    +0.253 C 
ATOM     21  C   UNL     1      39.853 -27.037 -14.527  0.00  0.00    +0.254 C 
ENDBRANCH  11  16
ENDBRANCH   8  11
ENDBRANCH   2   8
BRANCH   1  22
ATOM     22  C   UNL     1      34.189 -20.302 -21.879  0.00  0.00    -0.071 C 
BRANCH  22  26
ATOM     23  F   UNL     1      34.803 -20.068 -25.096  0.00  0.00    -0.204 F 
ATOM     24  O   UNL     1      35.093 -15.355 -19.958  0.00  0.00    -0.270 OA
ATOM     25  N   UNL     1      34.978 -16.857 -21.714  0.00  0.00    -0.255 N 
ATOM     26  C   UNL     1      35.223 -19.227 -22.183  0.00  0.00    +0.025 C 
ATOM     27  C   UNL     1      35.281 -18.141 -21.067  0.00  0.00    +0.101 C 
ATOM     28  C   UNL     1      34.878 -18.414 -23.400  0.00  0.00    +0.018 C 
ATOM     29  C   UNL     1      34.758 -17.077 -23.066  0.00  0.00    +0.052 C 
ATOM     30  C   UNL     1      34.451 -16.068 -23.956  0.00  0.00    +0.014 C 
ATOM     31  C   UNL     1      34.689 -18.790 -24.717  0.00  0.00    +0.137 C 
ATOM     32  C   UNL     1      34.907 -15.605 -21.147  0.00  0.00    +0.253 C 
ATOM     33  C   UNL     1      34.256 -16.439 -25.283  0.00  0.00    +0.004 C 
ATOM     34  C   UNL     1      34.375 -17.794 -25.658  0.00  0.00    +0.029 C 
ATOM     35  C   UNL     1      34.363 -14.715 -23.414  0.00  0.00    +0.006 C 
ATOM     36  C   UNL     1      34.575 -14.495 -22.106  0.00  0.00    +0.058 C 
ENDBRANCH  22  26
ENDBRANCH   1  22
TORSDOF 5
ENDMDL
