MODEL 1
REMARK VINA RESULT:     -11.9      0.000      0.000
REMARK  Name = 9976892
REMARK  4 active torsions:
REMARK  status: ('A' for Active; 'I' for Inactive)
REMARK    1  A    between atoms: N_1  and  C_13
REMARK    2  A    between atoms: C_10  and  O_17
REMARK    3  A    between atoms: O_17  and  C_20
REMARK    4  A    between atoms: C_19  and  N_25
REMARK                            x       y       z     vdW  Elec       q    Type
REMARK                         _______ _______ _______ _____ _____    ______ ____
ROOT
ATOM      1  N   UNL     1      32.375  -8.998 -22.449  0.00  0.00    +0.389 N 
ATOM      2  C   UNL     1      33.450  -9.480 -23.328  0.00  0.00    -0.073 C 
ATOM      3  C   UNL     1      32.131  -9.875 -21.293  0.00  0.00    -0.073 C 
ATOM      4  C   UNL     1      33.068 -10.731 -24.128  0.00  0.00    +0.003 C 
ATOM      5  C   UNL     1      31.471 -11.205 -21.667  0.00  0.00    +0.003 C 
ATOM      6  C   UNL     1      33.204 -12.010 -23.342  0.00  0.00    -0.025 C 
ATOM      7  C   UNL     1      32.448 -12.234 -22.177  0.00  0.00    -0.028 C 
ATOM      8  C   UNL     1      34.090 -13.003 -23.787  0.00  0.00    +0.033 C 
ATOM      9  C   UNL     1      32.596 -13.449 -21.485  0.00  0.00    -0.002 C 
ATOM     10  C   UNL     1      34.231 -14.202 -23.088  0.00  0.00    +0.147 C 
ATOM     11  C   UNL     1      33.483 -14.424 -21.938  0.00  0.00    +0.037 C 
ATOM     12  H   UNL     1      31.516  -8.980 -22.999  0.00  0.00    -0.080 HD
ENDROOT
BRANCH   1  13
ATOM     13  C   UNL     1      32.739  -7.691 -21.966  0.00  0.00    -0.058 C 
ATOM     14  C   UNL     1      31.569  -6.699 -22.125  0.00  0.00    -0.021 C 
ATOM     15  C   UNL     1      32.519  -7.588 -20.442  0.00  0.00    -0.021 C 
ATOM     16  C   UNL     1      31.901  -6.198 -20.704  0.00  0.00    -0.004 C 
ENDBRANCH   1  13
BRANCH  10  17
ATOM     17  O   UNL     1      35.097 -15.153 -23.534  0.00  0.00    -0.436 OA
BRANCH  17  20
ATOM     18  N   UNL     1      35.320 -16.332 -21.548  0.00  0.00    -0.209 NA
ATOM     19  C   UNL     1      35.139 -18.743 -21.557  0.00  0.00    +0.073 C 
ATOM     20  C   UNL     1      35.109 -16.372 -22.876  0.00  0.00    +0.230 C 
ATOM     21  C   UNL     1      34.924 -18.729 -22.930  0.00  0.00    +0.021 C 
ATOM     22  C   UNL     1      35.330 -17.529 -20.918  0.00  0.00    +0.117 C 
ATOM     23  C   UNL     1      34.907 -17.518 -23.614  0.00  0.00    +0.059 C 
BRANCH  19  25
ATOM     24  O   UNL     1      32.858 -20.573 -20.674  0.00  0.00    -0.275 OA
ATOM     25  N   UNL     1      35.162 -19.969 -20.829  0.00  0.00    -0.257 N 
ATOM     26  C   UNL     1      36.030 -21.967 -19.984  0.00  0.00    +0.031 C 
ATOM     27  C   UNL     1      36.388 -20.529 -20.295  0.00  0.00    +0.099 C 
ATOM     28  C   UNL     1      34.562 -21.892 -19.615  0.00  0.00    +0.087 C 
ATOM     29  C   UNL     1      34.048 -20.747 -20.457  0.00  0.00    +0.229 C 
ENDBRANCH  19  25
ENDBRANCH  17  20
ENDBRANCH  10  17
TORSDOF 4
ENDMDL
MODEL 2
REMARK VINA RESULT:     -11.8      1.070      1.400
REMARK  Name = 9976892
REMARK  4 active torsions:
REMARK  status: ('A' for Active; 'I' for Inactive)
REMARK    1  A    between atoms: N_1  and  C_13
REMARK    2  A    between atoms: C_10  and  O_17
REMARK    3  A    between atoms: O_17  and  C_20
REMARK    4  A    between atoms: C_19  and  N_25
REMARK                            x       y       z     vdW  Elec       q    Type
REMARK                         _______ _______ _______ _____ _____    ______ ____
ROOT
ATOM      1  N   UNL     1      31.954  -8.764 -22.142  0.00  0.00    +0.389 N 
ATOM      2  C   UNL     1      33.073  -9.148 -23.014  0.00  0.00    -0.073 C 
ATOM      3  C   UNL     1      31.715  -9.717 -21.046  0.00  0.00    -0.073 C 
ATOM      4  C   UNL     1      32.767 -10.364 -23.896  0.00  0.00    +0.003 C 
ATOM      5  C   UNL     1      31.124 -11.049 -21.517  0.00  0.00    +0.003 C 
ATOM      6  C   UNL     1      32.935 -11.681 -23.182  0.00  0.00    -0.025 C 
ATOM      7  C   UNL     1      32.158 -12.005 -22.056  0.00  0.00    -0.028 C 
ATOM      8  C   UNL     1      33.876 -12.609 -23.657  0.00  0.00    +0.033 C 
ATOM      9  C   UNL     1      32.339 -13.251 -21.431  0.00  0.00    -0.002 C 
ATOM     10  C   UNL     1      34.049 -13.840 -23.025  0.00  0.00    +0.147 C 
ATOM     11  C   UNL     1      33.279 -14.161 -21.913  0.00  0.00    +0.037 C 
ATOM     12  H   UNL     1      31.110  -8.749 -22.715  0.00  0.00    -0.080 HD
ENDROOT
BRANCH   1  13
ATOM     13  C   UNL     1      32.248  -7.474 -21.572  0.00  0.00    -0.058 C 
ATOM     14  C   UNL     1      33.208  -6.677 -22.479  0.00  0.00    -0.021 C 
ATOM     15  C   UNL     1      31.161  -6.446 -21.948  0.00  0.00    -0.021 C 
ATOM     16  C   UNL     1      32.308  -5.450 -22.224  0.00  0.00    -0.004 C 
ENDBRANCH   1  13
BRANCH  10  17
ATOM     17  O   UNL     1      34.966 -14.726 -23.499  0.00  0.00    -0.436 OA
BRANCH  17  20
ATOM     18  N   UNL     1      35.222 -15.951 -21.545  0.00  0.00    -0.209 NA
ATOM     19  C   UNL     1      35.211 -18.368 -21.634  0.00  0.00    +0.073 C 
ATOM     20  C   UNL     1      35.048 -15.962 -22.879  0.00  0.00    +0.230 C 
ATOM     21  C   UNL     1      35.030 -18.323 -23.011  0.00  0.00    +0.021 C 
ATOM     22  C   UNL     1      35.301 -17.165 -20.952  0.00  0.00    +0.117 C 
ATOM     23  C   UNL     1      34.945 -17.095 -23.657  0.00  0.00    +0.059 C 
BRANCH  19  25
ATOM     24  O   UNL     1      37.583 -19.703 -20.247  0.00  0.00    -0.275 OA
ATOM     25  N   UNL     1      35.302 -19.612 -20.944  0.00  0.00    -0.257 N 
ATOM     26  C   UNL     1      34.571 -21.477 -19.740  0.00  0.00    +0.031 C 
ATOM     27  C   UNL     1      34.186 -20.536 -20.862  0.00  0.00    +0.099 C 
ATOM     28  C   UNL     1      36.083 -21.529 -19.827  0.00  0.00    +0.087 C 
ATOM     29  C   UNL     1      36.451 -20.155 -20.337  0.00  0.00    +0.229 C 
ENDBRANCH  19  25
ENDBRANCH  17  20
ENDBRANCH  10  17
TORSDOF 4
ENDMDL
MODEL 3
REMARK VINA RESULT:     -11.8      4.142     12.113
REMARK  Name = 9976892
REMARK  4 active torsions:
REMARK  status: ('A' for Active; 'I' for Inactive)
REMARK    1  A    between atoms: N_1  and  C_13
REMARK    2  A    between atoms: C_10  and  O_17
REMARK    3  A    between atoms: O_17  and  C_20
REMARK    4  A    between atoms: C_19  and  N_25
REMARK                            x       y       z     vdW  Elec       q    Type
REMARK                         _______ _______ _______ _____ _____    ______ ____
ROOT
ATOM      1  N   UNL     1      36.186 -24.247 -14.109  0.00  0.00    +0.389 N 
ATOM      2  C   UNL     1      37.263 -23.762 -14.985  0.00  0.00    -0.073 C 
ATOM      3  C   UNL     1      34.979 -24.660 -14.844  0.00  0.00    -0.073 C 
ATOM      4  C   UNL     1      36.964 -22.400 -15.620  0.00  0.00    +0.003 C 
ATOM      5  C   UNL     1      34.203 -23.486 -15.448  0.00  0.00    +0.003 C 
ATOM      6  C   UNL     1      36.080 -22.488 -16.839  0.00  0.00    -0.025 C 
ATOM      7  C   UNL     1      34.773 -23.002 -16.757  0.00  0.00    -0.028 C 
ATOM      8  C   UNL     1      36.563 -22.036 -18.077  0.00  0.00    +0.033 C 
ATOM      9  C   UNL     1      33.980 -23.050 -17.916  0.00  0.00    -0.002 C 
ATOM     10  C   UNL     1      35.766 -22.094 -19.220  0.00  0.00    +0.147 C 
ATOM     11  C   UNL     1      34.474 -22.600 -19.139  0.00  0.00    +0.037 C 
ATOM     12  H   UNL     1      35.916 -23.474 -13.500  0.00  0.00    -0.080 HD
ENDROOT
BRANCH   1  13
ATOM     13  C   UNL     1      36.681 -25.378 -13.368  0.00  0.00    -0.058 C 
ATOM     14  C   UNL     1      37.853 -26.053 -14.110  0.00  0.00    -0.021 C 
ATOM     15  C   UNL     1      37.709 -24.933 -12.307  0.00  0.00    -0.021 C 
ATOM     16  C   UNL     1      38.567 -26.138 -12.745  0.00  0.00    -0.004 C 
ENDBRANCH   1  13
BRANCH  10  17
ATOM     17  O   UNL     1      36.252 -21.652 -20.412  0.00  0.00    -0.436 OA
BRANCH  17  20
ATOM     18  N   UNL     1      36.815 -19.408 -20.591  0.00  0.00    -0.209 NA
ATOM     19  C   UNL     1      35.255 -17.855 -21.591  0.00  0.00    +0.073 C 
ATOM     20  C   UNL     1      35.905 -20.373 -20.814  0.00  0.00    +0.230 C 
ATOM     21  C   UNL     1      34.349 -18.889 -21.799  0.00  0.00    +0.021 C 
ATOM     22  C   UNL     1      36.464 -18.164 -20.989  0.00  0.00    +0.117 C 
ATOM     23  C   UNL     1      34.673 -20.181 -21.404  0.00  0.00    +0.059 C 
BRANCH  19  25
ATOM     24  O   UNL     1      34.882 -16.638 -24.368  0.00  0.00    -0.275 OA
ATOM     25  N   UNL     1      34.950 -16.519 -21.985  0.00  0.00    -0.257 N 
ATOM     26  C   UNL     1      34.121 -14.342 -21.793  0.00  0.00    +0.031 C 
ATOM     27  C   UNL     1      34.835 -15.436 -21.027  0.00  0.00    +0.099 C 
ATOM     28  C   UNL     1      34.586 -14.550 -23.220  0.00  0.00    +0.087 C 
ATOM     29  C   UNL     1      34.803 -16.044 -23.303  0.00  0.00    +0.229 C 
ENDBRANCH  19  25
ENDBRANCH  17  20
ENDBRANCH  10  17
TORSDOF 4
ENDMDL
MODEL 4
REMARK VINA RESULT:     -11.7      6.572     12.955
REMARK  Name = 9976892
REMARK  4 active torsions:
REMARK  status: ('A' for Active; 'I' for Inactive)
REMARK    1  A    between atoms: N_1  and  C_13
REMARK    2  A    between atoms: C_10  and  O_17
REMARK    3  A    between atoms: O_17  and  C_20
REMARK    4  A    between atoms: C_19  and  N_25
REMARK                            x       y       z     vdW  Elec       q    Type
REMARK                         _______ _______ _______ _____ _____    ______ ____
ROOT
ATOM      1  N   UNL     1      38.003 -24.489 -13.575  0.00  0.00    +0.389 N 
ATOM      2  C   UNL     1      37.953 -24.227 -15.020  0.00  0.00    -0.073 C 
ATOM      3  C   UNL     1      36.742 -25.021 -13.035  0.00  0.00    -0.073 C 
ATOM      4  C   UNL     1      37.078 -23.025 -15.391  0.00  0.00    +0.003 C 
ATOM      5  C   UNL     1      35.615 -23.985 -12.990  0.00  0.00    +0.003 C 
ATOM      6  C   UNL     1      35.607 -23.350 -15.449  0.00  0.00    -0.025 C 
ATOM      7  C   UNL     1      34.914 -23.804 -14.312  0.00  0.00    -0.028 C 
ATOM      8  C   UNL     1      34.910 -23.183 -16.656  0.00  0.00    +0.033 C 
ATOM      9  C   UNL     1      33.540 -24.080 -14.409  0.00  0.00    -0.002 C 
ATOM     10  C   UNL     1      33.546 -23.465 -16.740  0.00  0.00    +0.147 C 
ATOM     11  C   UNL     1      32.862 -23.912 -15.616  0.00  0.00    +0.037 C 
ATOM     12  H   UNL     1      38.177 -23.598 -13.108  0.00  0.00    -0.080 HD
ENDROOT
BRANCH   1  13
ATOM     13  C   UNL     1      39.049 -25.447 -13.325  0.00  0.00    -0.058 C 
ATOM     14  C   UNL     1      38.932 -26.652 -14.280  0.00  0.00    -0.021 C 
ATOM     15  C   UNL     1      40.337 -25.067 -14.085  0.00  0.00    -0.021 C 
ATOM     16  C   UNL     1      40.461 -26.558 -14.464  0.00  0.00    -0.004 C 
ENDBRANCH   1  13
BRANCH  10  17
ATOM     17  O   UNL     1      32.887 -23.299 -17.919  0.00  0.00    -0.436 OA
BRANCH  17  20
ATOM     18  N   UNL     1      32.537 -21.571 -19.427  0.00  0.00    -0.209 NA
ATOM     19  C   UNL     1      34.414 -20.618 -20.618  0.00  0.00    +0.073 C 
ATOM     20  C   UNL     1      33.414 -22.397 -18.829  0.00  0.00    +0.230 C 
ATOM     21  C   UNL     1      35.278 -21.495 -19.971  0.00  0.00    +0.021 C 
ATOM     22  C   UNL     1      33.064 -20.696 -20.314  0.00  0.00    +0.117 C 
ATOM     23  C   UNL     1      34.774 -22.410 -19.053  0.00  0.00    +0.059 C 
BRANCH  19  25
ATOM     24  O   UNL     1      36.768 -18.678 -20.455  0.00  0.00    -0.275 OA
ATOM     25  N   UNL     1      34.901 -19.670 -21.565  0.00  0.00    -0.257 N 
ATOM     26  C   UNL     1      35.271 -18.695 -23.656  0.00  0.00    +0.031 C 
ATOM     27  C   UNL     1      34.234 -19.425 -22.829  0.00  0.00    +0.099 C 
ATOM     28  C   UNL     1      36.064 -17.920 -22.622  0.00  0.00    +0.087 C 
ATOM     29  C   UNL     1      36.000 -18.804 -21.398  0.00  0.00    +0.229 C 
ENDBRANCH  19  25
ENDBRANCH  17  20
ENDBRANCH  10  17
TORSDOF 4
ENDMDL
MODEL 5
REMARK VINA RESULT:     -11.3      2.095      3.674
REMARK  Name = 9976892
REMARK  4 active torsions:
REMARK  status: ('A' for Active; 'I' for Inactive)
REMARK    1  A    between atoms: N_1  and  C_13
REMARK    2  A    between atoms: C_10  and  O_17
REMARK    3  A    between atoms: O_17  and  C_20
REMARK    4  A    between atoms: C_19  and  N_25
REMARK                            x       y       z     vdW  Elec       q    Type
REMARK                         _______ _______ _______ _____ _____    ______ ____
ROOT
ATOM      1  N   UNL     1      32.918  -6.568 -22.431  0.00  0.00    +0.389 N 
ATOM      2  C   UNL     1      31.937  -7.656 -22.553  0.00  0.00    -0.073 C 
ATOM      3  C   UNL     1      33.982  -6.626 -23.446  0.00  0.00    -0.073 C 
ATOM      4  C   UNL     1      32.495  -9.026 -22.151  0.00  0.00    +0.003 C 
ATOM      5  C   UNL     1      34.967  -7.779 -23.229  0.00  0.00    +0.003 C 
ATOM      6  C   UNL     1      33.296  -9.691 -23.242  0.00  0.00    -0.025 C 
ATOM      7  C   UNL     1      34.466  -9.101 -23.752  0.00  0.00    -0.028 C 
ATOM      8  C   UNL     1      32.875 -10.931 -23.749  0.00  0.00    +0.033 C 
ATOM      9  C   UNL     1      35.188  -9.765 -24.758  0.00  0.00    -0.002 C 
ATOM     10  C   UNL     1      33.599 -11.577 -24.751  0.00  0.00    +0.147 C 
ATOM     11  C   UNL     1      34.756 -10.994 -25.254  0.00  0.00    +0.037 C 
ATOM     12  H   UNL     1      33.368  -6.662 -21.519  0.00  0.00    -0.080 HD
ENDROOT
BRANCH   1  13
ATOM     13  C   UNL     1      32.222  -5.315 -22.568  0.00  0.00    -0.058 C 
ATOM     14  C   UNL     1      32.396  -4.741 -23.989  0.00  0.00    -0.021 C 
ATOM     15  C   UNL     1      30.739  -5.546 -22.925  0.00  0.00    -0.021 C 
ATOM     16  C   UNL     1      30.890  -4.407 -23.955  0.00  0.00    -0.004 C 
ENDBRANCH   1  13
BRANCH  10  17
ATOM     17  O   UNL     1      33.175 -12.777 -25.232  0.00  0.00    -0.436 OA
BRANCH  17  20
ATOM     18  N   UNL     1      33.596 -15.056 -25.325  0.00  0.00    -0.209 NA
ATOM     19  C   UNL     1      34.537 -16.183 -23.403  0.00  0.00    +0.073 C 
ATOM     20  C   UNL     1      33.637 -13.922 -24.604  0.00  0.00    +0.230 C 
ATOM     21  C   UNL     1      34.558 -14.983 -22.702  0.00  0.00    +0.021 C 
ATOM     22  C   UNL     1      34.051 -16.167 -24.701  0.00  0.00    +0.117 C 
ATOM     23  C   UNL     1      34.099 -13.820 -23.309  0.00  0.00    +0.059 C 
BRANCH  19  25
ATOM     24  O   UNL     1      34.351 -19.075 -24.370  0.00  0.00    -0.275 OA
ATOM     25  N   UNL     1      35.001 -17.392 -22.807  0.00  0.00    -0.257 N 
ATOM     26  C   UNL     1      36.306 -18.770 -21.443  0.00  0.00    +0.031 C 
ATOM     27  C   UNL     1      35.621 -17.421 -21.496  0.00  0.00    +0.099 C 
ATOM     28  C   UNL     1      35.415 -19.651 -22.296  0.00  0.00    +0.087 C 
ATOM     29  C   UNL     1      34.862 -18.694 -23.327  0.00  0.00    +0.229 C 
ENDBRANCH  19  25
ENDBRANCH  17  20
ENDBRANCH  10  17
TORSDOF 4
ENDMDL
MODEL 6
REMARK VINA RESULT:     -10.9      5.564     10.967
REMARK  Name = 9976892
REMARK  4 active torsions:
REMARK  status: ('A' for Active; 'I' for Inactive)
REMARK    1  A    between atoms: N_1  and  C_13
REMARK    2  A    between atoms: C_10  and  O_17
REMARK    3  A    between atoms: O_17  and  C_20
REMARK    4  A    between atoms: C_19  and  N_25
REMARK                            x       y       z     vdW  Elec       q    Type
REMARK                         _______ _______ _______ _____ _____    ______ ____
ROOT
ATOM      1  N   UNL     1      31.855 -23.531 -16.257  0.00  0.00    +0.389 N 
ATOM      2  C   UNL     1      32.068 -22.745 -17.481  0.00  0.00    -0.073 C 
ATOM      3  C   UNL     1      32.924 -23.358 -15.260  0.00  0.00    -0.073 C 
ATOM      4  C   UNL     1      33.213 -23.273 -18.352  0.00  0.00    +0.003 C 
ATOM      5  C   UNL     1      34.246 -24.016 -15.667  0.00  0.00    +0.003 C 
ATOM      6  C   UNL     1      34.576 -22.826 -17.886  0.00  0.00    -0.025 C 
ATOM      7  C   UNL     1      35.064 -23.177 -16.615  0.00  0.00    -0.028 C 
ATOM      8  C   UNL     1      35.379 -22.055 -18.742  0.00  0.00    +0.033 C 
ATOM      9  C   UNL     1      36.347 -22.750 -16.230  0.00  0.00    -0.002 C 
ATOM     10  C   UNL     1      36.648 -21.634 -18.345  0.00  0.00    +0.147 C 
ATOM     11  C   UNL     1      37.132 -21.983 -17.090  0.00  0.00    +0.037 C 
ATOM     12  H   UNL     1      31.850 -24.517 -16.523  0.00  0.00    -0.080 HD
ENDROOT
BRANCH   1  13
ATOM     13  C   UNL     1      30.607 -23.120 -15.667  0.00  0.00    -0.058 C 
ATOM     14  C   UNL     1      29.484 -23.087 -16.723  0.00  0.00    -0.021 C 
ATOM     15  C   UNL     1      29.874 -24.323 -15.037  0.00  0.00    -0.021 C 
ATOM     16  C   UNL     1      28.582 -23.771 -15.674  0.00  0.00    -0.004 C 
ENDBRANCH   1  13
BRANCH  10  17
ATOM     17  O   UNL     1      37.412 -20.887 -19.187  0.00  0.00    -0.436 OA
BRANCH  17  20
ATOM     18  N   UNL     1      37.485 -19.289 -20.868  0.00  0.00    -0.209 NA
ATOM     19  C   UNL     1      35.547 -18.931 -22.269  0.00  0.00    +0.073 C 
ATOM     20  C   UNL     1      36.772 -20.232 -20.227  0.00  0.00    +0.230 C 
ATOM     21  C   UNL     1      34.854 -19.915 -21.573  0.00  0.00    +0.021 C 
ATOM     22  C   UNL     1      36.849 -18.658 -21.881  0.00  0.00    +0.117 C 
ATOM     23  C   UNL     1      35.474 -20.587 -20.526  0.00  0.00    +0.059 C 
BRANCH  19  25
ATOM     24  O   UNL     1      35.453 -15.940 -22.885  0.00  0.00    -0.275 OA
ATOM     25  N   UNL     1      34.937 -18.224 -23.347  0.00  0.00    -0.257 N 
ATOM     26  C   UNL     1      34.050 -17.882 -25.482  0.00  0.00    +0.031 C 
ATOM     27  C   UNL     1      34.140 -18.893 -24.358  0.00  0.00    +0.099 C 
ATOM     28  C   UNL     1      34.082 -16.550 -24.760  0.00  0.00    +0.087 C 
ATOM     29  C   UNL     1      34.940 -16.830 -23.547  0.00  0.00    +0.229 C 
ENDBRANCH  19  25
ENDBRANCH  17  20
ENDBRANCH  10  17
TORSDOF 4
ENDMDL
MODEL 7
REMARK VINA RESULT:     -10.9      1.964      9.975
REMARK  Name = 9976892
REMARK  4 active torsions:
REMARK  status: ('A' for Active; 'I' for Inactive)
REMARK    1  A    between atoms: N_1  and  C_13
REMARK    2  A    between atoms: C_10  and  O_17
REMARK    3  A    between atoms: O_17  and  C_20
REMARK    4  A    between atoms: C_19  and  N_25
REMARK                            x       y       z     vdW  Elec       q    Type
REMARK                         _______ _______ _______ _____ _____    ______ ____
ROOT
ATOM      1  N   UNL     1      35.159 -19.408 -21.863  0.00  0.00    +0.389 N 
ATOM      2  C   UNL     1      34.598 -18.959 -23.146  0.00  0.00    -0.073 C 
ATOM      3  C   UNL     1      34.917 -18.466 -20.759  0.00  0.00    -0.073 C 
ATOM      4  C   UNL     1      35.349 -17.770 -23.756  0.00  0.00    +0.003 C 
ATOM      5  C   UNL     1      35.736 -17.176 -20.870  0.00  0.00    +0.003 C 
ATOM      6  C   UNL     1      34.945 -16.441 -23.169  0.00  0.00    -0.025 C 
ATOM      7  C   UNL     1      35.128 -16.160 -21.803  0.00  0.00    -0.028 C 
ATOM      8  C   UNL     1      34.389 -15.458 -24.004  0.00  0.00    +0.033 C 
ATOM      9  C   UNL     1      34.752 -14.902 -21.304  0.00  0.00    -0.002 C 
ATOM     10  C   UNL     1      34.015 -14.215 -23.494  0.00  0.00    +0.147 C 
ATOM     11  C   UNL     1      34.197 -13.937 -22.144  0.00  0.00    +0.037 C 
ATOM     12  H   UNL     1      36.170 -19.480 -21.981  0.00  0.00    -0.080 HD
ENDROOT
BRANCH   1  13
ATOM     13  C   UNL     1      34.559 -20.673 -21.526  0.00  0.00    -0.058 C 
ATOM     14  C   UNL     1      35.156 -21.235 -20.220  0.00  0.00    -0.021 C 
ATOM     15  C   UNL     1      33.244 -20.468 -20.747  0.00  0.00    -0.021 C 
ATOM     16  C   UNL     1      33.715 -21.598 -19.807  0.00  0.00    -0.004 C 
ENDBRANCH   1  13
BRANCH  10  17
ATOM     17  O   UNL     1      33.476 -13.276 -24.317  0.00  0.00    -0.436 OA
BRANCH  17  20
ATOM     18  N   UNL     1      32.285 -11.895 -22.882  0.00  0.00    -0.209 NA
ATOM     19  C   UNL     1      32.823  -9.541 -22.760  0.00  0.00    +0.073 C 
ATOM     20  C   UNL     1      33.264 -12.009 -23.797  0.00  0.00    +0.230 C 
ATOM     21  C   UNL     1      33.824  -9.713 -23.709  0.00  0.00    +0.021 C 
ATOM     22  C   UNL     1      32.088 -10.653 -22.383  0.00  0.00    +0.117 C 
ATOM     23  C   UNL     1      34.056 -10.974 -24.246  0.00  0.00    +0.059 C 
BRANCH  19  25
ATOM     24  O   UNL     1      32.874  -8.609 -19.851  0.00  0.00    -0.275 OA
ATOM     25  N   UNL     1      32.561  -8.259 -22.191  0.00  0.00    -0.257 N 
ATOM     26  C   UNL     1      32.363  -5.933 -22.100  0.00  0.00    +0.031 C 
ATOM     27  C   UNL     1      32.121  -7.133 -22.992  0.00  0.00    +0.099 C 
ATOM     28  C   UNL     1      32.152  -6.484 -20.704  0.00  0.00    +0.087 C 
ATOM     29  C   UNL     1      32.602  -7.922 -20.825  0.00  0.00    +0.229 C 
ENDBRANCH  19  25
ENDBRANCH  17  20
ENDBRANCH  10  17
TORSDOF 4
ENDMDL
MODEL 8
REMARK VINA RESULT:     -10.8      2.490      4.161
REMARK  Name = 9976892
REMARK  4 active torsions:
REMARK  status: ('A' for Active; 'I' for Inactive)
REMARK    1  A    between atoms: N_1  and  C_13
REMARK    2  A    between atoms: C_10  and  O_17
REMARK    3  A    between atoms: O_17  and  C_20
REMARK    4  A    between atoms: C_19  and  N_25
REMARK                            x       y       z     vdW  Elec       q    Type
REMARK                         _______ _______ _______ _____ _____    ______ ____
ROOT
ATOM      1  N   UNL     1      32.862 -13.056 -21.736  0.00  0.00    +0.389 N 
ATOM      2  C   UNL     1      33.467 -14.070 -20.860  0.00  0.00    -0.073 C 
ATOM      3  C   UNL     1      32.447 -13.589 -23.043  0.00  0.00    -0.073 C 
ATOM      4  C   UNL     1      34.858 -14.520 -21.320  0.00  0.00    +0.003 C 
ATOM      5  C   UNL     1      33.625 -13.936 -23.960  0.00  0.00    +0.003 C 
ATOM      6  C   UNL     1      34.821 -15.558 -22.414  0.00  0.00    -0.025 C 
ATOM      7  C   UNL     1      34.237 -15.281 -23.663  0.00  0.00    -0.028 C 
ATOM      8  C   UNL     1      35.392 -16.820 -22.187  0.00  0.00    +0.033 C 
ATOM      9  C   UNL     1      34.239 -16.274 -24.657  0.00  0.00    -0.002 C 
ATOM     10  C   UNL     1      35.383 -17.798 -23.182  0.00  0.00    +0.147 C 
ATOM     11  C   UNL     1      34.807 -17.524 -24.417  0.00  0.00    +0.037 C 
ATOM     12  H   UNL     1      33.571 -12.343 -21.913  0.00  0.00    -0.080 HD
ENDROOT
BRANCH   1  13
ATOM     13  C   UNL     1      31.704 -12.518 -21.071  0.00  0.00    -0.058 C 
ATOM     14  C   UNL     1      32.115 -11.533 -19.958  0.00  0.00    -0.021 C 
ATOM     15  C   UNL     1      31.146 -11.300 -21.837  0.00  0.00    -0.021 C 
ATOM     16  C   UNL     1      30.991 -10.607 -20.467  0.00  0.00    -0.004 C 
ENDBRANCH   1  13
BRANCH  10  17
ATOM     17  O   UNL     1      35.940 -19.017 -22.944  0.00  0.00    -0.436 OA
BRANCH  17  20
ATOM     18  N   UNL     1      36.315 -20.388 -21.110  0.00  0.00    -0.209 NA
ATOM     19  C   UNL     1      34.438 -21.253 -19.854  0.00  0.00    +0.073 C 
ATOM     20  C   UNL     1      35.421 -19.769 -21.903  0.00  0.00    +0.230 C 
ATOM     21  C   UNL     1      33.557 -20.592 -20.703  0.00  0.00    +0.021 C 
ATOM     22  C   UNL     1      35.795 -21.120 -20.097  0.00  0.00    +0.117 C 
ATOM     23  C   UNL     1      34.052 -19.831 -21.755  0.00  0.00    +0.059 C 
BRANCH  19  25
ATOM     24  O   UNL     1      35.951 -22.670 -17.610  0.00  0.00    -0.275 OA
ATOM     25  N   UNL     1      33.959 -22.042 -18.767  0.00  0.00    -0.257 N 
ATOM     26  C   UNL     1      32.449 -22.835 -17.170  0.00  0.00    +0.031 C 
ATOM     27  C   UNL     1      32.555 -22.369 -18.606  0.00  0.00    +0.099 C 
ATOM     28  C   UNL     1      33.800 -23.470 -16.905  0.00  0.00    +0.087 C 
ATOM     29  C   UNL     1      34.740 -22.667 -17.775  0.00  0.00    +0.229 C 
ENDBRANCH  19  25
ENDBRANCH  17  20
ENDBRANCH  10  17
TORSDOF 4
ENDMDL
MODEL 9
REMARK VINA RESULT:     -10.1      6.125     10.406
REMARK  Name = 9976892
REMARK  4 active torsions:
REMARK  status: ('A' for Active; 'I' for Inactive)
REMARK    1  A    between atoms: N_1  and  C_13
REMARK    2  A    between atoms: C_10  and  O_17
REMARK    3  A    between atoms: O_17  and  C_20
REMARK    4  A    between atoms: C_19  and  N_25
REMARK                            x       y       z     vdW  Elec       q    Type
REMARK                         _______ _______ _______ _____ _____    ______ ____
ROOT
ATOM      1  N   UNL     1      35.483 -19.871 -21.411  0.00  0.00    +0.389 N 
ATOM      2  C   UNL     1      36.245 -20.495 -20.320  0.00  0.00    -0.073 C 
ATOM      3  C   UNL     1      34.070 -19.634 -21.075  0.00  0.00    -0.073 C 
ATOM      4  C   UNL     1      35.870 -21.961 -20.077  0.00  0.00    +0.003 C 
ATOM      5  C   UNL     1      33.241 -20.920 -20.992  0.00  0.00    +0.003 C 
ATOM      6  C   UNL     1      34.627 -22.132 -19.241  0.00  0.00    -0.025 C 
ATOM      7  C   UNL     1      33.383 -21.639 -19.674  0.00  0.00    -0.028 C 
ATOM      8  C   UNL     1      34.708 -22.807 -18.013  0.00  0.00    +0.033 C 
ATOM      9  C   UNL     1      32.248 -21.835 -18.868  0.00  0.00    -0.002 C 
ATOM     10  C   UNL     1      33.574 -22.991 -17.221  0.00  0.00    +0.147 C 
ATOM     11  C   UNL     1      32.345 -22.505 -17.650  0.00  0.00    +0.037 C 
ATOM     12  H   UNL     1      35.499 -20.515 -22.203  0.00  0.00    -0.080 HD
ENDROOT
BRANCH   1  13
ATOM     13  C   UNL     1      36.097 -18.607 -21.726  0.00  0.00    -0.058 C 
ATOM     14  C   UNL     1      35.574 -18.059 -23.069  0.00  0.00    -0.021 C 
ATOM     15  C   UNL     1      35.344 -17.445 -21.046  0.00  0.00    -0.021 C 
ATOM     16  C   UNL     1      35.473 -16.682 -22.381  0.00  0.00    -0.004 C 
ENDBRANCH   1  13
BRANCH  10  17
ATOM     17  O   UNL     1      33.672 -23.647 -16.033  0.00  0.00    -0.436 OA
BRANCH  17  20
ATOM     18  N   UNL     1      35.141 -25.402 -15.651  0.00  0.00    -0.209 NA
ATOM     19  C   UNL     1      37.380 -24.944 -14.861  0.00  0.00    +0.073 C 
ATOM     20  C   UNL     1      34.928 -24.074 -15.635  0.00  0.00    +0.230 C 
ATOM     21  C   UNL     1      37.109 -23.580 -14.864  0.00  0.00    +0.021 C 
ATOM     22  C   UNL     1      36.371 -25.806 -15.260  0.00  0.00    +0.117 C 
ATOM     23  C   UNL     1      35.856 -23.126 -15.258  0.00  0.00    +0.059 C 
BRANCH  19  25
ATOM     24  O   UNL     1      38.306 -26.130 -12.203  0.00  0.00    -0.275 OA
ATOM     25  N   UNL     1      38.656 -25.439 -14.460  0.00  0.00    -0.257 N 
ATOM     26  C   UNL     1      40.797 -26.343 -14.698  0.00  0.00    +0.031 C 
ATOM     27  C   UNL     1      39.818 -25.373 -15.325  0.00  0.00    +0.099 C 
ATOM     28  C   UNL     1      40.477 -26.261 -13.219  0.00  0.00    +0.087 C 
ATOM     29  C   UNL     1      38.994 -25.966 -13.199  0.00  0.00    +0.229 C 
ENDBRANCH  19  25
ENDBRANCH  17  20
ENDBRANCH  10  17
TORSDOF 4
ENDMDL
