MODEL 1
REMARK VINA RESULT:     -11.7      0.000      0.000
REMARK  Name = 42647297
REMARK  5 active torsions:
REMARK  status: ('A' for Active; 'I' for Inactive)
REMARK    1  A    between atoms: N_3  and  C_14
REMARK    2  A    between atoms: C_7  and  N_20
REMARK    3  A    between atoms: N_20  and  C_24
REMARK    4  A    between atoms: C_22  and  C_31
REMARK    5  A    between atoms: N_30  and  C_33
REMARK                            x       y       z     vdW  Elec       q    Type
REMARK                         _______ _______ _______ _____ _____    ______ ____
ROOT
ATOM      1  O   UNL     1      31.682 -13.339 -20.526  0.00  0.00    -0.269 OA
ATOM      2  N   UNL     1      32.324 -11.618 -21.976  0.00  0.00    -0.240 N 
ATOM      3  N   UNL     1      33.276 -10.178 -23.729  0.00  0.00    -0.174 N 
ATOM      4  N   UNL     1      34.109 -10.261 -24.787  0.00  0.00    -0.171 NA
ATOM      5  C   UNL     1      33.108 -11.367 -23.087  0.00  0.00    +0.133 C 
ATOM      6  C   UNL     1      33.875 -12.277 -23.761  0.00  0.00    +0.064 C 
ATOM      7  C   UNL     1      33.909 -13.629 -23.324  0.00  0.00    +0.057 C 
ATOM      8  C   UNL     1      33.167 -13.950 -22.243  0.00  0.00    +0.073 C 
ATOM      9  C   UNL     1      32.321 -12.940 -21.501  0.00  0.00    +0.255 C 
ATOM     10  C   UNL     1      34.474 -11.550 -24.801  0.00  0.00    +0.122 C 
ATOM     11  C   UNL     1      31.545 -10.569 -21.333  0.00  0.00    +0.122 C 
ENDROOT
BRANCH   3  14
ATOM     12  F   UNL     1      34.786  -8.147 -22.582  0.00  0.00    -0.203 F 
ATOM     13  F   UNL     1      31.049  -5.249 -22.603  0.00  0.00    -0.204 F 
ATOM     14  C   UNL     1      32.715  -8.932 -23.443  0.00  0.00    +0.103 C 
ATOM     15  C   UNL     1      33.495  -7.930 -22.868  0.00  0.00    +0.158 C 
ATOM     16  C   UNL     1      31.373  -8.692 -23.735  0.00  0.00    +0.021 C 
ATOM     17  C   UNL     1      32.931  -6.684 -22.585  0.00  0.00    +0.061 C 
ATOM     18  C   UNL     1      30.810  -7.448 -23.451  0.00  0.00    +0.031 C 
ATOM     19  C   UNL     1      31.589  -6.444 -22.876  0.00  0.00    +0.142 C 
ENDBRANCH   3  14
BRANCH   7  20
ATOM     20  N   UNL     1      34.675 -14.544 -23.994  0.00  0.00    -0.313 N 
ATOM     21  H   UNL     1      35.340 -14.173 -24.617  0.00  0.00    +0.152 HD
BRANCH  20  24
ATOM     22  C   UNL     1      35.051 -17.952 -22.639  0.00  0.00    +0.055 C 
ATOM     23  C   UNL     1      35.087 -16.562 -22.745  0.00  0.00    +0.019 C 
ATOM     24  C   UNL     1      34.631 -15.938 -23.905  0.00  0.00    +0.044 C 
ATOM     25  C   UNL     1      34.558 -18.719 -23.696  0.00  0.00    +0.004 C 
ATOM     26  C   UNL     1      34.138 -16.704 -24.961  0.00  0.00    -0.008 C 
ATOM     27  C   UNL     1      34.101 -18.094 -24.856  0.00  0.00    -0.003 C 
ATOM     28  C   UNL     1      33.642 -16.063 -26.216  0.00  0.00    +0.032 C 
BRANCH  22  31
ATOM     29  O   UNL     1      36.138 -17.956 -20.560  0.00  0.00    -0.270 OA
ATOM     30  N   UNL     1      35.283 -19.977 -21.306  0.00  0.00    -0.302 N 
ATOM     31  C   UNL     1      35.527 -18.604 -21.429  0.00  0.00    +0.246 C 
ATOM     32  H   UNL     1      34.793 -20.431 -22.029  0.00  0.00    +0.150 HD
BRANCH  30  33
ATOM     33  C   UNL     1      35.712 -20.756 -20.178  0.00  0.00    +0.072 C 
ATOM     34  C   UNL     1      35.939 -22.235 -20.296  0.00  0.00    +0.021 C 
ATOM     35  C   UNL     1      34.779 -21.715 -19.498  0.00  0.00    +0.021 C 
ENDBRANCH  30  33
ENDBRANCH  22  31
ENDBRANCH  20  24
ENDBRANCH   7  20
TORSDOF 5
ENDMDL
MODEL 2
REMARK VINA RESULT:     -11.1      4.051     10.339
REMARK  Name = 42647297
REMARK  5 active torsions:
REMARK  status: ('A' for Active; 'I' for Inactive)
REMARK    1  A    between atoms: N_3  and  C_14
REMARK    2  A    between atoms: C_7  and  N_20
REMARK    3  A    between atoms: N_20  and  C_24
REMARK    4  A    between atoms: C_22  and  C_31
REMARK    5  A    between atoms: N_30  and  C_33
REMARK                            x       y       z     vdW  Elec       q    Type
REMARK                         _______ _______ _______ _____ _____    ______ ____
ROOT
ATOM      1  O   UNL     1      30.723 -10.543 -20.490  0.00  0.00    -0.269 OA
ATOM      2  N   UNL     1      32.186 -11.228 -22.182  0.00  0.00    -0.240 N 
ATOM      3  N   UNL     1      33.865 -11.454 -23.967  0.00  0.00    -0.174 N 
ATOM      4  N   UNL     1      34.742 -10.693 -24.654  0.00  0.00    -0.171 NA
ATOM      5  C   UNL     1      33.155 -10.748 -23.043  0.00  0.00    +0.133 C 
ATOM      6  C   UNL     1      33.593  -9.455 -23.133  0.00  0.00    +0.064 C 
ATOM      7  C   UNL     1      33.034  -8.463 -22.282  0.00  0.00    +0.057 C 
ATOM      8  C   UNL     1      32.079  -8.859 -21.413  0.00  0.00    +0.073 C 
ATOM      9  C   UNL     1      31.599 -10.289 -21.318  0.00  0.00    +0.255 C 
ATOM     10  C   UNL     1      34.570  -9.469 -24.138  0.00  0.00    +0.122 C 
ATOM     11  C   UNL     1      31.794 -12.631 -22.172  0.00  0.00    +0.122 C 
ENDROOT
BRANCH   3  14
ATOM     12  F   UNL     1      32.877 -12.324 -26.414  0.00  0.00    -0.203 F 
ATOM     13  F   UNL     1      33.621 -16.833 -25.198  0.00  0.00    -0.204 F 
ATOM     14  C   UNL     1      33.801 -12.812 -24.280  0.00  0.00    +0.103 C 
ATOM     15  C   UNL     1      33.302 -13.223 -25.515  0.00  0.00    +0.158 C 
ATOM     16  C   UNL     1      34.240 -13.759 -23.354  0.00  0.00    +0.021 C 
ATOM     17  C   UNL     1      33.242 -14.583 -25.825  0.00  0.00    +0.061 C 
ATOM     18  C   UNL     1      34.179 -15.117 -23.664  0.00  0.00    +0.031 C 
ATOM     19  C   UNL     1      33.680 -15.529 -24.900  0.00  0.00    +0.142 C 
ENDBRANCH   3  14
BRANCH   7  20
ATOM     20  N   UNL     1      33.466  -7.167 -22.366  0.00  0.00    -0.313 N 
ATOM     21  H   UNL     1      34.134  -6.894 -21.698  0.00  0.00    +0.152 HD
BRANCH  20  24
ATOM     22  C   UNL     1      33.463  -5.009 -25.355  0.00  0.00    +0.055 C 
ATOM     23  C   UNL     1      33.836  -5.986 -24.432  0.00  0.00    +0.019 C 
ATOM     24  C   UNL     1      33.077  -6.184 -23.279  0.00  0.00    +0.044 C 
ATOM     25  C   UNL     1      32.329  -4.229 -25.124  0.00  0.00    +0.004 C 
ATOM     26  C   UNL     1      31.943  -5.405 -23.049  0.00  0.00    -0.008 C 
ATOM     27  C   UNL     1      31.569  -4.428 -23.971  0.00  0.00    -0.003 C 
ATOM     28  C   UNL     1      31.110  -5.595 -21.823  0.00  0.00    +0.032 C 
BRANCH  22  31
ATOM     29  O   UNL     1      33.705  -4.524 -27.637  0.00  0.00    -0.270 OA
ATOM     30  N   UNL     1      35.643  -4.947 -26.439  0.00  0.00    -0.302 N 
ATOM     31  C   UNL     1      34.255  -4.802 -26.557  0.00  0.00    +0.246 C 
ATOM     32  H   UNL     1      36.015  -5.167 -25.555  0.00  0.00    +0.150 HD
BRANCH  30  33
ATOM     33  C   UNL     1      36.548  -4.793 -27.543  0.00  0.00    +0.072 C 
ATOM     34  C   UNL     1      37.991  -4.444 -27.321  0.00  0.00    +0.021 C 
ATOM     35  C   UNL     1      37.063  -3.441 -27.941  0.00  0.00    +0.021 C 
ENDBRANCH  30  33
ENDBRANCH  22  31
ENDBRANCH  20  24
ENDBRANCH   7  20
TORSDOF 5
ENDMDL
MODEL 3
REMARK VINA RESULT:     -10.7      1.298      1.691
REMARK  Name = 42647297
REMARK  5 active torsions:
REMARK  status: ('A' for Active; 'I' for Inactive)
REMARK    1  A    between atoms: N_3  and  C_14
REMARK    2  A    between atoms: C_7  and  N_20
REMARK    3  A    between atoms: N_20  and  C_24
REMARK    4  A    between atoms: C_22  and  C_31
REMARK    5  A    between atoms: N_30  and  C_33
REMARK                            x       y       z     vdW  Elec       q    Type
REMARK                         _______ _______ _______ _____ _____    ______ ____
ROOT
ATOM      1  O   UNL     1      31.301 -13.168 -20.577  0.00  0.00    -0.269 OA
ATOM      2  N   UNL     1      32.031 -11.218 -21.643  0.00  0.00    -0.240 N 
ATOM      3  N   UNL     1      33.092  -9.489 -23.036  0.00  0.00    -0.174 N 
ATOM      4  N   UNL     1      33.997  -9.385 -24.031  0.00  0.00    -0.171 NA
ATOM      5  C   UNL     1      32.888 -10.774 -22.633  0.00  0.00    +0.133 C 
ATOM      6  C   UNL     1      33.706 -11.551 -23.407  0.00  0.00    +0.064 C 
ATOM      7  C   UNL     1      33.718 -12.961 -23.221  0.00  0.00    +0.057 C 
ATOM      8  C   UNL     1      32.905 -13.467 -22.269  0.00  0.00    +0.073 C 
ATOM      9  C   UNL     1      32.004 -12.603 -21.416  0.00  0.00    +0.255 C 
ATOM     10  C   UNL     1      34.370 -10.653 -24.253  0.00  0.00    +0.122 C 
ATOM     11  C   UNL     1      31.203 -10.298 -20.875  0.00  0.00    +0.122 C 
ENDROOT
BRANCH   3  14
ATOM     12  F   UNL     1      31.053  -8.236 -24.447  0.00  0.00    -0.203 F 
ATOM     13  F   UNL     1      30.773  -4.834 -21.173  0.00  0.00    -0.204 F 
ATOM     14  C   UNL     1      32.506  -8.313 -22.568  0.00  0.00    +0.103 C 
ATOM     15  C   UNL     1      31.483  -7.704 -23.295  0.00  0.00    +0.158 C 
ATOM     16  C   UNL     1      32.943  -7.748 -21.370  0.00  0.00    +0.021 C 
ATOM     17  C   UNL     1      30.898  -6.528 -22.822  0.00  0.00    +0.061 C 
ATOM     18  C   UNL     1      32.359  -6.573 -20.899  0.00  0.00    +0.031 C 
ATOM     19  C   UNL     1      31.335  -5.963 -21.626  0.00  0.00    +0.142 C 
ENDBRANCH   3  14
BRANCH   7  20
ATOM     20  N   UNL     1      34.533 -13.745 -23.990  0.00  0.00    -0.313 N 
ATOM     21  H   UNL     1      35.342 -13.307 -24.342  0.00  0.00    +0.152 HD
BRANCH  20  24
ATOM     22  C   UNL     1      34.772 -17.422 -23.876  0.00  0.00    +0.055 C 
ATOM     23  C   UNL     1      34.932 -16.077 -23.541  0.00  0.00    +0.019 C 
ATOM     24  C   UNL     1      34.364 -15.086 -24.341  0.00  0.00    +0.044 C 
ATOM     25  C   UNL     1      34.044 -17.775 -25.012  0.00  0.00    +0.004 C 
ATOM     26  C   UNL     1      33.634 -15.440 -25.476  0.00  0.00    -0.008 C 
ATOM     27  C   UNL     1      33.474 -16.784 -25.812  0.00  0.00    -0.003 C 
ATOM     28  C   UNL     1      33.014 -14.400 -26.352  0.00  0.00    +0.032 C 
BRANCH  22  31
ATOM     29  O   UNL     1      36.590 -18.465 -22.822  0.00  0.00    -0.270 OA
ATOM     30  N   UNL     1      34.504 -19.431 -22.527  0.00  0.00    -0.302 N 
ATOM     31  C   UNL     1      35.366 -18.455 -23.043  0.00  0.00    +0.246 C 
ATOM     32  H   UNL     1      33.545 -19.366 -22.738  0.00  0.00    +0.150 HD
BRANCH  30  33
ATOM     33  C   UNL     1      34.950 -20.522 -21.706  0.00  0.00    +0.072 C 
ATOM     34  C   UNL     1      34.325 -20.794 -20.369  0.00  0.00    +0.021 C 
ATOM     35  C   UNL     1      35.732 -20.278 -20.449  0.00  0.00    +0.021 C 
ENDBRANCH  30  33
ENDBRANCH  22  31
ENDBRANCH  20  24
ENDBRANCH   7  20
TORSDOF 5
ENDMDL
MODEL 4
REMARK VINA RESULT:     -10.7      6.652     10.415
REMARK  Name = 42647297
REMARK  5 active torsions:
REMARK  status: ('A' for Active; 'I' for Inactive)
REMARK    1  A    between atoms: N_3  and  C_14
REMARK    2  A    between atoms: C_7  and  N_20
REMARK    3  A    between atoms: N_20  and  C_24
REMARK    4  A    between atoms: C_22  and  C_31
REMARK    5  A    between atoms: N_30  and  C_33
REMARK                            x       y       z     vdW  Elec       q    Type
REMARK                         _______ _______ _______ _____ _____    ______ ____
ROOT
ATOM      1  O   UNL     1      31.936 -22.072 -19.213  0.00  0.00    -0.269 OA
ATOM      2  N   UNL     1      33.695 -20.903 -20.221  0.00  0.00    -0.240 N 
ATOM      3  N   UNL     1      35.834 -19.919 -20.935  0.00  0.00    -0.174 N 
ATOM      4  N   UNL     1      37.144 -19.965 -20.613  0.00  0.00    -0.171 NA
ATOM      5  C   UNL     1      35.064 -20.723 -20.150  0.00  0.00    +0.133 C 
ATOM      6  C   UNL     1      35.917 -21.327 -19.268  0.00  0.00    +0.064 C 
ATOM      7  C   UNL     1      35.404 -22.239 -18.306  0.00  0.00    +0.057 C 
ATOM      8  C   UNL     1      34.073 -22.464 -18.314  0.00  0.00    +0.073 C 
ATOM      9  C   UNL     1      33.134 -21.794 -19.291  0.00  0.00    +0.255 C 
ATOM     10  C   UNL     1      37.188 -20.829 -19.590  0.00  0.00    +0.122 C 
ATOM     11  C   UNL     1      32.878 -20.205 -21.204  0.00  0.00    +0.122 C 
ENDROOT
BRANCH   3  14
ATOM     12  F   UNL     1      35.660 -17.166 -20.603  0.00  0.00    -0.203 F 
ATOM     13  F   UNL     1      34.334 -16.629 -25.111  0.00  0.00    -0.204 F 
ATOM     14  C   UNL     1      35.454 -19.086 -21.988  0.00  0.00    +0.103 C 
ATOM     15  C   UNL     1      35.375 -17.707 -21.796  0.00  0.00    +0.158 C 
ATOM     16  C   UNL     1      35.155 -19.636 -23.234  0.00  0.00    +0.021 C 
ATOM     17  C   UNL     1      34.997 -16.877 -22.852  0.00  0.00    +0.061 C 
ATOM     18  C   UNL     1      34.776 -18.806 -24.289  0.00  0.00    +0.031 C 
ATOM     19  C   UNL     1      34.697 -17.427 -24.098  0.00  0.00    +0.142 C 
ENDBRANCH   3  14
BRANCH   7  20
ATOM     20  N   UNL     1      36.251 -22.846 -17.419  0.00  0.00    -0.313 N 
ATOM     21  H   UNL     1      37.183 -22.950 -17.720  0.00  0.00    +0.152 HD
BRANCH  20  24
ATOM     22  C   UNL     1      34.324 -23.932 -14.470  0.00  0.00    +0.055 C 
ATOM     23  C   UNL     1      34.632 -23.445 -15.740  0.00  0.00    +0.019 C 
ATOM     24  C   UNL     1      35.962 -23.336 -16.144  0.00  0.00    +0.044 C 
ATOM     25  C   UNL     1      35.349 -24.312 -13.603  0.00  0.00    +0.004 C 
ATOM     26  C   UNL     1      36.987 -23.717 -15.277  0.00  0.00    -0.008 C 
ATOM     27  C   UNL     1      36.680 -24.205 -14.007  0.00  0.00    -0.003 C 
ATOM     28  C   UNL     1      38.421 -23.613 -15.682  0.00  0.00    +0.032 C 
BRANCH  22  31
ATOM     29  O   UNL     1      32.633 -24.708 -13.042  0.00  0.00    -0.270 OA
ATOM     30  N   UNL     1      31.978 -23.394 -14.835  0.00  0.00    -0.302 N 
ATOM     31  C   UNL     1      32.937 -24.045 -14.049  0.00  0.00    +0.246 C 
ATOM     32  H   UNL     1      32.284 -22.884 -15.619  0.00  0.00    +0.150 HD
BRANCH  30  33
ATOM     33  C   UNL     1      30.570 -23.433 -14.554  0.00  0.00    +0.072 C 
ATOM     34  C   UNL     1      29.704 -24.541 -15.079  0.00  0.00    +0.021 C 
ATOM     35  C   UNL     1      29.556 -23.150 -15.623  0.00  0.00    +0.021 C 
ENDBRANCH  30  33
ENDBRANCH  22  31
ENDBRANCH  20  24
ENDBRANCH   7  20
TORSDOF 5
ENDMDL
MODEL 5
REMARK VINA RESULT:     -10.4      6.814     10.493
REMARK  Name = 42647297
REMARK  5 active torsions:
REMARK  status: ('A' for Active; 'I' for Inactive)
REMARK    1  A    between atoms: N_3  and  C_14
REMARK    2  A    between atoms: C_7  and  N_20
REMARK    3  A    between atoms: N_20  and  C_24
REMARK    4  A    between atoms: C_22  and  C_31
REMARK    5  A    between atoms: N_30  and  C_33
REMARK                            x       y       z     vdW  Elec       q    Type
REMARK                         _______ _______ _______ _____ _____    ______ ____
ROOT
ATOM      1  O   UNL     1      37.560 -21.931 -18.665  0.00  0.00    -0.269 OA
ATOM      2  N   UNL     1      35.907 -20.924 -19.980  0.00  0.00    -0.240 N 
ATOM      3  N   UNL     1      33.849 -20.165 -21.095  0.00  0.00    -0.174 N 
ATOM      4  N   UNL     1      32.519 -20.391 -21.060  0.00  0.00    -0.171 NA
ATOM      5  C   UNL     1      34.542 -20.919 -20.195  0.00  0.00    +0.133 C 
ATOM      6  C   UNL     1      33.613 -21.678 -19.538  0.00  0.00    +0.064 C 
ATOM      7  C   UNL     1      34.034 -22.580 -18.523  0.00  0.00    +0.057 C 
ATOM      8  C   UNL     1      35.356 -22.641 -18.257  0.00  0.00    +0.073 C 
ATOM      9  C   UNL     1      36.378 -21.799 -18.987  0.00  0.00    +0.255 C 
ATOM     10  C   UNL     1      32.381 -21.320 -20.104  0.00  0.00    +0.122 C 
ATOM     11  C   UNL     1      36.809 -20.071 -20.742  0.00  0.00    +0.122 C 
ENDROOT
BRANCH   3  14
ATOM     12  F   UNL     1      34.811 -17.696 -20.259  0.00  0.00    -0.203 F 
ATOM     13  F   UNL     1      35.727 -16.455 -24.730  0.00  0.00    -0.204 F 
ATOM     14  C   UNL     1      34.323 -19.226 -22.011  0.00  0.00    +0.103 C 
ATOM     15  C   UNL     1      34.801 -17.994 -21.566  0.00  0.00    +0.158 C 
ATOM     16  C   UNL     1      34.319 -19.523 -23.373  0.00  0.00    +0.021 C 
ATOM     17  C   UNL     1      35.276 -17.058 -22.486  0.00  0.00    +0.061 C 
ATOM     18  C   UNL     1      34.793 -18.587 -24.292  0.00  0.00    +0.031 C 
ATOM     19  C   UNL     1      35.272 -17.354 -23.848  0.00  0.00    +0.142 C 
ENDBRANCH   3  14
BRANCH   7  20
ATOM     20  N   UNL     1      33.111 -23.344 -17.862  0.00  0.00    -0.313 N 
ATOM     21  H   UNL     1      32.512 -23.879 -18.430  0.00  0.00    +0.152 HD
BRANCH  20  24
ATOM     22  C   UNL     1      33.801 -23.941 -14.290  0.00  0.00    +0.055 C 
ATOM     23  C   UNL     1      33.982 -23.821 -15.668  0.00  0.00    +0.019 C 
ATOM     24  C   UNL     1      32.911 -23.459 -16.485  0.00  0.00    +0.044 C 
ATOM     25  C   UNL     1      32.546 -23.698 -13.729  0.00  0.00    +0.004 C 
ATOM     26  C   UNL     1      31.658 -23.216 -15.923  0.00  0.00    -0.008 C 
ATOM     27  C   UNL     1      31.475 -23.335 -14.545  0.00  0.00    -0.003 C 
ATOM     28  C   UNL     1      30.492 -22.826 -16.773  0.00  0.00    +0.032 C 
BRANCH  22  31
ATOM     29  O   UNL     1      34.762 -24.450 -12.212  0.00  0.00    -0.270 OA
ATOM     30  N   UNL     1      36.158 -24.506 -14.060  0.00  0.00    -0.302 N 
ATOM     31  C   UNL     1      34.917 -24.320 -13.439  0.00  0.00    +0.246 C 
ATOM     32  H   UNL     1      36.214 -24.389 -15.036  0.00  0.00    +0.150 HD
BRANCH  30  33
ATOM     33  C   UNL     1      37.352 -24.861 -13.345  0.00  0.00    +0.072 C 
ATOM     34  C   UNL     1      38.487 -25.566 -14.030  0.00  0.00    +0.021 C 
ATOM     35  C   UNL     1      37.659 -26.291 -13.009  0.00  0.00    +0.021 C 
ENDBRANCH  30  33
ENDBRANCH  22  31
ENDBRANCH  20  24
ENDBRANCH   7  20
TORSDOF 5
ENDMDL
MODEL 6
REMARK VINA RESULT:     -10.3      1.834      2.636
REMARK  Name = 42647297
REMARK  5 active torsions:
REMARK  status: ('A' for Active; 'I' for Inactive)
REMARK    1  A    between atoms: N_3  and  C_14
REMARK    2  A    between atoms: C_7  and  N_20
REMARK    3  A    between atoms: N_20  and  C_24
REMARK    4  A    between atoms: C_22  and  C_31
REMARK    5  A    between atoms: N_30  and  C_33
REMARK                            x       y       z     vdW  Elec       q    Type
REMARK                         _______ _______ _______ _____ _____    ______ ____
ROOT
ATOM      1  O   UNL     1      35.689 -10.349 -25.338  0.00  0.00    -0.269 OA
ATOM      2  N   UNL     1      33.923  -9.616 -23.989  0.00  0.00    -0.240 N 
ATOM      3  N   UNL     1      31.997  -9.347 -22.482  0.00  0.00    -0.174 N 
ATOM      4  N   UNL     1      31.146 -10.104 -21.757  0.00  0.00    -0.171 NA
ATOM      5  C   UNL     1      32.918 -10.084 -23.162  0.00  0.00    +0.133 C 
ATOM      6  C   UNL     1      32.654 -11.393 -22.867  0.00  0.00    +0.064 C 
ATOM      7  C   UNL     1      33.459 -12.418 -23.435  0.00  0.00    +0.057 C 
ATOM      8  C   UNL     1      34.462 -12.036 -24.255  0.00  0.00    +0.073 C 
ATOM      9  C   UNL     1      34.749 -10.588 -24.578  0.00  0.00    +0.255 C 
ATOM     10  C   UNL     1      31.555 -11.357 -21.998  0.00  0.00    +0.122 C 
ATOM     11  C   UNL     1      34.114  -8.194 -24.236  0.00  0.00    +0.122 C 
ENDROOT
BRANCH   3  14
ATOM     12  F   UNL     1      33.159  -7.814 -20.477  0.00  0.00    -0.203 F 
ATOM     13  F   UNL     1      31.326  -3.866 -22.329  0.00  0.00    -0.204 F 
ATOM     14  C   UNL     1      31.828  -7.963 -22.440  0.00  0.00    +0.103 C 
ATOM     15  C   UNL     1      32.422  -7.216 -21.424  0.00  0.00    +0.158 C 
ATOM     16  C   UNL     1      31.065  -7.328 -23.420  0.00  0.00    +0.021 C 
ATOM     17  C   UNL     1      32.253  -5.831 -21.388  0.00  0.00    +0.061 C 
ATOM     18  C   UNL     1      30.894  -5.944 -23.382  0.00  0.00    +0.031 C 
ATOM     19  C   UNL     1      31.489  -5.195 -22.366  0.00  0.00    +0.142 C 
ENDBRANCH   3  14
BRANCH   7  20
ATOM     20  N   UNL     1      33.201 -13.730 -23.144  0.00  0.00    -0.313 N 
ATOM     21  H   UNL     1      32.623 -13.891 -22.364  0.00  0.00    +0.152 HD
BRANCH  20  24
ATOM     22  C   UNL     1      34.777 -17.007 -23.751  0.00  0.00    +0.055 C 
ATOM     23  C   UNL     1      34.319 -15.863 -23.098  0.00  0.00    +0.019 C 
ATOM     24  C   UNL     1      33.653 -14.869 -23.814  0.00  0.00    +0.044 C 
ATOM     25  C   UNL     1      34.569 -17.157 -25.122  0.00  0.00    +0.004 C 
ATOM     26  C   UNL     1      33.444 -15.020 -25.186  0.00  0.00    -0.008 C 
ATOM     27  C   UNL     1      33.902 -16.164 -25.839  0.00  0.00    -0.003 C 
ATOM     28  C   UNL     1      32.733 -13.973 -25.979  0.00  0.00    +0.032 C 
BRANCH  22  31
ATOM     29  O   UNL     1      36.694 -17.956 -22.787  0.00  0.00    -0.270 OA
ATOM     30  N   UNL     1      34.710 -19.133 -22.565  0.00  0.00    -0.302 N 
ATOM     31  C   UNL     1      35.472 -18.043 -23.003  0.00  0.00    +0.246 C 
ATOM     32  H   UNL     1      33.747 -19.141 -22.767  0.00  0.00    +0.150 HD
BRANCH  30  33
ATOM     33  C   UNL     1      35.264 -20.239 -21.834  0.00  0.00    +0.072 C 
ATOM     34  C   UNL     1      34.673 -20.680 -20.527  0.00  0.00    +0.021 C 
ATOM     35  C   UNL     1      36.022 -20.023 -20.557  0.00  0.00    +0.021 C 
ENDBRANCH  30  33
ENDBRANCH  22  31
ENDBRANCH  20  24
ENDBRANCH   7  20
TORSDOF 5
ENDMDL
MODEL 7
REMARK VINA RESULT:     -10.2      2.882      4.902
REMARK  Name = 42647297
REMARK  5 active torsions:
REMARK  status: ('A' for Active; 'I' for Inactive)
REMARK    1  A    between atoms: N_3  and  C_14
REMARK    2  A    between atoms: C_7  and  N_20
REMARK    3  A    between atoms: N_20  and  C_24
REMARK    4  A    between atoms: C_22  and  C_31
REMARK    5  A    between atoms: N_30  and  C_33
REMARK                            x       y       z     vdW  Elec       q    Type
REMARK                         _______ _______ _______ _____ _____    ______ ____
ROOT
ATOM      1  O   UNL     1      33.147 -16.471 -26.780  0.00  0.00    -0.269 OA
ATOM      2  N   UNL     1      33.456 -15.369 -24.740  0.00  0.00    -0.240 N 
ATOM      3  N   UNL     1      34.069 -14.619 -22.478  0.00  0.00    -0.174 N 
ATOM      4  N   UNL     1      34.796 -15.034 -21.420  0.00  0.00    -0.171 NA
ATOM      5  C   UNL     1      34.091 -15.497 -23.519  0.00  0.00    +0.133 C 
ATOM      6  C   UNL     1      34.875 -16.544 -23.118  0.00  0.00    +0.064 C 
ATOM      7  C   UNL     1      35.095 -17.636 -24.001  0.00  0.00    +0.057 C 
ATOM      8  C   UNL     1      34.504 -17.581 -25.214  0.00  0.00    +0.073 C 
ATOM      9  C   UNL     1      33.638 -16.421 -25.651  0.00  0.00    +0.255 C 
ATOM     10  C   UNL     1      35.287 -16.215 -21.819  0.00  0.00    +0.122 C 
ATOM     11  C   UNL     1      32.639 -14.206 -25.062  0.00  0.00    +0.122 C 
ENDROOT
BRANCH   3  14
ATOM     12  F   UNL     1      31.957 -14.260 -20.708  0.00  0.00    -0.203 F 
ATOM     13  F   UNL     1      31.487  -9.753 -22.063  0.00  0.00    -0.204 F 
ATOM     14  C   UNL     1      33.414 -13.391 -22.372  0.00  0.00    +0.103 C 
ATOM     15  C   UNL     1      32.358 -13.236 -21.475  0.00  0.00    +0.158 C 
ATOM     16  C   UNL     1      33.821 -12.318 -23.164  0.00  0.00    +0.021 C 
ATOM     17  C   UNL     1      31.707 -12.006 -21.371  0.00  0.00    +0.061 C 
ATOM     18  C   UNL     1      33.169 -11.089 -23.060  0.00  0.00    +0.031 C 
ATOM     19  C   UNL     1      32.112 -10.933 -22.163  0.00  0.00    +0.142 C 
ENDBRANCH   3  14
BRANCH   7  20
ATOM     20  N   UNL     1      35.877 -18.687 -23.607  0.00  0.00    -0.313 N 
ATOM     21  H   UNL     1      36.460 -19.071 -24.300  0.00  0.00    +0.152 HD
BRANCH  20  24
ATOM     22  C   UNL     1      34.900 -20.568 -20.590  0.00  0.00    +0.055 C 
ATOM     23  C   UNL     1      34.843 -19.966 -21.847  0.00  0.00    +0.019 C 
ATOM     24  C   UNL     1      35.952 -19.284 -22.346  0.00  0.00    +0.044 C 
ATOM     25  C   UNL     1      36.068 -20.488 -19.832  0.00  0.00    +0.004 C 
ATOM     26  C   UNL     1      37.121 -19.205 -21.588  0.00  0.00    -0.008 C 
ATOM     27  C   UNL     1      37.179 -19.807 -20.331  0.00  0.00    -0.003 C 
ATOM     28  C   UNL     1      38.325 -18.483 -22.097  0.00  0.00    +0.032 C 
BRANCH  22  31
ATOM     29  O   UNL     1      32.596 -20.987 -20.454  0.00  0.00    -0.270 OA
ATOM     30  N   UNL     1      33.982 -22.275 -19.116  0.00  0.00    -0.302 N 
ATOM     31  C   UNL     1      33.742 -21.278 -20.070  0.00  0.00    +0.246 C 
ATOM     32  H   UNL     1      34.913 -22.457 -18.855  0.00  0.00    +0.150 HD
BRANCH  30  33
ATOM     33  C   UNL     1      32.937 -23.044 -18.499  0.00  0.00    +0.072 C 
ATOM     34  C   UNL     1      32.135 -22.489 -17.359  0.00  0.00    +0.021 C 
ATOM     35  C   UNL     1      33.102 -23.612 -17.120  0.00  0.00    +0.021 C 
ENDBRANCH  30  33
ENDBRANCH  22  31
ENDBRANCH  20  24
ENDBRANCH   7  20
TORSDOF 5
ENDMDL
MODEL 8
REMARK VINA RESULT:      -9.7      1.492      1.880
REMARK  Name = 42647297
REMARK  5 active torsions:
REMARK  status: ('A' for Active; 'I' for Inactive)
REMARK    1  A    between atoms: N_3  and  C_14
REMARK    2  A    between atoms: C_7  and  N_20
REMARK    3  A    between atoms: N_20  and  C_24
REMARK    4  A    between atoms: C_22  and  C_31
REMARK    5  A    between atoms: N_30  and  C_33
REMARK                            x       y       z     vdW  Elec       q    Type
REMARK                         _______ _______ _______ _____ _____    ______ ____
ROOT
ATOM      1  O   UNL     1      30.725 -12.116 -21.381  0.00  0.00    -0.269 OA
ATOM      2  N   UNL     1      31.850 -10.313 -22.360  0.00  0.00    -0.240 N 
ATOM      3  N   UNL     1      33.345  -8.782 -23.574  0.00  0.00    -0.174 N 
ATOM      4  N   UNL     1      34.448  -8.824 -24.352  0.00  0.00    -0.171 NA
ATOM      5  C   UNL     1      32.937 -10.014 -23.160  0.00  0.00    +0.133 C 
ATOM      6  C   UNL     1      33.822 -10.909 -23.696  0.00  0.00    +0.064 C 
ATOM      7  C   UNL     1      33.658 -12.298 -23.441  0.00  0.00    +0.057 C 
ATOM      8  C   UNL     1      32.616 -12.667 -22.665  0.00  0.00    +0.073 C 
ATOM      9  C   UNL     1      31.642 -11.673 -22.075  0.00  0.00    +0.255 C 
ATOM     10  C   UNL     1      34.735 -10.131 -24.422  0.00  0.00    +0.122 C 
ATOM     11  C   UNL     1      30.970  -9.276 -21.840  0.00  0.00    +0.122 C 
ENDROOT
BRANCH   3  14
ATOM     12  F   UNL     1      33.739  -7.524 -21.128  0.00  0.00    -0.203 F 
ATOM     13  F   UNL     1      31.142  -3.826 -22.525  0.00  0.00    -0.204 F 
ATOM     14  C   UNL     1      32.789  -7.531 -23.306  0.00  0.00    +0.103 C 
ATOM     15  C   UNL     1      33.002  -6.920 -22.071  0.00  0.00    +0.158 C 
ATOM     16  C   UNL     1      32.021  -6.891 -24.278  0.00  0.00    +0.021 C 
ATOM     17  C   UNL     1      32.445  -5.668 -21.808  0.00  0.00    +0.061 C 
ATOM     18  C   UNL     1      31.463  -5.640 -24.014  0.00  0.00    +0.031 C 
ATOM     19  C   UNL     1      31.676  -5.028 -22.779  0.00  0.00    +0.142 C 
ENDBRANCH   3  14
BRANCH   7  20
ATOM     20  N   UNL     1      34.539 -13.199 -23.972  0.00  0.00    -0.313 N 
ATOM     21  H   UNL     1      35.458 -12.872 -24.108  0.00  0.00    +0.152 HD
BRANCH  20  24
ATOM     22  C   UNL     1      34.535 -16.885 -23.892  0.00  0.00    +0.055 C 
ATOM     23  C   UNL     1      34.764 -15.557 -23.533  0.00  0.00    +0.019 C 
ATOM     24  C   UNL     1      34.301 -14.524 -24.347  0.00  0.00    +0.044 C 
ATOM     25  C   UNL     1      33.841 -17.180 -25.066  0.00  0.00    +0.004 C 
ATOM     26  C   UNL     1      33.607 -14.819 -25.521  0.00  0.00    -0.008 C 
ATOM     27  C   UNL     1      33.377 -16.147 -25.880  0.00  0.00    -0.003 C 
ATOM     28  C   UNL     1      33.098 -13.733 -26.412  0.00  0.00    +0.032 C 
BRANCH  22  31
ATOM     29  O   UNL     1      34.992 -19.141 -23.440  0.00  0.00    -0.270 OA
ATOM     30  N   UNL     1      35.489 -17.611 -21.772  0.00  0.00    -0.302 N 
ATOM     31  C   UNL     1      35.018 -17.963 -23.043  0.00  0.00    +0.246 C 
ATOM     32  H   UNL     1      35.485 -16.660 -21.520  0.00  0.00    +0.150 HD
BRANCH  30  33
ATOM     33  C   UNL     1      35.978 -18.569 -20.820  0.00  0.00    +0.072 C 
ATOM     34  C   UNL     1      37.207 -19.384 -21.099  0.00  0.00    +0.021 C 
ATOM     35  C   UNL     1      35.859 -20.043 -21.071  0.00  0.00    +0.021 C 
ENDBRANCH  30  33
ENDBRANCH  22  31
ENDBRANCH  20  24
ENDBRANCH   7  20
TORSDOF 5
ENDMDL
MODEL 9
REMARK VINA RESULT:      -9.7      3.064      5.573
REMARK  Name = 42647297
REMARK  5 active torsions:
REMARK  status: ('A' for Active; 'I' for Inactive)
REMARK    1  A    between atoms: N_3  and  C_14
REMARK    2  A    between atoms: C_7  and  N_20
REMARK    3  A    between atoms: N_20  and  C_24
REMARK    4  A    between atoms: C_22  and  C_31
REMARK    5  A    between atoms: N_30  and  C_33
REMARK                            x       y       z     vdW  Elec       q    Type
REMARK                         _______ _______ _______ _____ _____    ______ ____
ROOT
ATOM      1  O   UNL     1      34.423 -17.772 -25.958  0.00  0.00    -0.269 OA
ATOM      2  N   UNL     1      34.267 -16.251 -24.187  0.00  0.00    -0.240 N 
ATOM      3  N   UNL     1      34.317 -15.030 -22.052  0.00  0.00    -0.174 N 
ATOM      4  N   UNL     1      34.705 -15.213 -20.772  0.00  0.00    -0.171 NA
ATOM      5  C   UNL     1      34.546 -16.117 -22.840  0.00  0.00    +0.133 C 
ATOM      6  C   UNL     1      35.114 -17.062 -22.031  0.00  0.00    +0.064 C 
ATOM      7  C   UNL     1      35.474 -18.326 -22.572  0.00  0.00    +0.057 C 
ATOM      8  C   UNL     1      35.230 -18.531 -23.884  0.00  0.00    +0.073 C 
ATOM      9  C   UNL     1      34.602 -17.482 -24.774  0.00  0.00    +0.255 C 
ATOM     10  C   UNL     1      35.192 -16.461 -20.766  0.00  0.00    +0.122 C 
ATOM     11  C   UNL     1      33.656 -15.175 -24.956  0.00  0.00    +0.122 C 
ENDROOT
BRANCH   3  14
ATOM     12  F   UNL     1      32.011 -14.111 -20.803  0.00  0.00    -0.203 F 
ATOM     13  F   UNL     1      32.098 -10.150 -23.384  0.00  0.00    -0.204 F 
ATOM     14  C   UNL     1      33.754 -13.798 -22.387  0.00  0.00    +0.103 C 
ATOM     15  C   UNL     1      32.597 -13.359 -21.745  0.00  0.00    +0.158 C 
ATOM     16  C   UNL     1      34.353 -13.005 -23.366  0.00  0.00    +0.021 C 
ATOM     17  C   UNL     1      32.037 -12.126 -22.082  0.00  0.00    +0.061 C 
ATOM     18  C   UNL     1      33.793 -11.773 -23.703  0.00  0.00    +0.031 C 
ATOM     19  C   UNL     1      32.635 -11.333 -23.061  0.00  0.00    +0.142 C 
ENDBRANCH   3  14
BRANCH   7  20
ATOM     20  N   UNL     1      36.041 -19.277 -21.769  0.00  0.00    -0.313 N 
ATOM     21  H   UNL     1      37.022 -19.348 -21.815  0.00  0.00    +0.152 HD
BRANCH  20  24
ATOM     22  C   UNL     1      35.525 -21.642 -18.988  0.00  0.00    +0.055 C 
ATOM     23  C   UNL     1      36.144 -20.758 -19.871  0.00  0.00    +0.019 C 
ATOM     24  C   UNL     1      35.406 -20.160 -20.892  0.00  0.00    +0.044 C 
ATOM     25  C   UNL     1      34.166 -21.928 -19.125  0.00  0.00    +0.004 C 
ATOM     26  C   UNL     1      34.047 -20.446 -21.029  0.00  0.00    -0.008 C 
ATOM     27  C   UNL     1      33.428 -21.330 -20.146  0.00  0.00    -0.003 C 
ATOM     28  C   UNL     1      33.230 -19.820 -22.113  0.00  0.00    +0.032 C 
BRANCH  22  31
ATOM     29  O   UNL     1      37.538 -22.285 -17.969  0.00  0.00    -0.270 OA
ATOM     30  N   UNL     1      35.575 -22.849 -16.873  0.00  0.00    -0.302 N 
ATOM     31  C   UNL     1      36.295 -22.266 -17.923  0.00  0.00    +0.246 C 
ATOM     32  H   UNL     1      34.593 -22.798 -16.896  0.00  0.00    +0.150 HD
BRANCH  30  33
ATOM     33  C   UNL     1      36.199 -23.518 -15.766  0.00  0.00    +0.072 C 
ATOM     34  C   UNL     1      35.567 -24.722 -15.129  0.00  0.00    +0.021 C 
ATOM     35  C   UNL     1      35.630 -23.422 -14.381  0.00  0.00    +0.021 C 
ENDBRANCH  30  33
ENDBRANCH  22  31
ENDBRANCH  20  24
ENDBRANCH   7  20
TORSDOF 5
ENDMDL
