MODEL 1
REMARK VINA RESULT:     -10.9      0.000      0.000
REMARK  Name = 3055168
REMARK  6 active torsions:
REMARK  status: ('A' for Active; 'I' for Inactive)
REMARK    1  A    between atoms: C_1  and  C_21
REMARK    2  A    between atoms: C_4  and  O_7
REMARK    3  A    between atoms: O_7  and  C_8
REMARK    4  A    between atoms: C_8  and  C_12
REMARK    5  A    between atoms: C_17  and  O_19
REMARK    6  A    between atoms: C_21  and  C_26
REMARK                            x       y       z     vdW  Elec       q    Type
REMARK                         _______ _______ _______ _____ _____    ______ ____
ROOT
ATOM      1  C   UNL     1      34.321 -22.363 -19.084  0.00  0.00    -0.021 C 
ATOM      2  C   UNL     1      33.466 -21.558 -19.837  0.00  0.00    -0.001 C 
ATOM      3  C   UNL     1      35.698 -22.146 -19.123  0.00  0.00    -0.001 C 
ATOM      4  C   UNL     1      35.363 -20.323 -20.664  0.00  0.00    +0.139 C 
ATOM      5  C   UNL     1      33.989 -20.536 -20.629  0.00  0.00    +0.037 C 
ATOM      6  C   UNL     1      36.220 -21.123 -19.914  0.00  0.00    +0.037 C 
ENDROOT
BRANCH   4   7
ATOM      7  O   UNL     1      35.875 -19.319 -21.440  0.00  0.00    -0.466 OA
BRANCH   7   8
ATOM      8  C   UNL     1      35.594 -19.384 -22.836  0.00  0.00    +0.279 C 
BRANCH   8  12
ATOM      9  N   UNL     1      34.417 -17.871 -24.426  0.00  0.00    -0.274 N 
ATOM     10  N   UNL     1      35.264 -16.930 -22.600  0.00  0.00    -0.390 NA
ATOM     11  C   UNL     1      34.111 -16.538 -24.525  0.00  0.00    +0.153 C 
ATOM     12  C   UNL     1      35.106 -18.055 -23.260  0.00  0.00    +0.205 C 
ATOM     13  C   UNL     1      34.651 -15.972 -23.373  0.00  0.00    +0.133 C 
ATOM     14  C   UNL     1      33.429 -15.801 -25.495  0.00  0.00    +0.037 C 
ATOM     15  C   UNL     1      34.070 -18.895 -25.385  0.00  0.00    +0.115 C 
ATOM     16  C   UNL     1      34.512 -14.590 -23.159  0.00  0.00    +0.033 C 
ATOM     17  C   UNL     1      33.300 -14.427 -25.265  0.00  0.00    +0.137 C 
ATOM     18  C   UNL     1      33.831 -13.831 -24.119  0.00  0.00    +0.039 C 
BRANCH  17  19
ATOM     19  O   UNL     1      32.644 -13.657 -26.179  0.00  0.00    -0.472 OA
ATOM     20  C   UNL     1      33.419 -12.687 -26.882  0.00  0.00    +0.252 C 
ENDBRANCH  17  19
ENDBRANCH   8  12
ENDBRANCH   7   8
ENDBRANCH   4   7
BRANCH   1  21
ATOM     21  C   UNL     1      33.762 -23.457 -18.237  0.00  0.00    +0.047 C 
BRANCH  21  26
ATOM     22  S   UNL     1      32.018 -23.455 -16.100  0.00  0.00    -0.048 S 
ATOM     23  O   UNL     1      35.858 -23.837 -16.116  0.00  0.00    -0.274 OA
ATOM     24  O   UNL     1      31.933 -25.024 -13.991  0.00  0.00    -0.263 OA
ATOM     25  N   UNL     1      34.009 -24.528 -14.912  0.00  0.00    -0.246 N 
ATOM     26  C   UNL     1      33.664 -23.061 -16.766  0.00  0.00    +0.137 C 
ATOM     27  C   UNL     1      34.648 -23.836 -15.920  0.00  0.00    +0.239 C 
ATOM     28  C   UNL     1      32.643 -24.470 -14.817  0.00  0.00    +0.279 C 
ATOM     29  H   UNL     1      34.529 -25.059 -14.266  0.00  0.00    +0.158 HD
ENDBRANCH  21  26
ENDBRANCH   1  21
TORSDOF 6
ENDMDL
MODEL 2
REMARK VINA RESULT:     -10.8      2.916     10.897
REMARK  Name = 3055168
REMARK  6 active torsions:
REMARK  status: ('A' for Active; 'I' for Inactive)
REMARK    1  A    between atoms: C_1  and  C_21
REMARK    2  A    between atoms: C_4  and  O_7
REMARK    3  A    between atoms: O_7  and  C_8
REMARK    4  A    between atoms: C_8  and  C_12
REMARK    5  A    between atoms: C_17  and  O_19
REMARK    6  A    between atoms: C_21  and  C_26
REMARK                            x       y       z     vdW  Elec       q    Type
REMARK                         _______ _______ _______ _____ _____    ______ ____
ROOT
ATOM      1  C   UNL     1      35.059 -19.442 -20.943  0.00  0.00    -0.021 C 
ATOM      2  C   UNL     1      33.759 -19.923 -20.788  0.00  0.00    -0.001 C 
ATOM      3  C   UNL     1      36.140 -20.193 -20.484  0.00  0.00    -0.001 C 
ATOM      4  C   UNL     1      34.623 -21.901 -19.717  0.00  0.00    +0.139 C 
ATOM      5  C   UNL     1      33.540 -21.156 -20.172  0.00  0.00    +0.037 C 
ATOM      6  C   UNL     1      35.922 -21.427 -19.870  0.00  0.00    +0.037 C 
ENDROOT
BRANCH   4   7
ATOM      7  O   UNL     1      34.408 -23.112 -19.115  0.00  0.00    -0.466 OA
BRANCH   7   8
ATOM      8  C   UNL     1      33.403 -23.154 -18.104  0.00  0.00    +0.279 C 
BRANCH   8  12
ATOM      9  N   UNL     1      33.345 -23.807 -15.702  0.00  0.00    -0.274 N 
ATOM     10  N   UNL     1      35.355 -23.597 -16.628  0.00  0.00    -0.390 NA
ATOM     11  C   UNL     1      34.241 -24.097 -14.704  0.00  0.00    +0.153 C 
ATOM     12  C   UNL     1      34.059 -23.514 -16.830  0.00  0.00    +0.205 C 
ATOM     13  C   UNL     1      35.488 -23.959 -15.308  0.00  0.00    +0.133 C 
ATOM     14  C   UNL     1      34.072 -24.457 -13.367  0.00  0.00    +0.037 C 
ATOM     15  C   UNL     1      31.906 -23.812 -15.578  0.00  0.00    +0.115 C 
ATOM     16  C   UNL     1      36.647 -24.190 -14.546  0.00  0.00    +0.033 C 
ATOM     17  C   UNL     1      35.235 -24.683 -12.624  0.00  0.00    +0.137 C 
ATOM     18  C   UNL     1      36.501 -24.553 -13.201  0.00  0.00    +0.039 C 
BRANCH  17  19
ATOM     19  O   UNL     1      35.131 -25.037 -11.311  0.00  0.00    -0.472 OA
ATOM     20  C   UNL     1      35.956 -24.333 -10.385  0.00  0.00    +0.252 C 
ENDBRANCH  17  19
ENDBRANCH   8  12
ENDBRANCH   7   8
ENDBRANCH   4   7
BRANCH   1  21
ATOM     21  C   UNL     1      35.292 -18.123 -21.600  0.00  0.00    +0.047 C 
BRANCH  21  26
ATOM     22  S   UNL     1      34.703 -19.656 -23.817  0.00  0.00    -0.048 S 
ATOM     23  O   UNL     1      35.580 -15.904 -23.607  0.00  0.00    -0.274 OA
ATOM     24  O   UNL     1      33.163 -19.117 -25.879  0.00  0.00    -0.263 OA
ATOM     25  N   UNL     1      34.313 -17.364 -24.876  0.00  0.00    -0.246 N 
ATOM     26  C   UNL     1      35.615 -18.263 -23.085  0.00  0.00    +0.137 C 
ATOM     27  C   UNL     1      35.188 -17.037 -23.860  0.00  0.00    +0.239 C 
ATOM     28  C   UNL     1      33.927 -18.669 -25.037  0.00  0.00    +0.279 C 
ATOM     29  H   UNL     1      33.970 -16.666 -25.480  0.00  0.00    +0.158 HD
ENDBRANCH  21  26
ENDBRANCH   1  21
TORSDOF 6
ENDMDL
MODEL 3
REMARK VINA RESULT:     -10.8      4.529      7.146
REMARK  Name = 3055168
REMARK  6 active torsions:
REMARK  status: ('A' for Active; 'I' for Inactive)
REMARK    1  A    between atoms: C_1  and  C_21
REMARK    2  A    between atoms: C_4  and  O_7
REMARK    3  A    between atoms: O_7  and  C_8
REMARK    4  A    between atoms: C_8  and  C_12
REMARK    5  A    between atoms: C_17  and  O_19
REMARK    6  A    between atoms: C_21  and  C_26
REMARK                            x       y       z     vdW  Elec       q    Type
REMARK                         _______ _______ _______ _____ _____    ______ ____
ROOT
ATOM      1  C   UNL     1      35.125 -17.323 -23.119  0.00  0.00    -0.021 C 
ATOM      2  C   UNL     1      35.142 -16.304 -22.166  0.00  0.00    -0.001 C 
ATOM      3  C   UNL     1      34.609 -17.079 -24.391  0.00  0.00    -0.001 C 
ATOM      4  C   UNL     1      34.129 -14.804 -23.757  0.00  0.00    +0.139 C 
ATOM      5  C   UNL     1      34.642 -15.042 -22.486  0.00  0.00    +0.037 C 
ATOM      6  C   UNL     1      34.111 -15.816 -24.712  0.00  0.00    +0.037 C 
ENDROOT
BRANCH   4   7
ATOM      7  O   UNL     1      33.641 -13.565 -24.071  0.00  0.00    -0.466 OA
BRANCH   7   8
ATOM      8  C   UNL     1      32.729 -12.982 -23.142  0.00  0.00    +0.279 C 
BRANCH   8  12
ATOM      9  N   UNL     1      32.181 -10.665 -22.413  0.00  0.00    -0.274 N 
ATOM     10  N   UNL     1      33.908 -10.892 -23.793  0.00  0.00    -0.390 NA
ATOM     11  C   UNL     1      32.654  -9.395 -22.619  0.00  0.00    +0.153 C 
ATOM     12  C   UNL     1      32.962 -11.524 -23.135  0.00  0.00    +0.205 C 
ATOM     13  C   UNL     1      33.732  -9.563 -23.484  0.00  0.00    +0.133 C 
ATOM     14  C   UNL     1      32.244  -8.151 -22.138  0.00  0.00    +0.037 C 
ATOM     15  C   UNL     1      31.058 -11.028 -21.580  0.00  0.00    +0.115 C 
ATOM     16  C   UNL     1      34.456  -8.434 -23.905  0.00  0.00    +0.033 C 
ATOM     17  C   UNL     1      32.975  -7.038 -22.567  0.00  0.00    +0.137 C 
ATOM     18  C   UNL     1      34.062  -7.175 -23.434  0.00  0.00    +0.039 C 
BRANCH  17  19
ATOM     19  O   UNL     1      32.619  -5.797 -22.130  0.00  0.00    -0.472 OA
ATOM     20  C   UNL     1      31.247  -5.431 -22.267  0.00  0.00    +0.252 C 
ENDBRANCH  17  19
ENDBRANCH   8  12
ENDBRANCH   7   8
ENDBRANCH   4   7
BRANCH   1  21
ATOM     21  C   UNL     1      35.658 -18.673 -22.776  0.00  0.00    +0.047 C 
BRANCH  21  26
ATOM     22  S   UNL     1      34.274 -20.172 -20.919  0.00  0.00    -0.048 S 
ATOM     23  O   UNL     1      37.969 -19.060 -20.893  0.00  0.00    -0.274 OA
ATOM     24  O   UNL     1      34.988 -22.360 -19.647  0.00  0.00    -0.263 OA
ATOM     25  N   UNL     1      36.634 -20.806 -20.176  0.00  0.00    -0.246 N 
ATOM     26  C   UNL     1      35.586 -18.964 -21.280  0.00  0.00    +0.137 C 
ATOM     27  C   UNL     1      36.868 -19.586 -20.776  0.00  0.00    +0.239 C 
ATOM     28  C   UNL     1      35.357 -21.302 -20.136  0.00  0.00    +0.279 C 
ATOM     29  H   UNL     1      37.377 -21.316 -19.779  0.00  0.00    +0.158 HD
ENDBRANCH  21  26
ENDBRANCH   1  21
TORSDOF 6
ENDMDL
MODEL 4
REMARK VINA RESULT:     -10.8      3.008     11.225
REMARK  Name = 3055168
REMARK  6 active torsions:
REMARK  status: ('A' for Active; 'I' for Inactive)
REMARK    1  A    between atoms: C_1  and  C_21
REMARK    2  A    between atoms: C_4  and  O_7
REMARK    3  A    between atoms: O_7  and  C_8
REMARK    4  A    between atoms: C_8  and  C_12
REMARK    5  A    between atoms: C_17  and  O_19
REMARK    6  A    between atoms: C_21  and  C_26
REMARK                            x       y       z     vdW  Elec       q    Type
REMARK                         _______ _______ _______ _____ _____    ______ ____
ROOT
ATOM      1  C   UNL     1      35.505 -20.218 -20.681  0.00  0.00    -0.021 C 
ATOM      2  C   UNL     1      36.422 -20.982 -19.959  0.00  0.00    -0.001 C 
ATOM      3  C   UNL     1      34.151 -20.552 -20.664  0.00  0.00    -0.001 C 
ATOM      4  C   UNL     1      34.633 -22.411 -19.207  0.00  0.00    +0.139 C 
ATOM      5  C   UNL     1      35.984 -22.082 -19.221  0.00  0.00    +0.037 C 
ATOM      6  C   UNL     1      33.714 -21.651 -19.925  0.00  0.00    +0.037 C 
ENDROOT
BRANCH   4   7
ATOM      7  O   UNL     1      34.204 -23.489 -18.481  0.00  0.00    -0.466 OA
BRANCH   7   8
ATOM      8  C   UNL     1      33.528 -23.207 -17.257  0.00  0.00    +0.279 C 
BRANCH   8  12
ATOM      9  N   UNL     1      33.895 -23.865 -14.884  0.00  0.00    -0.274 N 
ATOM     10  N   UNL     1      35.654 -23.994 -16.236  0.00  0.00    -0.390 NA
ATOM     11  C   UNL     1      34.927 -24.315 -14.101  0.00  0.00    +0.153 C 
ATOM     12  C   UNL     1      34.379 -23.688 -16.150  0.00  0.00    +0.205 C 
ATOM     13  C   UNL     1      36.014 -24.387 -14.968  0.00  0.00    +0.133 C 
ATOM     14  C   UNL     1      35.001 -24.654 -12.750  0.00  0.00    +0.037 C 
ATOM     15  C   UNL     1      32.540 -23.624 -14.445  0.00  0.00    +0.115 C 
ATOM     16  C   UNL     1      37.257 -24.821 -14.475  0.00  0.00    +0.033 C 
ATOM     17  C   UNL     1      36.245 -25.085 -12.276  0.00  0.00    +0.137 C 
ATOM     18  C   UNL     1      37.354 -25.168 -13.122  0.00  0.00    +0.039 C 
BRANCH  17  19
ATOM     19  O   UNL     1      36.377 -25.429 -10.963  0.00  0.00    -0.472 OA
ATOM     20  C   UNL     1      35.709 -24.606 -10.009  0.00  0.00    +0.252 C 
ENDBRANCH  17  19
ENDBRANCH   8  12
ENDBRANCH   7   8
ENDBRANCH   4   7
BRANCH   1  21
ATOM     21  C   UNL     1      35.973 -19.043 -21.471  0.00  0.00    +0.047 C 
BRANCH  21  26
ATOM     22  S   UNL     1      34.952 -16.482 -21.350  0.00  0.00    -0.048 S 
ATOM     23  O   UNL     1      34.797 -19.038 -24.239  0.00  0.00    -0.274 OA
ATOM     24  O   UNL     1      35.010 -14.557 -23.140  0.00  0.00    -0.263 OA
ATOM     25  N   UNL     1      34.888 -16.753 -23.890  0.00  0.00    -0.246 N 
ATOM     26  C   UNL     1      34.816 -18.185 -21.978  0.00  0.00    +0.137 C 
ATOM     27  C   UNL     1      34.832 -18.071 -23.485  0.00  0.00    +0.239 C 
ATOM     28  C   UNL     1      34.954 -15.762 -22.947  0.00  0.00    +0.279 C 
ATOM     29  H   UNL     1      34.880 -16.527 -24.848  0.00  0.00    +0.158 HD
ENDBRANCH  21  26
ENDBRANCH   1  21
TORSDOF 6
ENDMDL
MODEL 5
REMARK VINA RESULT:     -10.8      2.248      3.397
REMARK  Name = 3055168
REMARK  6 active torsions:
REMARK  status: ('A' for Active; 'I' for Inactive)
REMARK    1  A    between atoms: C_1  and  C_21
REMARK    2  A    between atoms: C_4  and  O_7
REMARK    3  A    between atoms: O_7  and  C_8
REMARK    4  A    between atoms: C_8  and  C_12
REMARK    5  A    between atoms: C_17  and  O_19
REMARK    6  A    between atoms: C_21  and  C_26
REMARK                            x       y       z     vdW  Elec       q    Type
REMARK                         _______ _______ _______ _____ _____    ______ ____
ROOT
ATOM      1  C   UNL     1      34.920 -23.133 -16.785  0.00  0.00    -0.021 C 
ATOM      2  C   UNL     1      36.095 -22.529 -17.231  0.00  0.00    -0.001 C 
ATOM      3  C   UNL     1      33.787 -23.140 -17.599  0.00  0.00    -0.001 C 
ATOM      4  C   UNL     1      35.005 -21.943 -19.299  0.00  0.00    +0.139 C 
ATOM      5  C   UNL     1      36.138 -21.932 -18.491  0.00  0.00    +0.037 C 
ATOM      6  C   UNL     1      33.830 -22.545 -18.859  0.00  0.00    +0.037 C 
ENDROOT
BRANCH   4   7
ATOM      7  O   UNL     1      35.048 -21.359 -20.535  0.00  0.00    -0.466 OA
BRANCH   7   8
ATOM      8  C   UNL     1      35.657 -20.072 -20.614  0.00  0.00    +0.279 C 
BRANCH   8  12
ATOM      9  N   UNL     1      35.208 -18.097 -22.063  0.00  0.00    -0.274 N 
ATOM     10  N   UNL     1      34.866 -20.096 -22.972  0.00  0.00    -0.390 NA
ATOM     11  C   UNL     1      34.783 -17.850 -23.343  0.00  0.00    +0.153 C 
ATOM     12  C   UNL     1      35.241 -19.452 -21.889  0.00  0.00    +0.205 C 
ATOM     13  C   UNL     1      34.576 -19.114 -23.890  0.00  0.00    +0.133 C 
ATOM     14  C   UNL     1      34.568 -16.665 -24.048  0.00  0.00    +0.037 C 
ATOM     15  C   UNL     1      35.558 -17.100 -21.078  0.00  0.00    +0.115 C 
ATOM     16  C   UNL     1      34.128 -19.221 -25.217  0.00  0.00    +0.033 C 
ATOM     17  C   UNL     1      34.122 -16.790 -25.369  0.00  0.00    +0.137 C 
ATOM     18  C   UNL     1      33.906 -18.045 -25.944  0.00  0.00    +0.039 C 
BRANCH  17  19
ATOM     19  O   UNL     1      33.894 -15.667 -26.106  0.00  0.00    -0.472 OA
ATOM     20  C   UNL     1      33.200 -14.600 -25.462  0.00  0.00    +0.252 C 
ENDBRANCH  17  19
ENDBRANCH   8  12
ENDBRANCH   7   8
ENDBRANCH   4   7
BRANCH   1  21
ATOM     21  C   UNL     1      34.874 -23.770 -15.437  0.00  0.00    +0.047 C 
BRANCH  21  26
ATOM     22  S   UNL     1      36.629 -23.662 -13.312  0.00  0.00    -0.048 S 
ATOM     23  O   UNL     1      36.025 -26.520 -15.834  0.00  0.00    -0.274 OA
ATOM     24  O   UNL     1      37.184 -25.473 -11.487  0.00  0.00    -0.263 OA
ATOM     25  N   UNL     1      36.635 -26.197 -13.627  0.00  0.00    -0.246 N 
ATOM     26  C   UNL     1      36.243 -24.269 -14.983  0.00  0.00    +0.137 C 
ATOM     27  C   UNL     1      36.279 -25.777 -14.892  0.00  0.00    +0.239 C 
ATOM     28  C   UNL     1      36.866 -25.265 -12.649  0.00  0.00    +0.279 C 
ATOM     29  H   UNL     1      36.723 -27.157 -13.428  0.00  0.00    +0.158 HD
ENDBRANCH  21  26
ENDBRANCH   1  21
TORSDOF 6
ENDMDL
MODEL 6
REMARK VINA RESULT:     -10.7      2.231      2.862
REMARK  Name = 3055168
REMARK  6 active torsions:
REMARK  status: ('A' for Active; 'I' for Inactive)
REMARK    1  A    between atoms: C_1  and  C_21
REMARK    2  A    between atoms: C_4  and  O_7
REMARK    3  A    between atoms: O_7  and  C_8
REMARK    4  A    between atoms: C_8  and  C_12
REMARK    5  A    between atoms: C_17  and  O_19
REMARK    6  A    between atoms: C_21  and  C_26
REMARK                            x       y       z     vdW  Elec       q    Type
REMARK                         _______ _______ _______ _____ _____    ______ ____
ROOT
ATOM      1  C   UNL     1      34.986 -23.026 -17.101  0.00  0.00    -0.021 C 
ATOM      2  C   UNL     1      33.848 -22.928 -17.901  0.00  0.00    -0.001 C 
ATOM      3  C   UNL     1      36.170 -22.400 -17.493  0.00  0.00    -0.001 C 
ATOM      4  C   UNL     1      35.077 -21.583 -19.479  0.00  0.00    +0.139 C 
ATOM      5  C   UNL     1      33.894 -22.205 -19.094  0.00  0.00    +0.037 C 
ATOM      6  C   UNL     1      36.215 -21.676 -18.684  0.00  0.00    +0.037 C 
ENDROOT
BRANCH   4   7
ATOM      7  O   UNL     1      35.121 -20.872 -20.647  0.00  0.00    -0.466 OA
BRANCH   7   8
ATOM      8  C   UNL     1      36.272 -20.056 -20.857  0.00  0.00    +0.279 C 
BRANCH   8  12
ATOM      9  N   UNL     1      35.479 -18.403 -22.542  0.00  0.00    -0.274 N 
ATOM     10  N   UNL     1      35.651 -17.683 -20.447  0.00  0.00    -0.390 NA
ATOM     11  C   UNL     1      35.089 -17.089 -22.573  0.00  0.00    +0.153 C 
ATOM     12  C   UNL     1      35.806 -18.711 -21.251  0.00  0.00    +0.205 C 
ATOM     13  C   UNL     1      35.205 -16.662 -21.253  0.00  0.00    +0.133 C 
ATOM     14  C   UNL     1      34.658 -16.262 -23.611  0.00  0.00    +0.037 C 
ATOM     15  C   UNL     1      35.533 -19.300 -23.674  0.00  0.00    +0.115 C 
ATOM     16  C   UNL     1      34.877 -15.334 -20.931  0.00  0.00    +0.033 C 
ATOM     17  C   UNL     1      34.334 -14.944 -23.273  0.00  0.00    +0.137 C 
ATOM     18  C   UNL     1      34.441 -14.486 -21.958  0.00  0.00    +0.039 C 
BRANCH  17  19
ATOM     19  O   UNL     1      33.908 -14.090 -24.247  0.00  0.00    -0.472 OA
ATOM     20  C   UNL     1      33.870 -12.703 -23.920  0.00  0.00    +0.252 C 
ENDBRANCH  17  19
ENDBRANCH   8  12
ENDBRANCH   7   8
ENDBRANCH   4   7
BRANCH   1  21
ATOM     21  C   UNL     1      34.937 -23.799 -15.827  0.00  0.00    +0.047 C 
BRANCH  21  26
ATOM     22  S   UNL     1      36.827 -23.410 -13.855  0.00  0.00    -0.048 S 
ATOM     23  O   UNL     1      35.987 -26.617 -15.831  0.00  0.00    -0.274 OA
ATOM     24  O   UNL     1      37.448 -24.918 -11.792  0.00  0.00    -0.263 OA
ATOM     25  N   UNL     1      36.745 -25.961 -13.747  0.00  0.00    -0.246 N 
ATOM     26  C   UNL     1      36.319 -24.267 -15.377  0.00  0.00    +0.137 C 
ATOM     27  C   UNL     1      36.321 -25.740 -15.041  0.00  0.00    +0.239 C 
ATOM     28  C   UNL     1      37.063 -24.891 -12.951  0.00  0.00    +0.279 C 
ATOM     29  H   UNL     1      36.820 -26.879 -13.397  0.00  0.00    +0.158 HD
ENDBRANCH  21  26
ENDBRANCH   1  21
TORSDOF 6
ENDMDL
MODEL 7
REMARK VINA RESULT:     -10.6      3.778      5.658
REMARK  Name = 3055168
REMARK  6 active torsions:
REMARK  status: ('A' for Active; 'I' for Inactive)
REMARK    1  A    between atoms: C_1  and  C_21
REMARK    2  A    between atoms: C_4  and  O_7
REMARK    3  A    between atoms: O_7  and  C_8
REMARK    4  A    between atoms: C_8  and  C_12
REMARK    5  A    between atoms: C_17  and  O_19
REMARK    6  A    between atoms: C_21  and  C_26
REMARK                            x       y       z     vdW  Elec       q    Type
REMARK                         _______ _______ _______ _____ _____    ______ ____
ROOT
ATOM      1  C   UNL     1      35.173 -18.722 -22.424  0.00  0.00    -0.021 C 
ATOM      2  C   UNL     1      35.312 -17.693 -21.492  0.00  0.00    -0.001 C 
ATOM      3  C   UNL     1      34.928 -18.421 -23.764  0.00  0.00    -0.001 C 
ATOM      4  C   UNL     1      34.961 -16.069 -23.239  0.00  0.00    +0.139 C 
ATOM      5  C   UNL     1      35.205 -16.363 -21.901  0.00  0.00    +0.037 C 
ATOM      6  C   UNL     1      34.823 -17.092 -24.173  0.00  0.00    +0.037 C 
ENDROOT
BRANCH   4   7
ATOM      7  O   UNL     1      34.859 -14.765 -23.639  0.00  0.00    -0.466 OA
BRANCH   7   8
ATOM      8  C   UNL     1      33.607 -14.361 -24.190  0.00  0.00    +0.279 C 
BRANCH   8  12
ATOM      9  N   UNL     1      33.358 -11.915 -23.796  0.00  0.00    -0.274 N 
ATOM     10  N   UNL     1      32.433 -13.264 -22.292  0.00  0.00    -0.390 NA
ATOM     11  C   UNL     1      32.782 -11.087 -22.866  0.00  0.00    +0.153 C 
ATOM     12  C   UNL     1      33.122 -13.205 -23.409  0.00  0.00    +0.205 C 
ATOM     13  C   UNL     1      32.211 -11.954 -21.937  0.00  0.00    +0.133 C 
ATOM     14  C   UNL     1      32.715  -9.698 -22.760  0.00  0.00    +0.037 C 
ATOM     15  C   UNL     1      34.082 -11.495 -24.973  0.00  0.00    +0.115 C 
ATOM     16  C   UNL     1      31.528 -11.420 -20.831  0.00  0.00    +0.033 C 
ATOM     17  C   UNL     1      32.031  -9.183 -21.654  0.00  0.00    +0.137 C 
ATOM     18  C   UNL     1      31.448 -10.027 -20.705  0.00  0.00    +0.039 C 
BRANCH  17  19
ATOM     19  O   UNL     1      31.934  -7.832 -21.498  0.00  0.00    -0.472 OA
ATOM     20  C   UNL     1      32.387  -7.290 -20.259  0.00  0.00    +0.252 C 
ENDBRANCH  17  19
ENDBRANCH   8  12
ENDBRANCH   7   8
ENDBRANCH   4   7
BRANCH   1  21
ATOM     21  C   UNL     1      35.285 -20.143 -21.987  0.00  0.00    +0.047 C 
BRANCH  21  26
ATOM     22  S   UNL     1      33.275 -20.846 -20.234  0.00  0.00    -0.048 S 
ATOM     23  O   UNL     1      37.083 -21.394 -19.927  0.00  0.00    -0.274 OA
ATOM     24  O   UNL     1      32.908 -23.080 -18.895  0.00  0.00    -0.263 OA
ATOM     25  N   UNL     1      35.089 -22.386 -19.305  0.00  0.00    -0.246 N 
ATOM     26  C   UNL     1      34.996 -20.319 -20.499  0.00  0.00    +0.137 C 
ATOM     27  C   UNL     1      35.857 -21.403 -19.893  0.00  0.00    +0.239 C 
ATOM     28  C   UNL     1      33.723 -22.297 -19.361  0.00  0.00    +0.279 C 
ATOM     29  H   UNL     1      35.518 -23.146 -18.848  0.00  0.00    +0.158 HD
ENDBRANCH  21  26
ENDBRANCH   1  21
TORSDOF 6
ENDMDL
MODEL 8
REMARK VINA RESULT:     -10.5      3.041     10.784
REMARK  Name = 3055168
REMARK  6 active torsions:
REMARK  status: ('A' for Active; 'I' for Inactive)
REMARK    1  A    between atoms: C_1  and  C_21
REMARK    2  A    between atoms: C_4  and  O_7
REMARK    3  A    between atoms: O_7  and  C_8
REMARK    4  A    between atoms: C_8  and  C_12
REMARK    5  A    between atoms: C_17  and  O_19
REMARK    6  A    between atoms: C_21  and  C_26
REMARK                            x       y       z     vdW  Elec       q    Type
REMARK                         _______ _______ _______ _____ _____    ______ ____
ROOT
ATOM      1  C   UNL     1      35.417 -18.226 -23.215  0.00  0.00    -0.021 C 
ATOM      2  C   UNL     1      34.544 -19.261 -22.881  0.00  0.00    -0.001 C 
ATOM      3  C   UNL     1      36.546 -17.985 -22.432  0.00  0.00    -0.001 C 
ATOM      4  C   UNL     1      35.929 -19.812 -20.987  0.00  0.00    +0.139 C 
ATOM      5  C   UNL     1      34.801 -20.056 -21.763  0.00  0.00    +0.037 C 
ATOM      6  C   UNL     1      36.803 -18.780 -21.316  0.00  0.00    +0.037 C 
ENDROOT
BRANCH   4   7
ATOM      7  O   UNL     1      36.182 -20.593 -19.892  0.00  0.00    -0.466 OA
BRANCH   7   8
ATOM      8  C   UNL     1      35.309 -21.701 -19.682  0.00  0.00    +0.279 C 
BRANCH   8  12
ATOM      9  N   UNL     1      34.553 -22.765 -17.561  0.00  0.00    -0.274 N 
ATOM     10  N   UNL     1      36.700 -22.204 -17.683  0.00  0.00    -0.390 NA
ATOM     11  C   UNL     1      35.098 -23.136 -16.358  0.00  0.00    +0.153 C 
ATOM     12  C   UNL     1      35.549 -22.213 -18.317  0.00  0.00    +0.205 C 
ATOM     13  C   UNL     1      36.439 -22.776 -16.460  0.00  0.00    +0.133 C 
ATOM     14  C   UNL     1      34.549 -23.738 -15.226  0.00  0.00    +0.037 C 
ATOM     15  C   UNL     1      33.173 -22.930 -17.955  0.00  0.00    +0.115 C 
ATOM     16  C   UNL     1      37.298 -23.023 -15.375  0.00  0.00    +0.033 C 
ATOM     17  C   UNL     1      35.418 -23.977 -14.156  0.00  0.00    +0.137 C 
ATOM     18  C   UNL     1      36.769 -23.626 -14.228  0.00  0.00    +0.039 C 
BRANCH  17  19
ATOM     19  O   UNL     1      34.938 -24.562 -13.022  0.00  0.00    -0.472 OA
ATOM     20  C   UNL     1      35.552 -24.188 -11.791  0.00  0.00    +0.252 C 
ENDBRANCH  17  19
ENDBRANCH   8  12
ENDBRANCH   7   8
ENDBRANCH   4   7
BRANCH   1  21
ATOM     21  C   UNL     1      35.142 -17.375 -24.409  0.00  0.00    +0.047 C 
BRANCH  21  26
ATOM     22  S   UNL     1      34.198 -15.016 -23.333  0.00  0.00    -0.048 S 
ATOM     23  O   UNL     1      33.029 -16.898 -26.494  0.00  0.00    -0.274 OA
ATOM     24  O   UNL     1      33.563 -12.757 -24.519  0.00  0.00    -0.263 OA
ATOM     25  N   UNL     1      33.206 -14.744 -25.672  0.00  0.00    -0.246 N 
ATOM     26  C   UNL     1      33.867 -16.550 -24.254  0.00  0.00    +0.137 C 
ATOM     27  C   UNL     1      33.324 -16.116 -25.597  0.00  0.00    +0.239 C 
ATOM     28  C   UNL     1      33.600 -13.975 -24.608  0.00  0.00    +0.279 C 
ATOM     29  H   UNL     1      32.842 -14.319 -26.483  0.00  0.00    +0.158 HD
ENDBRANCH  21  26
ENDBRANCH   1  21
TORSDOF 6
ENDMDL
MODEL 9
REMARK VINA RESULT:     -10.5      2.911     10.668
REMARK  Name = 3055168
REMARK  6 active torsions:
REMARK  status: ('A' for Active; 'I' for Inactive)
REMARK    1  A    between atoms: C_1  and  C_21
REMARK    2  A    between atoms: C_4  and  O_7
REMARK    3  A    between atoms: O_7  and  C_8
REMARK    4  A    between atoms: C_8  and  C_12
REMARK    5  A    between atoms: C_17  and  O_19
REMARK    6  A    between atoms: C_21  and  C_26
REMARK                            x       y       z     vdW  Elec       q    Type
REMARK                         _______ _______ _______ _____ _____    ______ ____
ROOT
ATOM      1  C   UNL     1      35.239 -18.063 -23.212  0.00  0.00    -0.021 C 
ATOM      2  C   UNL     1      36.135 -17.722 -22.199  0.00  0.00    -0.001 C 
ATOM      3  C   UNL     1      34.481 -19.229 -23.110  0.00  0.00    -0.001 C 
ATOM      4  C   UNL     1      35.516 -19.712 -20.988  0.00  0.00    +0.139 C 
ATOM      5  C   UNL     1      36.275 -18.550 -21.085  0.00  0.00    +0.037 C 
ATOM      6  C   UNL     1      34.619 -20.056 -21.996  0.00  0.00    +0.037 C 
ENDROOT
BRANCH   4   7
ATOM      7  O   UNL     1      35.652 -20.522 -19.894  0.00  0.00    -0.466 OA
BRANCH   7   8
ATOM      8  C   UNL     1      35.348 -21.903 -20.079  0.00  0.00    +0.279 C 
BRANCH   8  12
ATOM      9  N   UNL     1      35.399 -22.590 -17.686  0.00  0.00    -0.274 N 
ATOM     10  N   UNL     1      33.427 -22.688 -18.707  0.00  0.00    -0.390 NA
ATOM     11  C   UNL     1      34.517 -23.043 -16.738  0.00  0.00    +0.153 C 
ATOM     12  C   UNL     1      34.701 -22.392 -18.844  0.00  0.00    +0.205 C 
ATOM     13  C   UNL     1      33.293 -23.095 -17.401  0.00  0.00    +0.133 C 
ATOM     14  C   UNL     1      34.680 -23.401 -15.400  0.00  0.00    +0.037 C 
ATOM     15  C   UNL     1      36.812 -22.362 -17.490  0.00  0.00    +0.115 C 
ATOM     16  C   UNL     1      32.153 -23.529 -16.702  0.00  0.00    +0.033 C 
ATOM     17  C   UNL     1      33.535 -23.829 -14.719  0.00  0.00    +0.137 C 
ATOM     18  C   UNL     1      32.294 -23.893 -15.356  0.00  0.00    +0.039 C 
BRANCH  17  19
ATOM     19  O   UNL     1      33.634 -24.193 -13.409  0.00  0.00    -0.472 OA
ATOM     20  C   UNL     1      34.944 -24.229 -12.845  0.00  0.00    +0.252 C 
ENDBRANCH  17  19
ENDBRANCH   8  12
ENDBRANCH   7   8
ENDBRANCH   4   7
BRANCH   1  21
ATOM     21  C   UNL     1      35.090 -17.179 -24.404  0.00  0.00    +0.047 C 
BRANCH  21  26
ATOM     22  S   UNL     1      34.081 -14.779 -23.491  0.00  0.00    -0.048 S 
ATOM     23  O   UNL     1      33.100 -16.804 -26.626  0.00  0.00    -0.274 OA
ATOM     24  O   UNL     1      33.511 -12.577 -24.811  0.00  0.00    -0.263 OA
ATOM     25  N   UNL     1      33.225 -14.614 -25.892  0.00  0.00    -0.246 N 
ATOM     26  C   UNL     1      33.807 -16.353 -24.360  0.00  0.00    +0.137 C 
ATOM     27  C   UNL     1      33.341 -15.982 -25.749  0.00  0.00    +0.239 C 
ATOM     28  C   UNL     1      33.556 -13.798 -24.843  0.00  0.00    +0.279 C 
ATOM     29  H   UNL     1      32.908 -14.228 -26.741  0.00  0.00    +0.158 HD
ENDBRANCH  21  26
ENDBRANCH   1  21
TORSDOF 6
ENDMDL
