MODEL 1
REMARK VINA RESULT:     -11.6      0.000      0.000
REMARK  Name = 447656
REMARK  5 active torsions:
REMARK  status: ('A' for Active; 'I' for Inactive)
REMARK    1  A    between atoms: N_5  and  C_14
REMARK    2  A    between atoms: C_6  and  O_25
REMARK    3  A    between atoms: C_17  and  C_22
REMARK    4  A    between atoms: O_25  and  C_26
REMARK    5  A    between atoms: C_26  and  C_27
REMARK                            x       y       z     vdW  Elec       q    Type
REMARK                         _______ _______ _______ _____ _____    ______ ____
ROOT
ATOM      1  N   UNL     1      32.675 -23.639 -15.897  0.00  0.00    -0.293 NA
ATOM      2  N   UNL     1      29.335 -22.748 -17.153  0.00  0.00    -0.266 NA
ATOM      3  N   UNL     1      30.863 -24.100 -14.329  0.00  0.00    -0.316 NA
ATOM      4  N   UNL     1      28.661 -23.507 -15.169  0.00  0.00    -0.296 N 
ATOM      5  N   UNL     1      33.091 -24.570 -13.788  0.00  0.00    -0.238 N 
ATOM      6  C   UNL     1      31.813 -23.158 -16.818  0.00  0.00    +0.288 C 
ATOM      7  C   UNL     1      30.469 -23.144 -16.503  0.00  0.00    +0.215 C 
ATOM      8  C   UNL     1      30.024 -23.612 -15.274  0.00  0.00    +0.196 C 
ATOM      9  C   UNL     1      32.154 -24.075 -14.725  0.00  0.00    +0.207 C 
ATOM     10  C   UNL     1      28.279 -22.984 -16.315  0.00  0.00    +0.164 C 
ATOM     11  H   UNL     1      29.288 -22.362 -18.058  0.00  0.00    +0.126 HD
ATOM     12  H   UNL     1      28.094 -23.766 -14.407  0.00  0.00    +0.150 HD
ATOM     13  H   UNL     1      32.684 -24.880 -12.947  0.00  0.00    +0.166 HD
ENDROOT
BRANCH   5  14
ATOM     14  C   UNL     1      34.490 -24.706 -13.824  0.00  0.00    +0.058 C 
ATOM     15  C   UNL     1      35.117 -25.206 -14.968  0.00  0.00    +0.015 C 
ATOM     16  C   UNL     1      35.259 -24.343 -12.716  0.00  0.00    +0.015 C 
ATOM     17  C   UNL     1      37.270 -24.978 -13.896  0.00  0.00    +0.053 C 
ATOM     18  C   UNL     1      36.505 -25.342 -15.005  0.00  0.00    +0.006 C 
ATOM     19  C   UNL     1      36.647 -24.478 -12.752  0.00  0.00    +0.006 C 
BRANCH  17  22
ATOM     20  O   UNL     1      39.428 -24.763 -12.977  0.00  0.00    -0.270 OA
ATOM     21  N   UNL     1      39.283 -25.683 -15.073  0.00  0.00    -0.325 N 
ATOM     22  C   UNL     1      38.716 -25.118 -13.934  0.00  0.00    +0.243 C 
ATOM     23  H   UNL     1      40.260 -25.793 -15.134  0.00  0.00    +0.145 HD
ATOM     24  H   UNL     1      38.707 -25.972 -15.818  0.00  0.00    +0.145 HD
ENDBRANCH  17  22
ENDBRANCH   5  14
BRANCH   6  25
ATOM     25  O   UNL     1      32.307 -22.707 -18.017  0.00  0.00    -0.453 OA
BRANCH  25  26
ATOM     26  C   UNL     1      33.658 -23.013 -18.311  0.00  0.00    +0.208 C 
BRANCH  26  27
ATOM     27  C   UNL     1      34.065 -22.248 -19.569  0.00  0.00    +0.044 C 
ATOM     28  C   UNL     1      33.062 -21.125 -19.869  0.00  0.00    +0.004 C 
ATOM     29  C   UNL     1      35.486 -21.688 -19.428  0.00  0.00    +0.004 C 
ATOM     30  C   UNL     1      33.476 -20.311 -21.093  0.00  0.00    +0.000 C 
ATOM     31  C   UNL     1      35.895 -20.873 -20.652  0.00  0.00    +0.000 C 
ATOM     32  C   UNL     1      34.892 -19.764 -20.952  0.00  0.00    +0.000 C 
ENDBRANCH  26  27
ENDBRANCH  25  26
ENDBRANCH   6  25
TORSDOF 5
ENDMDL
MODEL 2
REMARK VINA RESULT:     -11.6      1.931      6.410
REMARK  Name = 447656
REMARK  5 active torsions:
REMARK  status: ('A' for Active; 'I' for Inactive)
REMARK    1  A    between atoms: N_5  and  C_14
REMARK    2  A    between atoms: C_6  and  O_25
REMARK    3  A    between atoms: C_17  and  C_22
REMARK    4  A    between atoms: O_25  and  C_26
REMARK    5  A    between atoms: C_26  and  C_27
REMARK                            x       y       z     vdW  Elec       q    Type
REMARK                         _______ _______ _______ _____ _____    ______ ____
ROOT
ATOM      1  N   UNL     1      33.894 -23.767 -15.695  0.00  0.00    -0.293 NA
ATOM      2  N   UNL     1      37.546 -24.061 -15.382  0.00  0.00    -0.266 NA
ATOM      3  N   UNL     1      34.635 -24.828 -13.627  0.00  0.00    -0.316 NA
ATOM      4  N   UNL     1      37.050 -25.018 -13.431  0.00  0.00    -0.296 N 
ATOM      5  N   UNL     1      32.362 -24.513 -14.087  0.00  0.00    -0.238 N 
ATOM      6  C   UNL     1      35.165 -23.604 -16.118  0.00  0.00    +0.288 C 
ATOM      7  C   UNL     1      36.182 -24.051 -15.300  0.00  0.00    +0.215 C 
ATOM      8  C   UNL     1      35.900 -24.650 -14.079  0.00  0.00    +0.196 C 
ATOM      9  C   UNL     1      33.709 -24.361 -14.492  0.00  0.00    +0.207 C 
ATOM     10  C   UNL     1      38.020 -24.650 -14.240  0.00  0.00    +0.164 C 
ATOM     11  H   UNL     1      38.087 -23.710 -16.126  0.00  0.00    +0.126 HD
ATOM     12  H   UNL     1      37.133 -25.459 -12.554  0.00  0.00    +0.150 HD
ATOM     13  H   UNL     1      32.259 -24.947 -13.209  0.00  0.00    +0.166 HD
ENDROOT
BRANCH   5  14
ATOM     14  C   UNL     1      31.142 -24.165 -14.693  0.00  0.00    +0.058 C 
ATOM     15  C   UNL     1      30.378 -25.138 -15.342  0.00  0.00    +0.015 C 
ATOM     16  C   UNL     1      30.689 -22.844 -14.650  0.00  0.00    +0.015 C 
ATOM     17  C   UNL     1      28.718 -23.474 -15.898  0.00  0.00    +0.053 C 
ATOM     18  C   UNL     1      29.168 -24.794 -15.943  0.00  0.00    +0.006 C 
ATOM     19  C   UNL     1      29.478 -22.499 -15.251  0.00  0.00    +0.006 C 
BRANCH  17  22
ATOM     20  O   UNL     1      27.189 -23.458 -17.689  0.00  0.00    -0.270 OA
ATOM     21  N   UNL     1      26.542 -22.386 -15.767  0.00  0.00    -0.325 N 
ATOM     22  C   UNL     1      27.456 -23.114 -16.524  0.00  0.00    +0.243 C 
ATOM     23  H   UNL     1      25.677 -22.124 -16.159  0.00  0.00    +0.145 HD
ATOM     24  H   UNL     1      26.761 -22.131 -14.842  0.00  0.00    +0.145 HD
ENDBRANCH  17  22
ENDBRANCH   5  14
BRANCH   6  25
ATOM     25  O   UNL     1      35.388 -23.005 -17.334  0.00  0.00    -0.453 OA
BRANCH  25  26
ATOM     26  C   UNL     1      34.283 -22.904 -18.212  0.00  0.00    +0.208 C 
BRANCH  26  27
ATOM     27  C   UNL     1      34.733 -22.170 -19.474  0.00  0.00    +0.044 C 
ATOM     28  C   UNL     1      33.692 -21.124 -19.894  0.00  0.00    +0.004 C 
ATOM     29  C   UNL     1      36.107 -21.520 -19.263  0.00  0.00    +0.004 C 
ATOM     30  C   UNL     1      34.145 -20.340 -21.124  0.00  0.00    +0.000 C 
ATOM     31  C   UNL     1      36.554 -20.735 -20.493  0.00  0.00    +0.000 C 
ATOM     32  C   UNL     1      35.514 -19.702 -20.913  0.00  0.00    +0.000 C 
ENDBRANCH  26  27
ENDBRANCH  25  26
ENDBRANCH   6  25
TORSDOF 5
ENDMDL
MODEL 3
REMARK VINA RESULT:     -11.5      2.077      6.450
REMARK  Name = 447656
REMARK  5 active torsions:
REMARK  status: ('A' for Active; 'I' for Inactive)
REMARK    1  A    between atoms: N_5  and  C_14
REMARK    2  A    between atoms: C_6  and  O_25
REMARK    3  A    between atoms: C_17  and  C_22
REMARK    4  A    between atoms: O_25  and  C_26
REMARK    5  A    between atoms: C_26  and  C_27
REMARK                            x       y       z     vdW  Elec       q    Type
REMARK                         _______ _______ _______ _____ _____    ______ ____
ROOT
ATOM      1  N   UNL     1      34.605 -24.158 -14.523  0.00  0.00    -0.293 NA
ATOM      2  N   UNL     1      38.094 -24.220 -13.363  0.00  0.00    -0.266 NA
ATOM      3  N   UNL     1      34.850 -24.466 -12.115  0.00  0.00    -0.316 NA
ATOM      4  N   UNL     1      37.160 -24.506 -11.360  0.00  0.00    -0.296 N 
ATOM      5  N   UNL     1      32.740 -24.389 -13.124  0.00  0.00    -0.238 N 
ATOM      6  C   UNL     1      35.942 -24.101 -14.695  0.00  0.00    +0.288 C 
ATOM      7  C   UNL     1      36.745 -24.226 -13.580  0.00  0.00    +0.215 C 
ATOM      8  C   UNL     1      36.188 -24.404 -12.321  0.00  0.00    +0.196 C 
ATOM      9  C   UNL     1      34.146 -24.334 -13.261  0.00  0.00    +0.207 C 
ATOM     10  C   UNL     1      38.293 -24.390 -12.019  0.00  0.00    +0.164 C 
ATOM     11  H   UNL     1      38.794 -24.113 -14.048  0.00  0.00    +0.126 HD
ATOM     12  H   UNL     1      37.038 -24.635 -10.391  0.00  0.00    +0.150 HD
ATOM     13  H   UNL     1      32.436 -24.517 -12.196  0.00  0.00    +0.166 HD
ENDROOT
BRANCH   5  14
ATOM     14  C   UNL     1      31.690 -24.294 -14.055  0.00  0.00    +0.058 C 
ATOM     15  C   UNL     1      30.839 -25.383 -14.265  0.00  0.00    +0.015 C 
ATOM     16  C   UNL     1      31.493 -23.113 -14.773  0.00  0.00    +0.015 C 
ATOM     17  C   UNL     1      29.604 -24.108 -15.904  0.00  0.00    +0.053 C 
ATOM     18  C   UNL     1      29.798 -25.290 -15.188  0.00  0.00    +0.006 C 
ATOM     19  C   UNL     1      30.451 -23.020 -15.696  0.00  0.00    +0.006 C 
BRANCH  17  22
ATOM     20  O   UNL     1      27.964 -25.027 -17.324  0.00  0.00    -0.270 OA
ATOM     21  N   UNL     1      28.100 -22.738 -17.244  0.00  0.00    -0.325 N 
ATOM     22  C   UNL     1      28.518 -24.011 -16.865  0.00  0.00    +0.243 C 
ATOM     23  H   UNL     1      27.367 -22.634 -17.894  0.00  0.00    +0.145 HD
ATOM     24  H   UNL     1      28.538 -21.943 -16.864  0.00  0.00    +0.145 HD
ENDBRANCH  17  22
ENDBRANCH   5  14
BRANCH   6  25
ATOM     25  O   UNL     1      36.441 -23.923 -15.963  0.00  0.00    -0.453 OA
BRANCH  25  26
ATOM     26  C   UNL     1      36.462 -22.600 -16.465  0.00  0.00    +0.208 C 
BRANCH  26  27
ATOM     27  C   UNL     1      35.888 -22.610 -17.881  0.00  0.00    +0.044 C 
ATOM     28  C   UNL     1      34.358 -22.499 -17.846  0.00  0.00    +0.004 C 
ATOM     29  C   UNL     1      36.498 -21.480 -18.721  0.00  0.00    +0.004 C 
ATOM     30  C   UNL     1      33.764 -22.454 -19.252  0.00  0.00    +0.000 C 
ATOM     31  C   UNL     1      35.900 -21.436 -20.125  0.00  0.00    +0.000 C 
ATOM     32  C   UNL     1      34.379 -21.336 -20.087  0.00  0.00    +0.000 C 
ENDBRANCH  26  27
ENDBRANCH  25  26
ENDBRANCH   6  25
TORSDOF 5
ENDMDL
MODEL 4
REMARK VINA RESULT:     -11.1      2.584      7.063
REMARK  Name = 447656
REMARK  5 active torsions:
REMARK  status: ('A' for Active; 'I' for Inactive)
REMARK    1  A    between atoms: N_5  and  C_14
REMARK    2  A    between atoms: C_6  and  O_25
REMARK    3  A    between atoms: C_17  and  C_22
REMARK    4  A    between atoms: O_25  and  C_26
REMARK    5  A    between atoms: C_26  and  C_27
REMARK                            x       y       z     vdW  Elec       q    Type
REMARK                         _______ _______ _______ _____ _____    ______ ____
ROOT
ATOM      1  N   UNL     1      33.960 -22.874 -16.561  0.00  0.00    -0.293 NA
ATOM      2  N   UNL     1      33.108 -24.737 -13.507  0.00  0.00    -0.266 NA
ATOM      3  N   UNL     1      31.717 -23.832 -16.571  0.00  0.00    -0.316 NA
ATOM      4  N   UNL     1      31.164 -25.062 -14.547  0.00  0.00    -0.296 N 
ATOM      5  N   UNL     1      32.521 -22.597 -18.388  0.00  0.00    -0.238 N 
ATOM      6  C   UNL     1      34.213 -23.369 -15.331  0.00  0.00    +0.288 C 
ATOM      7  C   UNL     1      33.221 -24.099 -14.710  0.00  0.00    +0.215 C 
ATOM      8  C   UNL     1      32.001 -24.315 -15.337  0.00  0.00    +0.196 C 
ATOM      9  C   UNL     1      32.744 -23.132 -17.099  0.00  0.00    +0.207 C 
ATOM     10  C   UNL     1      31.861 -25.298 -13.456  0.00  0.00    +0.164 C 
ATOM     11  H   UNL     1      33.799 -24.785 -12.806  0.00  0.00    +0.126 HD
ATOM     12  H   UNL     1      30.247 -25.355 -14.751  0.00  0.00    +0.150 HD
ATOM     13  H   UNL     1      31.629 -22.799 -18.752  0.00  0.00    +0.166 HD
ENDROOT
BRANCH   5  14
ATOM     14  C   UNL     1      33.323 -21.830 -19.251  0.00  0.00    +0.058 C 
ATOM     15  C   UNL     1      32.735 -20.918 -20.131  0.00  0.00    +0.015 C 
ATOM     16  C   UNL     1      34.712 -21.976 -19.233  0.00  0.00    +0.015 C 
ATOM     17  C   UNL     1      34.917 -20.305 -20.966  0.00  0.00    +0.053 C 
ATOM     18  C   UNL     1      33.530 -20.156 -20.987  0.00  0.00    +0.006 C 
ATOM     19  C   UNL     1      35.508 -21.214 -20.089  0.00  0.00    +0.006 C 
BRANCH  17  22
ATOM     20  O   UNL     1      35.418 -19.308 -23.040  0.00  0.00    -0.270 OA
ATOM     21  N   UNL     1      36.917 -18.966 -21.339  0.00  0.00    -0.325 N 
ATOM     22  C   UNL     1      35.747 -19.511 -21.857  0.00  0.00    +0.243 C 
ATOM     23  H   UNL     1      37.505 -18.423 -21.914  0.00  0.00    +0.145 HD
ATOM     24  H   UNL     1      37.160 -19.124 -20.398  0.00  0.00    +0.145 HD
ENDBRANCH  17  22
ENDBRANCH   5  14
BRANCH   6  25
ATOM     25  O   UNL     1      35.437 -23.126 -14.757  0.00  0.00    -0.453 OA
BRANCH  25  26
ATOM     26  C   UNL     1      36.581 -23.519 -15.492  0.00  0.00    +0.208 C 
BRANCH  26  27
ATOM     27  C   UNL     1      37.360 -24.541 -14.667  0.00  0.00    +0.044 C 
ATOM     28  C   UNL     1      37.429 -24.110 -13.195  0.00  0.00    +0.004 C 
ATOM     29  C   UNL     1      36.732 -25.935 -14.798  0.00  0.00    +0.004 C 
ATOM     30  C   UNL     1      38.158 -25.143 -12.339  0.00  0.00    +0.000 C 
ATOM     31  C   UNL     1      37.461 -26.965 -13.938  0.00  0.00    +0.000 C 
ATOM     32  C   UNL     1      37.537 -26.528 -12.479  0.00  0.00    +0.000 C 
ENDBRANCH  26  27
ENDBRANCH  25  26
ENDBRANCH   6  25
TORSDOF 5
ENDMDL
MODEL 5
REMARK VINA RESULT:     -10.9      2.740      7.446
REMARK  Name = 447656
REMARK  5 active torsions:
REMARK  status: ('A' for Active; 'I' for Inactive)
REMARK    1  A    between atoms: N_5  and  C_14
REMARK    2  A    between atoms: C_6  and  O_25
REMARK    3  A    between atoms: C_17  and  C_22
REMARK    4  A    between atoms: O_25  and  C_26
REMARK    5  A    between atoms: C_26  and  C_27
REMARK                            x       y       z     vdW  Elec       q    Type
REMARK                         _______ _______ _______ _____ _____    ______ ____
ROOT
ATOM      1  N   UNL     1      35.567 -23.940 -15.567  0.00  0.00    -0.293 NA
ATOM      2  N   UNL     1      36.496 -25.838 -12.558  0.00  0.00    -0.266 NA
ATOM      3  N   UNL     1      37.958 -23.936 -15.085  0.00  0.00    -0.316 NA
ATOM      4  N   UNL     1      38.561 -25.193 -13.094  0.00  0.00    -0.296 N 
ATOM      5  N   UNL     1      37.088 -22.807 -16.941  0.00  0.00    -0.238 N 
ATOM      6  C   UNL     1      35.306 -24.704 -14.486  0.00  0.00    +0.288 C 
ATOM      7  C   UNL     1      36.368 -25.091 -13.694  0.00  0.00    +0.215 C 
ATOM      8  C   UNL     1      37.664 -24.703 -14.007  0.00  0.00    +0.196 C 
ATOM      9  C   UNL     1      36.859 -23.607 -15.798  0.00  0.00    +0.207 C 
ATOM     10  C   UNL     1      37.827 -25.871 -12.237  0.00  0.00    +0.164 C 
ATOM     11  H   UNL     1      35.766 -26.273 -12.061  0.00  0.00    +0.126 HD
ATOM     12  H   UNL     1      39.538 -25.068 -13.082  0.00  0.00    +0.150 HD
ATOM     13  H   UNL     1      38.036 -22.581 -17.083  0.00  0.00    +0.166 HD
ENDROOT
BRANCH   5  14
ATOM     14  C   UNL     1      36.227 -22.270 -17.913  0.00  0.00    +0.058 C 
ATOM     15  C   UNL     1      36.739 -21.477 -18.944  0.00  0.00    +0.015 C 
ATOM     16  C   UNL     1      34.855 -22.526 -17.854  0.00  0.00    +0.015 C 
ATOM     17  C   UNL     1      34.516 -21.202 -19.847  0.00  0.00    +0.053 C 
ATOM     18  C   UNL     1      35.885 -20.944 -19.909  0.00  0.00    +0.006 C 
ATOM     19  C   UNL     1      34.000 -21.993 -18.820  0.00  0.00    +0.006 C 
BRANCH  17  22
ATOM     20  O   UNL     1      32.394 -20.817 -20.795  0.00  0.00    -0.270 OA
ATOM     21  N   UNL     1      34.194 -19.899 -21.880  0.00  0.00    -0.325 N 
ATOM     22  C   UNL     1      33.625 -20.647 -20.854  0.00  0.00    +0.243 C 
ATOM     23  H   UNL     1      33.622 -19.508 -22.580  0.00  0.00    +0.145 HD
ATOM     24  H   UNL     1      35.169 -19.761 -21.908  0.00  0.00    +0.145 HD
ENDBRANCH  17  22
ENDBRANCH   5  14
BRANCH   6  25
ATOM     25  O   UNL     1      34.006 -25.059 -14.222  0.00  0.00    -0.453 OA
BRANCH  25  26
ATOM     26  C   UNL     1      33.064 -24.009 -14.105  0.00  0.00    +0.208 C 
BRANCH  26  27
ATOM     27  C   UNL     1      31.828 -24.373 -14.925  0.00  0.00    +0.044 C 
ATOM     28  C   UNL     1      30.794 -25.101 -14.055  0.00  0.00    +0.004 C 
ATOM     29  C   UNL     1      31.216 -23.121 -15.567  0.00  0.00    +0.004 C 
ATOM     30  C   UNL     1      29.526 -25.428 -14.841  0.00  0.00    +0.000 C 
ATOM     31  C   UNL     1      29.947 -23.451 -16.350  0.00  0.00    +0.000 C 
ATOM     32  C   UNL     1      28.926 -24.183 -15.485  0.00  0.00    +0.000 C 
ENDBRANCH  26  27
ENDBRANCH  25  26
ENDBRANCH   6  25
TORSDOF 5
ENDMDL
MODEL 6
REMARK VINA RESULT:     -10.5      2.673      5.524
REMARK  Name = 447656
REMARK  5 active torsions:
REMARK  status: ('A' for Active; 'I' for Inactive)
REMARK    1  A    between atoms: N_5  and  C_14
REMARK    2  A    between atoms: C_6  and  O_25
REMARK    3  A    between atoms: C_17  and  C_22
REMARK    4  A    between atoms: O_25  and  C_26
REMARK    5  A    between atoms: C_26  and  C_27
REMARK                            x       y       z     vdW  Elec       q    Type
REMARK                         _______ _______ _______ _____ _____    ______ ____
ROOT
ATOM      1  N   UNL     1      35.065 -22.751 -17.557  0.00  0.00    -0.293 NA
ATOM      2  N   UNL     1      33.521 -21.264 -20.545  0.00  0.00    -0.266 NA
ATOM      3  N   UNL     1      36.532 -21.241 -18.791  0.00  0.00    -0.316 NA
ATOM      4  N   UNL     1      35.501 -20.264 -20.764  0.00  0.00    -0.296 N 
ATOM      5  N   UNL     1      37.257 -22.326 -16.849  0.00  0.00    -0.238 N 
ATOM      6  C   UNL     1      34.055 -22.553 -18.431  0.00  0.00    +0.288 C 
ATOM      7  C   UNL     1      34.274 -21.699 -19.492  0.00  0.00    +0.215 C 
ATOM      8  C   UNL     1      35.499 -21.064 -19.650  0.00  0.00    +0.196 C 
ATOM      9  C   UNL     1      36.226 -22.092 -17.787  0.00  0.00    +0.207 C 
ATOM     10  C   UNL     1      34.298 -20.407 -21.278  0.00  0.00    +0.164 C 
ATOM     11  H   UNL     1      32.591 -21.520 -20.741  0.00  0.00    +0.126 HD
ATOM     12  H   UNL     1      36.238 -19.707 -21.104  0.00  0.00    +0.150 HD
ATOM     13  H   UNL     1      38.088 -21.834 -17.041  0.00  0.00    +0.166 HD
ENDROOT
BRANCH   5  14
ATOM     14  C   UNL     1      37.328 -23.126 -15.694  0.00  0.00    +0.058 C 
ATOM     15  C   UNL     1      38.346 -24.073 -15.558  0.00  0.00    +0.015 C 
ATOM     16  C   UNL     1      36.381 -22.976 -14.678  0.00  0.00    +0.015 C 
ATOM     17  C   UNL     1      37.469 -24.714 -13.400  0.00  0.00    +0.053 C 
ATOM     18  C   UNL     1      38.417 -24.866 -14.413  0.00  0.00    +0.006 C 
ATOM     19  C   UNL     1      36.452 -23.769 -13.532  0.00  0.00    +0.006 C 
BRANCH  17  22
ATOM     20  O   UNL     1      37.893 -25.065 -11.110  0.00  0.00    -0.270 OA
ATOM     21  N   UNL     1      37.190 -26.881 -12.322  0.00  0.00    -0.325 N 
ATOM     22  C   UNL     1      37.543 -25.539 -12.206  0.00  0.00    +0.243 C 
ATOM     23  H   UNL     1      37.228 -27.471 -11.535  0.00  0.00    +0.145 HD
ATOM     24  H   UNL     1      36.903 -27.241 -13.193  0.00  0.00    +0.145 HD
ENDBRANCH  17  22
ENDBRANCH   5  14
BRANCH   6  25
ATOM     25  O   UNL     1      32.865 -23.207 -18.227  0.00  0.00    -0.453 OA
BRANCH  25  26
ATOM     26  C   UNL     1      32.066 -22.766 -17.144  0.00  0.00    +0.208 C 
BRANCH  26  27
ATOM     27  C   UNL     1      31.972 -23.897 -16.121  0.00  0.00    +0.044 C 
ATOM     28  C   UNL     1      32.716 -23.524 -14.831  0.00  0.00    +0.004 C 
ATOM     29  C   UNL     1      30.506 -24.240 -15.825  0.00  0.00    +0.004 C 
ATOM     30  C   UNL     1      32.592 -24.617 -13.772  0.00  0.00    +0.000 C 
ATOM     31  C   UNL     1      30.386 -25.331 -14.764  0.00  0.00    +0.000 C 
ATOM     32  C   UNL     1      31.134 -24.961 -13.488  0.00  0.00    +0.000 C 
ENDBRANCH  26  27
ENDBRANCH  25  26
ENDBRANCH   6  25
TORSDOF 5
ENDMDL
MODEL 7
REMARK VINA RESULT:      -9.8      8.083     12.751
REMARK  Name = 447656
REMARK  5 active torsions:
REMARK  status: ('A' for Active; 'I' for Inactive)
REMARK    1  A    between atoms: N_5  and  C_14
REMARK    2  A    between atoms: C_6  and  O_25
REMARK    3  A    between atoms: C_17  and  C_22
REMARK    4  A    between atoms: O_25  and  C_26
REMARK    5  A    between atoms: C_26  and  C_27
REMARK                            x       y       z     vdW  Elec       q    Type
REMARK                         _______ _______ _______ _____ _____    ______ ____
ROOT
ATOM      1  N   UNL     1      34.509 -16.167 -24.173  0.00  0.00    -0.293 NA
ATOM      2  N   UNL     1      34.965 -19.811 -24.365  0.00  0.00    -0.266 NA
ATOM      3  N   UNL     1      33.183 -17.248 -25.912  0.00  0.00    -0.316 NA
ATOM      4  N   UNL     1      33.492 -19.656 -26.030  0.00  0.00    -0.296 N 
ATOM      5  N   UNL     1      33.087 -14.935 -25.568  0.00  0.00    -0.238 N 
ATOM      6  C   UNL     1      35.043 -17.345 -23.788  0.00  0.00    +0.288 C 
ATOM      7  C   UNL     1      34.653 -18.484 -24.462  0.00  0.00    +0.215 C 
ATOM      8  C   UNL     1      33.737 -18.414 -25.503  0.00  0.00    +0.196 C 
ATOM      9  C   UNL     1      33.623 -16.190 -25.197  0.00  0.00    +0.207 C 
ATOM     10  C   UNL     1      34.245 -20.472 -25.324  0.00  0.00    +0.164 C 
ATOM     11  H   UNL     1      35.592 -20.216 -23.723  0.00  0.00    +0.126 HD
ATOM     12  H   UNL     1      32.887 -19.886 -26.772  0.00  0.00    +0.150 HD
ATOM     13  H   UNL     1      32.446 -14.983 -26.314  0.00  0.00    +0.166 HD
ENDROOT
BRANCH   5  14
ATOM     14  C   UNL     1      33.289 -13.633 -25.079  0.00  0.00    +0.058 C 
ATOM     15  C   UNL     1      33.659 -12.605 -25.951  0.00  0.00    +0.015 C 
ATOM     16  C   UNL     1      33.123 -13.359 -23.720  0.00  0.00    +0.015 C 
ATOM     17  C   UNL     1      33.692 -11.044 -24.109  0.00  0.00    +0.053 C 
ATOM     18  C   UNL     1      33.860 -11.313 -25.467  0.00  0.00    +0.006 C 
ATOM     19  C   UNL     1      33.323 -12.067 -23.235  0.00  0.00    +0.006 C 
BRANCH  17  22
ATOM     20  O   UNL     1      35.015  -9.146 -23.664  0.00  0.00    -0.270 OA
ATOM     21  N   UNL     1      32.804  -9.029 -23.065  0.00  0.00    -0.325 N 
ATOM     22  C   UNL     1      33.901  -9.697 -23.604  0.00  0.00    +0.243 C 
ATOM     23  H   UNL     1      32.908  -8.116 -22.713  0.00  0.00    +0.145 HD
ATOM     24  H   UNL     1      31.925  -9.471 -23.035  0.00  0.00    +0.145 HD
ENDBRANCH  17  22
ENDBRANCH   5  14
BRANCH   6  25
ATOM     25  O   UNL     1      35.946 -17.357 -22.753  0.00  0.00    -0.453 OA
BRANCH  25  26
ATOM     26  C   UNL     1      35.447 -17.687 -21.469  0.00  0.00    +0.208 C 
BRANCH  26  27
ATOM     27  C   UNL     1      35.531 -19.202 -21.292  0.00  0.00    +0.044 C 
ATOM     28  C   UNL     1      36.710 -19.576 -20.383  0.00  0.00    +0.004 C 
ATOM     29  C   UNL     1      34.215 -19.756 -20.733  0.00  0.00    +0.004 C 
ATOM     30  C   UNL     1      36.784 -21.083 -20.147  0.00  0.00    +0.000 C 
ATOM     31  C   UNL     1      34.293 -21.262 -20.495  0.00  0.00    +0.000 C 
ATOM     32  C   UNL     1      35.471 -21.631 -19.600  0.00  0.00    +0.000 C 
ENDBRANCH  26  27
ENDBRANCH  25  26
ENDBRANCH   6  25
TORSDOF 5
ENDMDL
MODEL 8
REMARK VINA RESULT:      -9.7     13.931     18.134
REMARK  Name = 447656
REMARK  5 active torsions:
REMARK  status: ('A' for Active; 'I' for Inactive)
REMARK    1  A    between atoms: N_5  and  C_14
REMARK    2  A    between atoms: C_6  and  O_25
REMARK    3  A    between atoms: C_17  and  C_22
REMARK    4  A    between atoms: O_25  and  C_26
REMARK    5  A    between atoms: C_26  and  C_27
REMARK                            x       y       z     vdW  Elec       q    Type
REMARK                         _______ _______ _______ _____ _____    ______ ____
ROOT
ATOM      1  N   UNL     1      32.810  -8.190 -23.274  0.00  0.00    -0.293 NA
ATOM      2  N   UNL     1      31.935 -10.621 -20.657  0.00  0.00    -0.266 NA
ATOM      3  N   UNL     1      32.332  -7.188 -21.101  0.00  0.00    -0.316 NA
ATOM      4  N   UNL     1      31.754  -8.804 -19.379  0.00  0.00    -0.296 N 
ATOM      5  N   UNL     1      32.915  -5.873 -22.947  0.00  0.00    -0.238 N 
ATOM      6  C   UNL     1      32.586  -9.433 -22.798  0.00  0.00    +0.288 C 
ATOM      7  C   UNL     1      32.232  -9.565 -21.471  0.00  0.00    +0.215 C 
ATOM      8  C   UNL     1      32.113  -8.449 -20.654  0.00  0.00    +0.196 C 
ATOM      9  C   UNL     1      32.671  -7.157 -22.408  0.00  0.00    +0.207 C 
ATOM     10  C   UNL     1      31.656 -10.116 -19.416  0.00  0.00    +0.164 C 
ATOM     11  H   UNL     1      31.924 -11.571 -20.917  0.00  0.00    +0.126 HD
ATOM     12  H   UNL     1      31.605  -8.210 -18.608  0.00  0.00    +0.150 HD
ATOM     13  H   UNL     1      32.808  -5.143 -22.295  0.00  0.00    +0.166 HD
ENDROOT
BRANCH   5  14
ATOM     14  C   UNL     1      33.282  -5.435 -24.231  0.00  0.00    +0.058 C 
ATOM     15  C   UNL     1      32.416  -4.625 -24.971  0.00  0.00    +0.015 C 
ATOM     16  C   UNL     1      34.514  -5.806 -24.774  0.00  0.00    +0.015 C 
ATOM     17  C   UNL     1      34.010  -4.563 -26.784  0.00  0.00    +0.053 C 
ATOM     18  C   UNL     1      32.779  -4.190 -26.245  0.00  0.00    +0.006 C 
ATOM     19  C   UNL     1      34.878  -5.371 -26.049  0.00  0.00    +0.006 C 
BRANCH  17  22
ATOM     20  O   UNL     1      35.490  -4.409 -28.611  0.00  0.00    -0.270 OA
ATOM     21  N   UNL     1      33.471  -3.340 -28.821  0.00  0.00    -0.325 N 
ATOM     22  C   UNL     1      34.390  -4.109 -28.112  0.00  0.00    +0.243 C 
ATOM     23  H   UNL     1      33.694  -3.014 -29.723  0.00  0.00    +0.145 HD
ATOM     24  H   UNL     1      32.599  -3.120 -28.419  0.00  0.00    +0.145 HD
ENDBRANCH  17  22
ENDBRANCH   5  14
BRANCH   6  25
ATOM     25  O   UNL     1      32.717 -10.503 -23.650  0.00  0.00    -0.453 OA
BRANCH  25  26
ATOM     26  C   UNL     1      33.958 -10.646 -24.316  0.00  0.00    +0.208 C 
BRANCH  26  27
ATOM     27  C   UNL     1      34.125 -12.109 -24.719  0.00  0.00    +0.044 C 
ATOM     28  C   UNL     1      33.639 -13.039 -23.599  0.00  0.00    +0.004 C 
ATOM     29  C   UNL     1      33.381 -12.399 -26.030  0.00  0.00    +0.004 C 
ATOM     30  C   UNL     1      33.747 -14.509 -24.000  0.00  0.00    +0.000 C 
ATOM     31  C   UNL     1      33.489 -13.869 -26.426  0.00  0.00    +0.000 C 
ATOM     32  C   UNL     1      33.014 -14.791 -25.307  0.00  0.00    +0.000 C 
ENDBRANCH  26  27
ENDBRANCH  25  26
ENDBRANCH   6  25
TORSDOF 5
ENDMDL
MODEL 9
REMARK VINA RESULT:      -9.4     13.676     17.881
REMARK  Name = 447656
REMARK  5 active torsions:
REMARK  status: ('A' for Active; 'I' for Inactive)
REMARK    1  A    between atoms: N_5  and  C_14
REMARK    2  A    between atoms: C_6  and  O_25
REMARK    3  A    between atoms: C_17  and  C_22
REMARK    4  A    between atoms: O_25  and  C_26
REMARK    5  A    between atoms: C_26  and  C_27
REMARK                            x       y       z     vdW  Elec       q    Type
REMARK                         _______ _______ _______ _____ _____    ______ ____
ROOT
ATOM      1  N   UNL     1      32.764  -8.344 -23.337  0.00  0.00    -0.293 NA
ATOM      2  N   UNL     1      31.854 -10.843 -20.797  0.00  0.00    -0.266 NA
ATOM      3  N   UNL     1      32.383  -7.413 -21.114  0.00  0.00    -0.316 NA
ATOM      4  N   UNL     1      31.782  -9.074 -19.443  0.00  0.00    -0.296 N 
ATOM      5  N   UNL     1      32.975  -6.049 -22.921  0.00  0.00    -0.238 N 
ATOM      6  C   UNL     1      32.499  -9.596 -22.905  0.00  0.00    +0.288 C 
ATOM      7  C   UNL     1      32.175  -9.767 -21.576  0.00  0.00    +0.215 C 
ATOM      8  C   UNL     1      32.123  -8.681 -20.712  0.00  0.00    +0.196 C 
ATOM      9  C   UNL     1      32.691  -7.343 -22.428  0.00  0.00    +0.207 C 
ATOM     10  C   UNL     1      31.628 -10.378 -19.529  0.00  0.00    +0.164 C 
ATOM     11  H   UNL     1      31.796 -11.780 -21.094  0.00  0.00    +0.126 HD
ATOM     12  H   UNL     1      31.677  -8.506 -18.645  0.00  0.00    +0.150 HD
ATOM     13  H   UNL     1      32.915  -5.343 -22.238  0.00  0.00    +0.166 HD
ENDROOT
BRANCH   5  14
ATOM     14  C   UNL     1      33.327  -5.574 -24.196  0.00  0.00    +0.058 C 
ATOM     15  C   UNL     1      32.430  -4.789 -24.926  0.00  0.00    +0.015 C 
ATOM     16  C   UNL     1      34.576  -5.885 -24.741  0.00  0.00    +0.015 C 
ATOM     17  C   UNL     1      34.027  -4.629 -26.731  0.00  0.00    +0.053 C 
ATOM     18  C   UNL     1      32.779  -4.317 -26.191  0.00  0.00    +0.006 C 
ATOM     19  C   UNL     1      34.925  -5.413 -26.007  0.00  0.00    +0.006 C 
BRANCH  17  22
ATOM     20  O   UNL     1      35.490  -4.413 -28.564  0.00  0.00    -0.270 OA
ATOM     21  N   UNL     1      33.459  -3.359 -28.731  0.00  0.00    -0.325 N 
ATOM     22  C   UNL     1      34.391  -4.137 -28.050  0.00  0.00    +0.243 C 
ATOM     23  H   UNL     1      33.672  -3.008 -29.626  0.00  0.00    +0.145 HD
ATOM     24  H   UNL     1      32.588  -3.159 -28.318  0.00  0.00    +0.145 HD
ENDBRANCH  17  22
ENDBRANCH   5  14
BRANCH   6  25
ATOM     25  O   UNL     1      32.564 -10.634 -23.802  0.00  0.00    -0.453 OA
BRANCH  25  26
ATOM     26  C   UNL     1      33.782 -11.352 -23.868  0.00  0.00    +0.208 C 
BRANCH  26  27
ATOM     27  C   UNL     1      33.464 -12.846 -23.869  0.00  0.00    +0.044 C 
ATOM     28  C   UNL     1      33.436 -13.394 -25.302  0.00  0.00    +0.004 C 
ATOM     29  C   UNL     1      34.476 -13.616 -23.010  0.00  0.00    +0.004 C 
ATOM     30  C   UNL     1      33.172 -14.898 -25.326  0.00  0.00    +0.000 C 
ATOM     31  C   UNL     1      34.211 -15.120 -23.039  0.00  0.00    +0.000 C 
ATOM     32  C   UNL     1      34.174 -15.658 -24.465  0.00  0.00    +0.000 C 
ENDBRANCH  26  27
ENDBRANCH  25  26
ENDBRANCH   6  25
TORSDOF 5
ENDMDL
