MODEL 1
REMARK VINA RESULT:     -12.3      0.000      0.000
REMARK  Name = 9826451
REMARK  9 active torsions:
REMARK  status: ('A' for Active; 'I' for Inactive)
REMARK    1  A    between atoms: C_1  and  N_2
REMARK    2  A    between atoms: C_1  and  C_19
REMARK    3  A    between atoms: C_8  and  O_10
REMARK    4  A    between atoms: O_10  and  C_11
REMARK    5  A    between atoms: C_14  and  O_17
REMARK    6  A    between atoms: C_19  and  O_20
REMARK    7  A    between atoms: O_20  and  C_24
REMARK    8  A    between atoms: C_21  and  C_27
REMARK    9  A    between atoms: C_27  and  C_32
REMARK                            x       y       z     vdW  Elec       q    Type
REMARK                         _______ _______ _______ _____ _____    ______ ____
ROOT
ATOM      1  C   UNL     1      33.602 -15.032 -25.205  0.00  0.00    +0.139 C 
ENDROOT
BRANCH   1   2
ATOM      2  N   UNL     1      34.216 -15.644 -24.051  0.00  0.00    -0.291 N 
ATOM      3  C   UNL     1      34.576 -14.793 -22.916  0.00  0.00    +0.113 C 
ATOM      4  N   UNL     1      34.139 -17.782 -25.067  0.00  0.00    -0.233 NA
ATOM      5  N   UNL     1      35.009 -19.695 -23.890  0.00  0.00    -0.214 NA
ATOM      6  C   UNL     1      34.480 -17.019 -24.008  0.00  0.00    +0.115 C 
ATOM      7  C   UNL     1      35.082 -17.516 -22.869  0.00  0.00    +0.146 C 
ATOM      8  C   UNL     1      35.324 -18.875 -22.866  0.00  0.00    +0.210 C 
ATOM      9  C   UNL     1      34.428 -19.091 -24.943  0.00  0.00    +0.254 C 
BRANCH   8  10
ATOM     10  O   UNL     1      35.919 -19.445 -21.771  0.00  0.00    -0.440 OA
BRANCH  10  11
ATOM     11  C   UNL     1      35.135 -20.256 -20.974  0.00  0.00    +0.147 C 
ATOM     12  C   UNL     1      33.746 -20.142 -21.014  0.00  0.00    +0.041 C 
ATOM     13  C   UNL     1      35.735 -21.191 -20.128  0.00  0.00    +0.041 C 
ATOM     14  C   UNL     1      33.554 -21.896 -19.364  0.00  0.00    +0.139 C 
ATOM     15  C   UNL     1      32.955 -20.962 -20.209  0.00  0.00    +0.040 C 
ATOM     16  C   UNL     1      34.944 -22.010 -19.324  0.00  0.00    +0.040 C 
BRANCH  14  17
ATOM     17  O   UNL     1      32.783 -22.697 -18.579  0.00  0.00    -0.471 OA
ATOM     18  C   UNL     1      33.444 -23.424 -17.544  0.00  0.00    +0.252 C 
ENDBRANCH  14  17
ENDBRANCH  10  11
ENDBRANCH   8  10
ENDBRANCH   1   2
BRANCH   1  19
ATOM     19  C   UNL     1      33.058 -13.661 -24.840  0.00  0.00    +0.227 C 
BRANCH  19  20
ATOM     20  O   UNL     1      34.024 -12.664 -25.168  0.00  0.00    -0.474 OA
BRANCH  20  24
ATOM     21  C   UNL     1      33.709  -9.011 -23.224  0.00  0.00    -0.021 C 
ATOM     22  C   UNL     1      32.762 -10.008 -22.991  0.00  0.00    -0.001 C 
ATOM     23  C   UNL     1      34.762  -9.242 -24.110  0.00  0.00    -0.001 C 
ATOM     24  C   UNL     1      33.920 -11.466 -24.531  0.00  0.00    +0.139 C 
ATOM     25  C   UNL     1      32.867 -11.236 -23.645  0.00  0.00    +0.037 C 
ATOM     26  C   UNL     1      34.867 -10.468 -24.763  0.00  0.00    +0.037 C 
BRANCH  21  27
ATOM     27  C   UNL     1      33.595  -7.685 -22.517  0.00  0.00    +0.047 C 
BRANCH  27  32
ATOM     28  S   UNL     1      31.207  -6.471 -23.159  0.00  0.00    -0.048 S 
ATOM     29  O   UNL     1      32.838  -6.984 -19.699  0.00  0.00    -0.274 OA
ATOM     30  O   UNL     1      30.147  -4.241 -22.259  0.00  0.00    -0.263 OA
ATOM     31  N   UNL     1      31.463  -5.495 -20.813  0.00  0.00    -0.246 N 
ATOM     32  C   UNL     1      32.194  -7.447 -21.982  0.00  0.00    +0.137 C 
ATOM     33  C   UNL     1      32.220  -6.642 -20.701  0.00  0.00    +0.239 C 
ATOM     34  C   UNL     1      30.844  -5.210 -22.001  0.00  0.00    +0.279 C 
ATOM     35  H   UNL     1      31.370  -4.885 -20.045  0.00  0.00    +0.158 HD
ENDBRANCH  27  32
ENDBRANCH  21  27
ENDBRANCH  20  24
ENDBRANCH  19  20
ENDBRANCH   1  19
TORSDOF 9
ENDMDL
MODEL 2
REMARK VINA RESULT:     -11.8      5.023      9.639
REMARK  Name = 9826451
REMARK  9 active torsions:
REMARK  status: ('A' for Active; 'I' for Inactive)
REMARK    1  A    between atoms: C_1  and  N_2
REMARK    2  A    between atoms: C_1  and  C_19
REMARK    3  A    between atoms: C_8  and  O_10
REMARK    4  A    between atoms: O_10  and  C_11
REMARK    5  A    between atoms: C_14  and  O_17
REMARK    6  A    between atoms: C_19  and  O_20
REMARK    7  A    between atoms: O_20  and  C_24
REMARK    8  A    between atoms: C_21  and  C_27
REMARK    9  A    between atoms: C_27  and  C_32
REMARK                            x       y       z     vdW  Elec       q    Type
REMARK                         _______ _______ _______ _____ _____    ______ ____
ROOT
ATOM      1  C   UNL     1      36.330 -22.036 -17.821  0.00  0.00    +0.139 C 
ENDROOT
BRANCH   1   2
ATOM      2  N   UNL     1      35.166 -22.732 -17.327  0.00  0.00    -0.291 N 
ATOM      3  C   UNL     1      34.019 -22.900 -18.220  0.00  0.00    +0.113 C 
ATOM      4  N   UNL     1      36.185 -23.063 -15.214  0.00  0.00    -0.233 NA
ATOM      5  N   UNL     1      34.979 -24.215 -13.476  0.00  0.00    -0.214 NA
ATOM      6  C   UNL     1      35.114 -23.231 -16.018  0.00  0.00    +0.115 C 
ATOM      7  C   UNL     1      33.956 -23.871 -15.627  0.00  0.00    +0.146 C 
ATOM      8  C   UNL     1      33.945 -24.348 -14.332  0.00  0.00    +0.210 C 
ATOM      9  C   UNL     1      36.051 -23.572 -13.975  0.00  0.00    +0.254 C 
BRANCH   8  10
ATOM     10  O   UNL     1      32.831 -24.997 -13.868  0.00  0.00    -0.440 OA
BRANCH  10  11
ATOM     11  C   UNL     1      31.607 -24.578 -14.350  0.00  0.00    +0.147 C 
ATOM     12  C   UNL     1      30.652 -25.517 -14.741  0.00  0.00    +0.041 C 
ATOM     13  C   UNL     1      31.324 -23.215 -14.445  0.00  0.00    +0.041 C 
ATOM     14  C   UNL     1      29.134 -23.732 -15.322  0.00  0.00    +0.139 C 
ATOM     15  C   UNL     1      29.416 -25.094 -15.227  0.00  0.00    +0.040 C 
ATOM     16  C   UNL     1      30.088 -22.792 -14.930  0.00  0.00    +0.040 C 
BRANCH  14  17
ATOM     17  O   UNL     1      27.926 -23.318 -15.796  0.00  0.00    -0.471 OA
ATOM     18  C   UNL     1      27.829 -23.068 -17.197  0.00  0.00    +0.252 C 
ENDBRANCH  14  17
ENDBRANCH  10  11
ENDBRANCH   8  10
ENDBRANCH   1   2
BRANCH   1  19
ATOM     19  C   UNL     1      36.203 -21.808 -19.318  0.00  0.00    +0.227 C 
BRANCH  19  20
ATOM     20  O   UNL     1      36.560 -20.461 -19.625  0.00  0.00    -0.474 OA
BRANCH  20  24
ATOM     21  C   UNL     1      34.918 -18.806 -23.058  0.00  0.00    -0.021 C 
ATOM     22  C   UNL     1      36.249 -18.551 -22.729  0.00  0.00    -0.001 C 
ATOM     23  C   UNL     1      34.138 -19.617 -22.233  0.00  0.00    -0.001 C 
ATOM     24  C   UNL     1      36.022 -19.918 -20.750  0.00  0.00    +0.139 C 
ATOM     25  C   UNL     1      36.801 -19.107 -21.575  0.00  0.00    +0.037 C 
ATOM     26  C   UNL     1      34.690 -20.172 -21.079  0.00  0.00    +0.037 C 
BRANCH  21  27
ATOM     27  C   UNL     1      34.322 -18.204 -24.305  0.00  0.00    +0.047 C 
BRANCH  27  32
ATOM     28  S   UNL     1      34.857 -15.861 -22.960  0.00  0.00    -0.048 S 
ATOM     29  O   UNL     1      33.527 -16.374 -26.546  0.00  0.00    -0.274 OA
ATOM     30  O   UNL     1      33.476 -13.628 -22.834  0.00  0.00    -0.263 OA
ATOM     31  N   UNL     1      33.385 -14.869 -24.796  0.00  0.00    -0.246 N 
ATOM     32  C   UNL     1      34.796 -16.779 -24.529  0.00  0.00    +0.137 C 
ATOM     33  C   UNL     1      33.841 -16.013 -25.417  0.00  0.00    +0.239 C 
ATOM     34  C   UNL     1      33.789 -14.591 -23.517  0.00  0.00    +0.279 C 
ATOM     35  H   UNL     1      32.774 -14.258 -25.268  0.00  0.00    +0.158 HD
ENDBRANCH  27  32
ENDBRANCH  21  27
ENDBRANCH  20  24
ENDBRANCH  19  20
ENDBRANCH   1  19
TORSDOF 9
ENDMDL
MODEL 3
REMARK VINA RESULT:     -11.8      4.142     12.529
REMARK  Name = 9826451
REMARK  9 active torsions:
REMARK  status: ('A' for Active; 'I' for Inactive)
REMARK    1  A    between atoms: C_1  and  N_2
REMARK    2  A    between atoms: C_1  and  C_19
REMARK    3  A    between atoms: C_8  and  O_10
REMARK    4  A    between atoms: O_10  and  C_11
REMARK    5  A    between atoms: C_14  and  O_17
REMARK    6  A    between atoms: C_19  and  O_20
REMARK    7  A    between atoms: O_20  and  C_24
REMARK    8  A    between atoms: C_21  and  C_27
REMARK    9  A    between atoms: C_27  and  C_32
REMARK                            x       y       z     vdW  Elec       q    Type
REMARK                         _______ _______ _______ _____ _____    ______ ____
ROOT
ATOM      1  C   UNL     1      35.623 -18.520 -23.583  0.00  0.00    +0.139 C 
ENDROOT
BRANCH   1   2
ATOM      2  N   UNL     1      34.828 -17.479 -24.190  0.00  0.00    -0.291 N 
ATOM      3  C   UNL     1      34.229 -17.731 -25.501  0.00  0.00    +0.113 C 
ATOM      4  N   UNL     1      35.199 -16.037 -22.348  0.00  0.00    -0.233 NA
ATOM      5  N   UNL     1      34.241 -13.827 -22.352  0.00  0.00    -0.214 NA
ATOM      6  C   UNL     1      34.636 -16.244 -23.557  0.00  0.00    +0.115 C 
ATOM      7  C   UNL     1      33.873 -15.303 -24.218  0.00  0.00    +0.146 C 
ATOM      8  C   UNL     1      33.707 -14.100 -23.560  0.00  0.00    +0.210 C 
ATOM      9  C   UNL     1      34.965 -14.825 -21.812  0.00  0.00    +0.254 C 
BRANCH   8  10
ATOM     10  O   UNL     1      32.962 -13.114 -24.151  0.00  0.00    -0.440 OA
BRANCH  10  11
ATOM     11  C   UNL     1      33.408 -11.814 -24.016  0.00  0.00    +0.147 C 
ATOM     12  C   UNL     1      34.512 -11.376 -24.746  0.00  0.00    +0.041 C 
ATOM     13  C   UNL     1      32.753 -10.939 -23.148  0.00  0.00    +0.041 C 
ATOM     14  C   UNL     1      34.308  -9.189 -23.742  0.00  0.00    +0.139 C 
ATOM     15  C   UNL     1      34.962 -10.063 -24.609  0.00  0.00    +0.040 C 
ATOM     16  C   UNL     1      33.202  -9.626 -23.012  0.00  0.00    +0.040 C 
BRANCH  14  17
ATOM     17  O   UNL     1      34.746  -7.906 -23.609  0.00  0.00    -0.471 OA
ATOM     18  C   UNL     1      33.790  -6.932 -23.193  0.00  0.00    +0.252 C 
ENDBRANCH  14  17
ENDBRANCH  10  11
ENDBRANCH   8  10
ENDBRANCH   1   2
BRANCH   1  19
ATOM     19  C   UNL     1      34.754 -19.377 -22.677  0.00  0.00    +0.227 C 
BRANCH  19  20
ATOM     20  O   UNL     1      35.352 -19.461 -21.385  0.00  0.00    -0.474 OA
BRANCH  20  24
ATOM     21  C   UNL     1      34.004 -22.472 -18.867  0.00  0.00    -0.021 C 
ATOM     22  C   UNL     1      35.373 -22.252 -19.020  0.00  0.00    -0.001 C 
ATOM     23  C   UNL     1      33.088 -21.681 -19.561  0.00  0.00    -0.001 C 
ATOM     24  C   UNL     1      34.911 -20.449 -20.560  0.00  0.00    +0.139 C 
ATOM     25  C   UNL     1      35.827 -21.240 -19.866  0.00  0.00    +0.037 C 
ATOM     26  C   UNL     1      33.542 -20.670 -20.408  0.00  0.00    +0.037 C 
BRANCH  21  27
ATOM     27  C   UNL     1      33.515 -23.566 -17.953  0.00  0.00    +0.047 C 
BRANCH  27  32
ATOM     28  S   UNL     1      33.905 -23.858 -15.241  0.00  0.00    -0.048 S 
ATOM     29  O   UNL     1      30.703 -22.882 -17.161  0.00  0.00    -0.274 OA
ATOM     30  O   UNL     1      32.392 -25.012 -13.429  0.00  0.00    -0.263 OA
ATOM     31  N   UNL     1      31.354 -23.978 -15.232  0.00  0.00    -0.246 N 
ATOM     32  C   UNL     1      33.053 -23.020 -16.613  0.00  0.00    +0.137 C 
ATOM     33  C   UNL     1      31.577 -23.270 -16.394  0.00  0.00    +0.239 C 
ATOM     34  C   UNL     1      32.422 -24.382 -14.474  0.00  0.00    +0.279 C 
ATOM     35  H   UNL     1      30.436 -24.192 -14.949  0.00  0.00    +0.158 HD
ENDBRANCH  27  32
ENDBRANCH  21  27
ENDBRANCH  20  24
ENDBRANCH  19  20
ENDBRANCH   1  19
TORSDOF 9
ENDMDL
MODEL 4
REMARK VINA RESULT:     -11.7      1.653      1.939
REMARK  Name = 9826451
REMARK  9 active torsions:
REMARK  status: ('A' for Active; 'I' for Inactive)
REMARK    1  A    between atoms: C_1  and  N_2
REMARK    2  A    between atoms: C_1  and  C_19
REMARK    3  A    between atoms: C_8  and  O_10
REMARK    4  A    between atoms: O_10  and  C_11
REMARK    5  A    between atoms: C_14  and  O_17
REMARK    6  A    between atoms: C_19  and  O_20
REMARK    7  A    between atoms: O_20  and  C_24
REMARK    8  A    between atoms: C_21  and  C_27
REMARK    9  A    between atoms: C_27  and  C_32
REMARK                            x       y       z     vdW  Elec       q    Type
REMARK                         _______ _______ _______ _____ _____    ______ ____
ROOT
ATOM      1  C   UNL     1      33.891 -14.130 -23.882  0.00  0.00    +0.139 C 
ENDROOT
BRANCH   1   2
ATOM      2  N   UNL     1      34.478 -15.007 -22.896  0.00  0.00    -0.291 N 
ATOM      3  C   UNL     1      34.780 -14.466 -21.570  0.00  0.00    +0.113 C 
ATOM      4  N   UNL     1      34.481 -16.820 -24.420  0.00  0.00    -0.233 NA
ATOM      5  N   UNL     1      35.351 -18.957 -23.730  0.00  0.00    -0.214 NA
ATOM      6  C   UNL     1      34.770 -16.345 -23.190  0.00  0.00    +0.115 C 
ATOM      7  C   UNL     1      35.342 -17.106 -22.191  0.00  0.00    +0.146 C 
ATOM      8  C   UNL     1      35.614 -18.418 -22.521  0.00  0.00    +0.210 C 
ATOM      9  C   UNL     1      34.794 -18.114 -24.619  0.00  0.00    +0.254 C 
BRANCH   8  10
ATOM     10  O   UNL     1      36.182 -19.239 -21.583  0.00  0.00    -0.440 OA
BRANCH  10  11
ATOM     11  C   UNL     1      35.345 -20.103 -20.904  0.00  0.00    +0.147 C 
ATOM     12  C   UNL     1      33.962 -19.983 -21.037  0.00  0.00    +0.041 C 
ATOM     13  C   UNL     1      35.884 -21.096 -20.086  0.00  0.00    +0.041 C 
ATOM     14  C   UNL     1      33.656 -21.848 -19.535  0.00  0.00    +0.139 C 
ATOM     15  C   UNL     1      33.117 -20.855 -20.353  0.00  0.00    +0.040 C 
ATOM     16  C   UNL     1      35.039 -21.969 -19.402  0.00  0.00    +0.040 C 
BRANCH  14  17
ATOM     17  O   UNL     1      32.831 -22.702 -18.867  0.00  0.00    -0.471 OA
ATOM     18  C   UNL     1      33.311 -23.238 -17.635  0.00  0.00    +0.252 C 
ENDBRANCH  14  17
ENDBRANCH  10  11
ENDBRANCH   8  10
ENDBRANCH   1   2
BRANCH   1  19
ATOM     19  C   UNL     1      33.613 -12.769 -23.268  0.00  0.00    +0.227 C 
BRANCH  19  20
ATOM     20  O   UNL     1      34.141 -11.749 -24.115  0.00  0.00    -0.474 OA
BRANCH  20  24
ATOM     21  C   UNL     1      33.172  -7.823 -23.181  0.00  0.00    -0.021 C 
ATOM     22  C   UNL     1      32.268  -8.849 -22.905  0.00  0.00    -0.001 C 
ATOM     23  C   UNL     1      34.402  -8.117 -23.771  0.00  0.00    -0.001 C 
ATOM     24  C   UNL     1      33.823 -10.462 -23.809  0.00  0.00    +0.139 C 
ATOM     25  C   UNL     1      32.593 -10.168 -23.219  0.00  0.00    +0.037 C 
ATOM     26  C   UNL     1      34.726  -9.436 -24.086  0.00  0.00    +0.037 C 
BRANCH  21  27
ATOM     27  C   UNL     1      32.820  -6.398 -22.842  0.00  0.00    +0.047 C 
BRANCH  27  32
ATOM     28  S   UNL     1      32.895  -5.136 -25.289  0.00  0.00    -0.048 S 
ATOM     29  O   UNL     1      30.442  -4.634 -22.353  0.00  0.00    -0.274 OA
ATOM     30  O   UNL     1      32.594  -2.596 -25.894  0.00  0.00    -0.263 OA
ATOM     31  N   UNL     1      31.414  -3.443 -24.081  0.00  0.00    -0.246 N 
ATOM     32  C   UNL     1      31.919  -5.771 -23.891  0.00  0.00    +0.137 C 
ATOM     33  C   UNL     1      31.171  -4.579 -23.337  0.00  0.00    +0.239 C 
ATOM     34  C   UNL     1      32.275  -3.506 -25.144  0.00  0.00    +0.279 C 
ATOM     35  H   UNL     1      30.972  -2.594 -23.849  0.00  0.00    +0.158 HD
ENDBRANCH  27  32
ENDBRANCH  21  27
ENDBRANCH  20  24
ENDBRANCH  19  20
ENDBRANCH   1  19
TORSDOF 9
ENDMDL
MODEL 5
REMARK VINA RESULT:     -11.5      3.779     12.420
REMARK  Name = 9826451
REMARK  9 active torsions:
REMARK  status: ('A' for Active; 'I' for Inactive)
REMARK    1  A    between atoms: C_1  and  N_2
REMARK    2  A    between atoms: C_1  and  C_19
REMARK    3  A    between atoms: C_8  and  O_10
REMARK    4  A    between atoms: O_10  and  C_11
REMARK    5  A    between atoms: C_14  and  O_17
REMARK    6  A    between atoms: C_19  and  O_20
REMARK    7  A    between atoms: O_20  and  C_24
REMARK    8  A    between atoms: C_21  and  C_27
REMARK    9  A    between atoms: C_27  and  C_32
REMARK                            x       y       z     vdW  Elec       q    Type
REMARK                         _______ _______ _______ _____ _____    ______ ____
ROOT
ATOM      1  C   UNL     1      33.306 -13.645 -23.902  0.00  0.00    +0.139 C 
ENDROOT
BRANCH   1   2
ATOM      2  N   UNL     1      33.406 -12.215 -23.730  0.00  0.00    -0.291 N 
ATOM      3  C   UNL     1      34.294 -11.464 -24.618  0.00  0.00    +0.113 C 
ATOM      4  N   UNL     1      31.873 -12.263 -21.926  0.00  0.00    -0.233 NA
ATOM      5  N   UNL     1      31.295 -10.215 -20.797  0.00  0.00    -0.214 NA
ATOM      6  C   UNL     1      32.685 -11.548 -22.732  0.00  0.00    +0.115 C 
ATOM      7  C   UNL     1      32.852 -10.181 -22.632  0.00  0.00    +0.146 C 
ATOM      8  C   UNL     1      32.124  -9.562 -21.636  0.00  0.00    +0.210 C 
ATOM      9  C   UNL     1      31.218 -11.544 -20.995  0.00  0.00    +0.254 C 
BRANCH   8  10
ATOM     10  O   UNL     1      32.235  -8.206 -21.473  0.00  0.00    -0.440 OA
BRANCH  10  11
ATOM     11  C   UNL     1      32.421  -7.443 -22.609  0.00  0.00    +0.147 C 
ATOM     12  C   UNL     1      33.704  -7.033 -22.972  0.00  0.00    +0.041 C 
ATOM     13  C   UNL     1      31.325  -7.084 -23.394  0.00  0.00    +0.041 C 
ATOM     14  C   UNL     1      32.795  -5.903 -24.904  0.00  0.00    +0.139 C 
ATOM     15  C   UNL     1      33.891  -6.263 -24.120  0.00  0.00    +0.040 C 
ATOM     16  C   UNL     1      31.512  -6.315 -24.541  0.00  0.00    +0.040 C 
BRANCH  14  17
ATOM     17  O   UNL     1      32.977  -5.153 -26.025  0.00  0.00    -0.471 OA
ATOM     18  C   UNL     1      34.288  -4.638 -26.257  0.00  0.00    +0.252 C 
ENDBRANCH  14  17
ENDBRANCH  10  11
ENDBRANCH   8  10
ENDBRANCH   1   2
BRANCH   1  19
ATOM     19  C   UNL     1      34.209 -14.354 -22.907  0.00  0.00    +0.227 C 
BRANCH  19  20
ATOM     20  O   UNL     1      35.042 -15.282 -23.598  0.00  0.00    -0.474 OA
BRANCH  20  24
ATOM     21  C   UNL     1      35.161 -19.167 -22.142  0.00  0.00    -0.021 C 
ATOM     22  C   UNL     1      35.378 -18.092 -21.280  0.00  0.00    -0.001 C 
ATOM     23  C   UNL     1      34.904 -18.936 -23.494  0.00  0.00    -0.001 C 
ATOM     24  C   UNL     1      35.082 -16.556 -23.120  0.00  0.00    +0.139 C 
ATOM     25  C   UNL     1      35.338 -16.787 -21.768  0.00  0.00    +0.037 C 
ATOM     26  C   UNL     1      34.865 -17.631 -23.982  0.00  0.00    +0.037 C 
BRANCH  21  27
ATOM     27  C   UNL     1      35.203 -20.577 -21.613  0.00  0.00    +0.047 C 
BRANCH  27  32
ATOM     28  S   UNL     1      35.491 -21.954 -19.244  0.00  0.00    -0.048 S 
ATOM     29  O   UNL     1      32.306 -20.470 -20.840  0.00  0.00    -0.274 OA
ATOM     30  O   UNL     1      34.007 -23.856 -18.201  0.00  0.00    -0.263 OA
ATOM     31  N   UNL     1      32.964 -22.230 -19.491  0.00  0.00    -0.246 N 
ATOM     32  C   UNL     1      34.630 -20.674 -20.210  0.00  0.00    +0.137 C 
ATOM     33  C   UNL     1      33.175 -21.087 -20.235  0.00  0.00    +0.239 C 
ATOM     34  C   UNL     1      34.028 -22.845 -18.886  0.00  0.00    +0.279 C 
ATOM     35  H   UNL     1      32.057 -22.601 -19.399  0.00  0.00    +0.158 HD
ENDBRANCH  27  32
ENDBRANCH  21  27
ENDBRANCH  20  24
ENDBRANCH  19  20
ENDBRANCH   1  19
TORSDOF 9
ENDMDL
MODEL 6
REMARK VINA RESULT:     -11.2      4.173     12.587
REMARK  Name = 9826451
REMARK  9 active torsions:
REMARK  status: ('A' for Active; 'I' for Inactive)
REMARK    1  A    between atoms: C_1  and  N_2
REMARK    2  A    between atoms: C_1  and  C_19
REMARK    3  A    between atoms: C_8  and  O_10
REMARK    4  A    between atoms: O_10  and  C_11
REMARK    5  A    between atoms: C_14  and  O_17
REMARK    6  A    between atoms: C_19  and  O_20
REMARK    7  A    between atoms: O_20  and  C_24
REMARK    8  A    between atoms: C_21  and  C_27
REMARK    9  A    between atoms: C_27  and  C_32
REMARK                            x       y       z     vdW  Elec       q    Type
REMARK                         _______ _______ _______ _____ _____    ______ ____
ROOT
ATOM      1  C   UNL     1      35.625 -17.217 -22.447  0.00  0.00    +0.139 C 
ENDROOT
BRANCH   1   2
ATOM      2  N   UNL     1      34.934 -16.025 -22.015  0.00  0.00    -0.291 N 
ATOM      3  C   UNL     1      34.937 -15.693 -20.590  0.00  0.00    +0.113 C 
ATOM      4  N   UNL     1      34.274 -15.528 -24.235  0.00  0.00    -0.233 NA
ATOM      5  N   UNL     1      32.939 -13.571 -24.672  0.00  0.00    -0.214 NA
ATOM      6  C   UNL     1      34.261 -15.200 -22.926  0.00  0.00    +0.115 C 
ATOM      7  C   UNL     1      33.617 -14.089 -22.421  0.00  0.00    +0.146 C 
ATOM      8  C   UNL     1      32.966 -13.302 -23.351  0.00  0.00    +0.210 C 
ATOM      9  C   UNL     1      33.603 -14.683 -25.040  0.00  0.00    +0.254 C 
BRANCH   8  10
ATOM     10  O   UNL     1      32.303 -12.180 -22.929  0.00  0.00    -0.440 OA
BRANCH  10  11
ATOM     11  C   UNL     1      32.946 -10.968 -23.084  0.00  0.00    +0.147 C 
ATOM     12  C   UNL     1      32.469  -9.835 -22.425  0.00  0.00    +0.041 C 
ATOM     13  C   UNL     1      34.074 -10.876 -23.901  0.00  0.00    +0.041 C 
ATOM     14  C   UNL     1      34.246  -8.520 -23.398  0.00  0.00    +0.139 C 
ATOM     15  C   UNL     1      33.119  -8.611 -22.582  0.00  0.00    +0.040 C 
ATOM     16  C   UNL     1      34.723  -9.653 -24.058  0.00  0.00    +0.040 C 
BRANCH  14  17
ATOM     17  O   UNL     1      34.881  -7.325 -23.551  0.00  0.00    -0.471 OA
ATOM     18  C   UNL     1      34.282  -6.379 -24.435  0.00  0.00    +0.252 C 
ENDBRANCH  14  17
ENDBRANCH  10  11
ENDBRANCH   8  10
ENDBRANCH   1   2
BRANCH   1  19
ATOM     19  C   UNL     1      35.565 -18.277 -21.360  0.00  0.00    +0.227 C 
BRANCH  19  20
ATOM     20  O   UNL     1      34.666 -19.311 -21.755  0.00  0.00    -0.474 OA
BRANCH  20  24
ATOM     21  C   UNL     1      33.933 -22.332 -19.005  0.00  0.00    -0.021 C 
ATOM     22  C   UNL     1      32.867 -21.663 -19.606  0.00  0.00    -0.001 C 
ATOM     23  C   UNL     1      35.246 -21.986 -19.328  0.00  0.00    -0.001 C 
ATOM     24  C   UNL     1      34.425 -20.302 -20.853  0.00  0.00    +0.139 C 
ATOM     25  C   UNL     1      33.113 -20.648 -20.530  0.00  0.00    +0.037 C 
ATOM     26  C   UNL     1      35.491 -20.971 -20.251  0.00  0.00    +0.037 C 
BRANCH  21  27
ATOM     27  C   UNL     1      33.667 -23.429 -18.006  0.00  0.00    +0.047 C 
BRANCH  27  32
ATOM     28  S   UNL     1      34.173 -23.596 -15.304  0.00  0.00    -0.048 S 
ATOM     29  O   UNL     1      30.836 -22.955 -17.132  0.00  0.00    -0.274 OA
ATOM     30  O   UNL     1      32.826 -24.809 -13.401  0.00  0.00    -0.263 OA
ATOM     31  N   UNL     1      31.644 -23.927 -15.195  0.00  0.00    -0.246 N 
ATOM     32  C   UNL     1      33.206 -22.879 -16.668  0.00  0.00    +0.137 C 
ATOM     33  C   UNL     1      31.766 -23.243 -16.387  0.00  0.00    +0.239 C 
ATOM     34  C   UNL     1      32.767 -24.214 -14.466  0.00  0.00    +0.279 C 
ATOM     35  H   UNL     1      30.756 -24.206 -14.872  0.00  0.00    +0.158 HD
ENDBRANCH  27  32
ENDBRANCH  21  27
ENDBRANCH  20  24
ENDBRANCH  19  20
ENDBRANCH   1  19
TORSDOF 9
ENDMDL
MODEL 7
REMARK VINA RESULT:     -11.1      5.630     13.853
REMARK  Name = 9826451
REMARK  9 active torsions:
REMARK  status: ('A' for Active; 'I' for Inactive)
REMARK    1  A    between atoms: C_1  and  N_2
REMARK    2  A    between atoms: C_1  and  C_19
REMARK    3  A    between atoms: C_8  and  O_10
REMARK    4  A    between atoms: O_10  and  C_11
REMARK    5  A    between atoms: C_14  and  O_17
REMARK    6  A    between atoms: C_19  and  O_20
REMARK    7  A    between atoms: O_20  and  C_24
REMARK    8  A    between atoms: C_21  and  C_27
REMARK    9  A    between atoms: C_27  and  C_32
REMARK                            x       y       z     vdW  Elec       q    Type
REMARK                         _______ _______ _______ _____ _____    ______ ____
ROOT
ATOM      1  C   UNL     1      34.784 -21.616 -19.087  0.00  0.00    +0.139 C 
ENDROOT
BRANCH   1   2
ATOM      2  N   UNL     1      34.313 -20.890 -20.242  0.00  0.00    -0.291 N 
ATOM      3  C   UNL     1      32.911 -21.035 -20.637  0.00  0.00    +0.113 C 
ATOM      4  N   UNL     1      36.457 -19.951 -20.602  0.00  0.00    -0.233 NA
ATOM      5  N   UNL     1      36.810 -18.460 -22.462  0.00  0.00    -0.214 NA
ATOM      6  C   UNL     1      35.169 -20.069 -20.987  0.00  0.00    +0.115 C 
ATOM      7  C   UNL     1      34.636 -19.423 -22.084  0.00  0.00    +0.146 C 
ATOM      8  C   UNL     1      35.512 -18.623 -22.791  0.00  0.00    +0.210 C 
ATOM      9  C   UNL     1      37.210 -19.143 -21.373  0.00  0.00    +0.254 C 
BRANCH   8  10
ATOM     10  O   UNL     1      35.059 -17.947 -23.893  0.00  0.00    -0.440 OA
BRANCH  10  11
ATOM     11  C   UNL     1      34.669 -16.635 -23.716  0.00  0.00    +0.147 C 
ATOM     12  C   UNL     1      33.954 -15.978 -24.718  0.00  0.00    +0.041 C 
ATOM     13  C   UNL     1      34.989 -15.966 -22.534  0.00  0.00    +0.041 C 
ATOM     14  C   UNL     1      33.880 -13.984 -23.358  0.00  0.00    +0.139 C 
ATOM     15  C   UNL     1      33.560 -14.653 -24.539  0.00  0.00    +0.040 C 
ATOM     16  C   UNL     1      34.594 -14.641 -22.355  0.00  0.00    +0.040 C 
BRANCH  14  17
ATOM     17  O   UNL     1      33.495 -12.690 -23.182  0.00  0.00    -0.471 OA
ATOM     18  C   UNL     1      33.882 -11.754 -24.187  0.00  0.00    +0.252 C 
ENDBRANCH  14  17
ENDBRANCH  10  11
ENDBRANCH   8  10
ENDBRANCH   1   2
BRANCH   1  19
ATOM     19  C   UNL     1      33.637 -22.383 -18.451  0.00  0.00    +0.227 C 
BRANCH  19  20
ATOM     20  O   UNL     1      34.129 -23.601 -17.896  0.00  0.00    -0.474 OA
BRANCH  20  24
ATOM     21  C   UNL     1      36.062 -23.365 -14.231  0.00  0.00    -0.021 C 
ATOM     22  C   UNL     1      34.812 -23.978 -14.322  0.00  0.00    -0.001 C 
ATOM     23  C   UNL     1      36.662 -22.832 -15.371  0.00  0.00    -0.001 C 
ATOM     24  C   UNL     1      34.763 -23.523 -16.694  0.00  0.00    +0.139 C 
ATOM     25  C   UNL     1      34.162 -24.057 -15.553  0.00  0.00    +0.037 C 
ATOM     26  C   UNL     1      36.012 -22.910 -16.602  0.00  0.00    +0.037 C 
BRANCH  21  27
ATOM     27  C   UNL     1      36.763 -23.280 -12.899  0.00  0.00    +0.047 C 
BRANCH  27  32
ATOM     28  S   UNL     1      38.474 -25.001 -14.203  0.00  0.00    -0.048 S 
ATOM     29  O   UNL     1      36.183 -25.662 -11.169  0.00  0.00    -0.274 OA
ATOM     30  O   UNL     1      38.129 -27.502 -14.931  0.00  0.00    -0.263 OA
ATOM     31  N   UNL     1      37.076 -26.764 -12.997  0.00  0.00    -0.246 N 
ATOM     32  C   UNL     1      37.670 -24.474 -12.658  0.00  0.00    +0.137 C 
ATOM     33  C   UNL     1      36.887 -25.674 -12.173  0.00  0.00    +0.239 C 
ATOM     34  C   UNL     1      37.867 -26.639 -14.108  0.00  0.00    +0.279 C 
ATOM     35  H   UNL     1      36.645 -27.624 -12.787  0.00  0.00    +0.158 HD
ENDBRANCH  27  32
ENDBRANCH  21  27
ENDBRANCH  20  24
ENDBRANCH  19  20
ENDBRANCH   1  19
TORSDOF 9
ENDMDL
MODEL 8
REMARK VINA RESULT:     -11.0      5.885     10.383
REMARK  Name = 9826451
REMARK  9 active torsions:
REMARK  status: ('A' for Active; 'I' for Inactive)
REMARK    1  A    between atoms: C_1  and  N_2
REMARK    2  A    between atoms: C_1  and  C_19
REMARK    3  A    between atoms: C_8  and  O_10
REMARK    4  A    between atoms: O_10  and  C_11
REMARK    5  A    between atoms: C_14  and  O_17
REMARK    6  A    between atoms: C_19  and  O_20
REMARK    7  A    between atoms: O_20  and  C_24
REMARK    8  A    between atoms: C_21  and  C_27
REMARK    9  A    between atoms: C_27  and  C_32
REMARK                            x       y       z     vdW  Elec       q    Type
REMARK                         _______ _______ _______ _____ _____    ______ ____
ROOT
ATOM      1  C   UNL     1      36.320 -23.029 -16.814  0.00  0.00    +0.139 C 
ENDROOT
BRANCH   1   2
ATOM      2  N   UNL     1      34.955 -23.288 -16.422  0.00  0.00    -0.291 N 
ATOM      3  C   UNL     1      33.901 -23.160 -17.431  0.00  0.00    +0.113 C 
ATOM      4  N   UNL     1      35.617 -23.755 -14.197  0.00  0.00    -0.233 NA
ATOM      5  N   UNL     1      33.953 -24.336 -12.554  0.00  0.00    -0.214 NA
ATOM      6  C   UNL     1      34.627 -23.643 -15.107  0.00  0.00    +0.115 C 
ATOM      7  C   UNL     1      33.295 -23.859 -14.820  0.00  0.00    +0.146 C 
ATOM      8  C   UNL     1      33.014 -24.207 -13.514  0.00  0.00    +0.210 C 
ATOM      9  C   UNL     1      35.215 -24.099 -12.959  0.00  0.00    +0.254 C 
BRANCH   8  10
ATOM     10  O   UNL     1      31.714 -24.439 -13.149  0.00  0.00    -0.440 OA
BRANCH  10  11
ATOM     11  C   UNL     1      30.755 -24.373 -14.141  0.00  0.00    +0.147 C 
ATOM     12  C   UNL     1      30.262 -23.135 -14.553  0.00  0.00    +0.041 C 
ATOM     13  C   UNL     1      30.280 -25.545 -14.731  0.00  0.00    +0.041 C 
ATOM     14  C   UNL     1      28.820 -24.240 -16.145  0.00  0.00    +0.139 C 
ATOM     15  C   UNL     1      29.294 -23.069 -15.555  0.00  0.00    +0.040 C 
ATOM     16  C   UNL     1      29.313 -25.478 -15.733  0.00  0.00    +0.040 C 
BRANCH  14  17
ATOM     17  O   UNL     1      27.875 -24.176 -17.123  0.00  0.00    -0.471 OA
ATOM     18  C   UNL     1      27.451 -22.876 -17.532  0.00  0.00    +0.252 C 
ENDBRANCH  14  17
ENDBRANCH  10  11
ENDBRANCH   8  10
ENDBRANCH   1   2
BRANCH   1  19
ATOM     19  C   UNL     1      36.387 -21.774 -17.667  0.00  0.00    +0.227 C 
BRANCH  19  20
ATOM     20  O   UNL     1      36.056 -22.098 -19.016  0.00  0.00    -0.474 OA
BRANCH  20  24
ATOM     21  C   UNL     1      36.115 -19.001 -21.778  0.00  0.00    -0.021 C 
ATOM     22  C   UNL     1      37.288 -19.371 -21.121  0.00  0.00    -0.001 C 
ATOM     23  C   UNL     1      34.922 -19.672 -21.507  0.00  0.00    -0.001 C 
ATOM     24  C   UNL     1      36.076 -21.082 -19.922  0.00  0.00    +0.139 C 
ATOM     25  C   UNL     1      37.269 -20.411 -20.192  0.00  0.00    +0.037 C 
ATOM     26  C   UNL     1      34.903 -20.711 -20.579  0.00  0.00    +0.037 C 
BRANCH  21  27
ATOM     27  C   UNL     1      36.137 -17.876 -22.781  0.00  0.00    +0.047 C 
BRANCH  27  32
ATOM     28  S   UNL     1      34.221 -18.075 -24.750  0.00  0.00    -0.048 S 
ATOM     29  O   UNL     1      35.004 -15.125 -22.388  0.00  0.00    -0.274 OA
ATOM     30  O   UNL     1      33.485 -16.335 -26.577  0.00  0.00    -0.263 OA
ATOM     31  N   UNL     1      34.208 -15.531 -24.521  0.00  0.00    -0.246 N 
ATOM     32  C   UNL     1      34.738 -17.407 -23.138  0.00  0.00    +0.137 C 
ATOM     33  C   UNL     1      34.678 -15.902 -23.278  0.00  0.00    +0.239 C 
ATOM     34  C   UNL     1      33.905 -16.499 -25.442  0.00  0.00    +0.279 C 
ATOM     35  H   UNL     1      34.094 -14.579 -24.744  0.00  0.00    +0.158 HD
ENDBRANCH  27  32
ENDBRANCH  21  27
ENDBRANCH  20  24
ENDBRANCH  19  20
ENDBRANCH   1  19
TORSDOF 9
ENDMDL
MODEL 9
REMARK VINA RESULT:     -10.9      7.101     13.862
REMARK  Name = 9826451
REMARK  9 active torsions:
REMARK  status: ('A' for Active; 'I' for Inactive)
REMARK    1  A    between atoms: C_1  and  N_2
REMARK    2  A    between atoms: C_1  and  C_19
REMARK    3  A    between atoms: C_8  and  O_10
REMARK    4  A    between atoms: O_10  and  C_11
REMARK    5  A    between atoms: C_14  and  O_17
REMARK    6  A    between atoms: C_19  and  O_20
REMARK    7  A    between atoms: O_20  and  C_24
REMARK    8  A    between atoms: C_21  and  C_27
REMARK    9  A    between atoms: C_27  and  C_32
REMARK                            x       y       z     vdW  Elec       q    Type
REMARK                         _______ _______ _______ _____ _____    ______ ____
ROOT
ATOM      1  C   UNL     1      33.642 -22.733 -19.600  0.00  0.00    +0.139 C 
ENDROOT
BRANCH   1   2
ATOM      2  N   UNL     1      33.700 -21.387 -20.118  0.00  0.00    -0.291 N 
ATOM      3  C   UNL     1      32.446 -20.715 -20.462  0.00  0.00    +0.113 C 
ATOM      4  N   UNL     1      36.065 -21.371 -19.981  0.00  0.00    -0.233 NA
ATOM      5  N   UNL     1      37.287 -19.418 -20.683  0.00  0.00    -0.214 NA
ATOM      6  C   UNL     1      34.923 -20.729 -20.306  0.00  0.00    +0.115 C 
ATOM      7  C   UNL     1      34.884 -19.448 -20.818  0.00  0.00    +0.146 C 
ATOM      8  C   UNL     1      36.109 -18.835 -20.987  0.00  0.00    +0.210 C 
ATOM      9  C   UNL     1      37.193 -20.667 -20.192  0.00  0.00    +0.254 C 
BRANCH   8  10
ATOM     10  O   UNL     1      36.155 -17.562 -21.491  0.00  0.00    -0.440 OA
BRANCH  10  11
ATOM     11  C   UNL     1      35.489 -17.324 -22.677  0.00  0.00    +0.147 C 
ATOM     12  C   UNL     1      35.256 -18.371 -23.568  0.00  0.00    +0.041 C 
ATOM     13  C   UNL     1      35.050 -16.036 -22.984  0.00  0.00    +0.041 C 
ATOM     14  C   UNL     1      34.144 -16.844 -25.073  0.00  0.00    +0.139 C 
ATOM     15  C   UNL     1      34.584 -18.132 -24.766  0.00  0.00    +0.040 C 
ATOM     16  C   UNL     1      34.377 -15.796 -24.181  0.00  0.00    +0.040 C 
BRANCH  14  17
ATOM     17  O   UNL     1      33.487 -16.609 -26.242  0.00  0.00    -0.471 OA
ATOM     18  C   UNL     1      33.247 -15.247 -26.590  0.00  0.00    +0.252 C 
ENDBRANCH  14  17
ENDBRANCH  10  11
ENDBRANCH   8  10
ENDBRANCH   1   2
BRANCH   1  19
ATOM     19  C   UNL     1      33.205 -22.713 -18.145  0.00  0.00    +0.227 C 
BRANCH  19  20
ATOM     20  O   UNL     1      33.648 -23.906 -17.500  0.00  0.00    -0.474 OA
BRANCH  20  24
ATOM     21  C   UNL     1      35.984 -23.460 -14.098  0.00  0.00    -0.021 C 
ATOM     22  C   UNL     1      34.811 -24.213 -14.045  0.00  0.00    -0.001 C 
ATOM     23  C   UNL     1      36.373 -22.858 -15.295  0.00  0.00    -0.001 C 
ATOM     24  C   UNL     1      34.414 -23.759 -16.384  0.00  0.00    +0.139 C 
ATOM     25  C   UNL     1      34.025 -24.362 -15.187  0.00  0.00    +0.037 C 
ATOM     26  C   UNL     1      35.587 -23.007 -16.437  0.00  0.00    +0.037 C 
BRANCH  21  27
ATOM     27  C   UNL     1      36.832 -23.299 -12.863  0.00  0.00    +0.047 C 
BRANCH  27  32
ATOM     28  S   UNL     1      38.525 -25.020 -14.191  0.00  0.00    -0.048 S 
ATOM     29  O   UNL     1      36.261 -25.687 -11.138  0.00  0.00    -0.274 OA
ATOM     30  O   UNL     1      38.164 -27.517 -14.926  0.00  0.00    -0.263 OA
ATOM     31  N   UNL     1      37.133 -26.784 -12.978  0.00  0.00    -0.246 N 
ATOM     32  C   UNL     1      37.737 -24.497 -12.636  0.00  0.00    +0.137 C 
ATOM     33  C   UNL     1      36.956 -25.697 -12.148  0.00  0.00    +0.239 C 
ATOM     34  C   UNL     1      37.913 -26.657 -14.097  0.00  0.00    +0.279 C 
ATOM     35  H   UNL     1      36.701 -27.644 -12.769  0.00  0.00    +0.158 HD
ENDBRANCH  27  32
ENDBRANCH  21  27
ENDBRANCH  20  24
ENDBRANCH  19  20
ENDBRANCH   1  19
TORSDOF 9
ENDMDL
