MODEL 1
REMARK VINA RESULT:     -11.6      0.000      0.000
REMARK  Name = 6918151
REMARK  4 active torsions:
REMARK  status: ('A' for Active; 'I' for Inactive)
REMARK    1  A    between atoms: C_2  and  C_11
REMARK    2  A    between atoms: C_7  and  C_18
REMARK    3  A    between atoms: C_11  and  C_12
REMARK    4  A    between atoms: C_18  and  C_23
REMARK                            x       y       z     vdW  Elec       q    Type
REMARK                         _______ _______ _______ _____ _____    ______ ____
ROOT
ATOM      1  O   UNL     1      36.017 -20.021 -20.714  0.00  0.00    -0.479 OA
ATOM      2  C   UNL     1      35.195 -19.033 -21.353  0.00  0.00    +0.171 C 
ATOM      3  C   UNL     1      33.982 -19.670 -22.027  0.00  0.00    +0.049 C 
ATOM      4  C   UNL     1      33.111 -20.330 -20.964  0.00  0.00    +0.033 C 
ATOM      5  C   UNL     1      33.955 -21.127 -20.013  0.00  0.00    +0.012 C 
ATOM      6  C   UNL     1      35.339 -20.923 -19.934  0.00  0.00    +0.134 C 
ATOM      7  C   UNL     1      34.131 -22.822 -18.283  0.00  0.00    -0.021 C 
ATOM      8  C   UNL     1      33.356 -22.073 -19.171  0.00  0.00    -0.006 C 
ATOM      9  C   UNL     1      36.115 -21.682 -19.054  0.00  0.00    +0.036 C 
ATOM     10  C   UNL     1      35.510 -22.628 -18.228  0.00  0.00    -0.001 C 
ENDROOT
BRANCH   2  11
ATOM     11  C   UNL     1      36.067 -18.315 -22.376  0.00  0.00    +0.070 C 
BRANCH  11  12
ATOM     12  C   UNL     1      35.310 -17.223 -23.084  0.00  0.00    -0.019 C 
ATOM     13  C   UNL     1      34.859 -17.435 -24.381  0.00  0.00    -0.004 C 
ATOM     14  C   UNL     1      35.073 -16.021 -22.433  0.00  0.00    -0.004 C 
ATOM     15  C   UNL     1      34.157 -16.424 -25.037  0.00  0.00    -0.000 C 
ATOM     16  C   UNL     1      34.371 -15.010 -23.089  0.00  0.00    -0.000 C 
ATOM     17  C   UNL     1      33.914 -15.211 -24.391  0.00  0.00    -0.000 C 
ENDBRANCH  11  12
ENDBRANCH   2  11
BRANCH   7  18
ATOM     18  C   UNL     1      33.483 -23.830 -17.396  0.00  0.00    +0.047 C 
BRANCH  18  23
ATOM     19  S   UNL     1      33.418 -24.066 -14.647  0.00  0.00    -0.048 S 
ATOM     20  O   UNL     1      30.659 -22.853 -17.059  0.00  0.00    -0.274 OA
ATOM     21  O   UNL     1      31.537 -25.014 -13.073  0.00  0.00    -0.263 OA
ATOM     22  N   UNL     1      30.895 -23.944 -15.033  0.00  0.00    -0.246 N 
ATOM     23  C   UNL     1      32.872 -23.197 -16.148  0.00  0.00    +0.137 C 
ATOM     24  C   UNL     1      31.364 -23.298 -16.158  0.00  0.00    +0.239 C 
ATOM     25  C   UNL     1      31.790 -24.422 -14.111  0.00  0.00    +0.279 C 
ATOM     26  H   UNL     1      29.928 -24.061 -14.894  0.00  0.00    +0.158 HD
ENDBRANCH  18  23
ENDBRANCH   7  18
TORSDOF 4
ENDMDL
MODEL 2
REMARK VINA RESULT:     -11.6      1.032      2.035
REMARK  Name = 6918151
REMARK  4 active torsions:
REMARK  status: ('A' for Active; 'I' for Inactive)
REMARK    1  A    between atoms: C_2  and  C_11
REMARK    2  A    between atoms: C_7  and  C_18
REMARK    3  A    between atoms: C_11  and  C_12
REMARK    4  A    between atoms: C_18  and  C_23
REMARK                            x       y       z     vdW  Elec       q    Type
REMARK                         _______ _______ _______ _____ _____    ______ ____
ROOT
ATOM      1  O   UNL     1      34.620 -19.468 -21.331  0.00  0.00    -0.479 OA
ATOM      2  C   UNL     1      35.953 -19.406 -21.858  0.00  0.00    +0.171 C 
ATOM      3  C   UNL     1      36.996 -19.548 -20.750  0.00  0.00    +0.049 C 
ATOM      4  C   UNL     1      36.853 -20.921 -20.104  0.00  0.00    +0.033 C 
ATOM      5  C   UNL     1      35.409 -21.225 -19.829  0.00  0.00    +0.012 C 
ATOM      6  C   UNL     1      34.388 -20.500 -20.458  0.00  0.00    +0.134 C 
ATOM      7  C   UNL     1      33.730 -22.555 -18.688  0.00  0.00    -0.021 C 
ATOM      8  C   UNL     1      35.069 -22.264 -18.952  0.00  0.00    -0.006 C 
ATOM      9  C   UNL     1      33.049 -20.785 -20.182  0.00  0.00    +0.036 C 
ATOM     10  C   UNL     1      32.721 -21.813 -19.300  0.00  0.00    -0.001 C 
ENDROOT
BRANCH   2  11
ATOM     11  C   UNL     1      36.097 -18.065 -22.567  0.00  0.00    +0.070 C 
BRANCH  11  12
ATOM     12  C   UNL     1      35.138 -17.939 -23.720  0.00  0.00    -0.019 C 
ATOM     13  C   UNL     1      34.820 -16.679 -24.210  0.00  0.00    -0.004 C 
ATOM     14  C   UNL     1      34.584 -19.083 -24.277  0.00  0.00    -0.004 C 
ATOM     15  C   UNL     1      33.931 -16.562 -25.279  0.00  0.00    -0.000 C 
ATOM     16  C   UNL     1      33.695 -18.966 -25.346  0.00  0.00    -0.000 C 
ATOM     17  C   UNL     1      33.368 -17.706 -25.846  0.00  0.00    -0.000 C 
ENDBRANCH  11  12
ENDBRANCH   2  11
BRANCH   7  18
ATOM     18  C   UNL     1      33.379 -23.658 -17.748  0.00  0.00    +0.047 C 
BRANCH  18  23
ATOM     19  S   UNL     1      33.756 -24.006 -15.036  0.00  0.00    -0.048 S 
ATOM     20  O   UNL     1      30.561 -22.984 -16.945  0.00  0.00    -0.274 OA
ATOM     21  O   UNL     1      32.234 -25.197 -13.254  0.00  0.00    -0.263 OA
ATOM     22  N   UNL     1      31.204 -24.123 -15.037  0.00  0.00    -0.246 N 
ATOM     23  C   UNL     1      32.909 -23.139 -16.392  0.00  0.00    +0.137 C 
ATOM     24  C   UNL     1      31.433 -23.390 -16.184  0.00  0.00    +0.239 C 
ATOM     25  C   UNL     1      32.269 -24.544 -14.285  0.00  0.00    +0.279 C 
ATOM     26  H   UNL     1      30.284 -24.341 -14.763  0.00  0.00    +0.158 HD
ENDBRANCH  18  23
ENDBRANCH   7  18
TORSDOF 4
ENDMDL
MODEL 3
REMARK VINA RESULT:     -11.0      3.636      6.300
REMARK  Name = 6918151
REMARK  4 active torsions:
REMARK  status: ('A' for Active; 'I' for Inactive)
REMARK    1  A    between atoms: C_2  and  C_11
REMARK    2  A    between atoms: C_7  and  C_18
REMARK    3  A    between atoms: C_11  and  C_12
REMARK    4  A    between atoms: C_18  and  C_23
REMARK                            x       y       z     vdW  Elec       q    Type
REMARK                         _______ _______ _______ _____ _____    ______ ____
ROOT
ATOM      1  O   UNL     1      34.307 -15.041 -23.930  0.00  0.00    -0.479 OA
ATOM      2  C   UNL     1      34.208 -13.738 -23.337  0.00  0.00    +0.171 C 
ATOM      3  C   UNL     1      33.523 -13.798 -21.973  0.00  0.00    +0.049 C 
ATOM      4  C   UNL     1      34.372 -14.637 -21.025  0.00  0.00    +0.033 C 
ATOM      5  C   UNL     1      34.825 -15.898 -21.702  0.00  0.00    +0.012 C 
ATOM      6  C   UNL     1      34.779 -16.023 -23.097  0.00  0.00    +0.134 C 
ATOM      7  C   UNL     1      35.749 -18.138 -21.556  0.00  0.00    -0.021 C 
ATOM      8  C   UNL     1      35.326 -16.960 -20.938  0.00  0.00    -0.006 C 
ATOM      9  C   UNL     1      35.191 -17.207 -23.713  0.00  0.00    +0.036 C 
ATOM     10  C   UNL     1      35.678 -18.262 -22.942  0.00  0.00    -0.001 C 
ENDROOT
BRANCH   2  11
ATOM     11  C   UNL     1      33.417 -12.862 -24.302  0.00  0.00    +0.070 C 
BRANCH  11  12
ATOM     12  C   UNL     1      33.654 -11.398 -24.046  0.00  0.00    -0.019 C 
ATOM     13  C   UNL     1      32.764 -10.690 -23.250  0.00  0.00    -0.004 C 
ATOM     14  C   UNL     1      34.759 -10.775 -24.611  0.00  0.00    -0.004 C 
ATOM     15  C   UNL     1      32.983  -9.333 -23.013  0.00  0.00    -0.000 C 
ATOM     16  C   UNL     1      34.978  -9.418 -24.373  0.00  0.00    -0.000 C 
ATOM     17  C   UNL     1      34.090  -8.697 -23.575  0.00  0.00    -0.000 C 
ENDBRANCH  11  12
ENDBRANCH   2  11
BRANCH   7  18
ATOM     18  C   UNL     1      36.275 -19.264 -20.732  0.00  0.00    +0.047 C 
BRANCH  18  23
ATOM     19  S   UNL     1      33.729 -20.326 -20.820  0.00  0.00    -0.048 S 
ATOM     20  O   UNL     1      37.040 -22.009 -19.773  0.00  0.00    -0.274 OA
ATOM     21  O   UNL     1      32.474 -21.864 -19.096  0.00  0.00    -0.263 OA
ATOM     22  N   UNL     1      34.777 -22.095 -19.304  0.00  0.00    -0.246 N 
ATOM     23  C   UNL     1      35.523 -20.569 -20.985  0.00  0.00    +0.137 C 
ATOM     24  C   UNL     1      35.892 -21.625 -19.969  0.00  0.00    +0.239 C 
ATOM     25  C   UNL     1      33.548 -21.561 -19.594  0.00  0.00    +0.279 C 
ATOM     26  H   UNL     1      34.864 -22.805 -18.629  0.00  0.00    +0.158 HD
ENDBRANCH  18  23
ENDBRANCH   7  18
TORSDOF 4
ENDMDL
MODEL 4
REMARK VINA RESULT:     -10.9      4.296      9.611
REMARK  Name = 6918151
REMARK  4 active torsions:
REMARK  status: ('A' for Active; 'I' for Inactive)
REMARK    1  A    between atoms: C_2  and  C_11
REMARK    2  A    between atoms: C_7  and  C_18
REMARK    3  A    between atoms: C_11  and  C_12
REMARK    4  A    between atoms: C_18  and  C_23
REMARK                            x       y       z     vdW  Elec       q    Type
REMARK                         _______ _______ _______ _____ _____    ______ ____
ROOT
ATOM      1  O   UNL     1      35.485 -23.219 -15.475  0.00  0.00    -0.479 OA
ATOM      2  C   UNL     1      34.410 -24.103 -15.124  0.00  0.00    +0.171 C 
ATOM      3  C   UNL     1      33.065 -23.562 -15.606  0.00  0.00    +0.049 C 
ATOM      4  C   UNL     1      33.076 -23.484 -17.128  0.00  0.00    +0.033 C 
ATOM      5  C   UNL     1      34.357 -22.870 -17.614  0.00  0.00    +0.012 C 
ATOM      6  C   UNL     1      35.477 -22.784 -16.776  0.00  0.00    +0.134 C 
ATOM      7  C   UNL     1      35.637 -21.825 -19.392  0.00  0.00    -0.021 C 
ATOM      8  C   UNL     1      34.451 -22.398 -18.930  0.00  0.00    -0.006 C 
ATOM      9  C   UNL     1      36.659 -22.199 -17.237  0.00  0.00    +0.036 C 
ATOM     10  C   UNL     1      36.739 -21.722 -18.545  0.00  0.00    -0.001 C 
ENDROOT
BRANCH   2  11
ATOM     11  C   UNL     1      34.423 -24.248 -13.607  0.00  0.00    +0.070 C 
BRANCH  11  12
ATOM     12  C   UNL     1      35.816 -24.457 -13.079  0.00  0.00    -0.019 C 
ATOM     13  C   UNL     1      36.340 -23.560 -12.156  0.00  0.00    -0.004 C 
ATOM     14  C   UNL     1      36.560 -25.543 -13.520  0.00  0.00    -0.004 C 
ATOM     15  C   UNL     1      37.631 -23.753 -11.667  0.00  0.00    -0.000 C 
ATOM     16  C   UNL     1      37.851 -25.736 -13.029  0.00  0.00    -0.000 C 
ATOM     17  C   UNL     1      38.387 -24.841 -12.104  0.00  0.00    -0.000 C 
ENDBRANCH  11  12
ENDBRANCH   2  11
BRANCH   7  18
ATOM     18  C   UNL     1      35.724 -21.320 -20.792  0.00  0.00    +0.047 C 
BRANCH  18  23
ATOM     19  S   UNL     1      34.232 -19.436 -22.149  0.00  0.00    -0.048 S 
ATOM     20  O   UNL     1      37.796 -19.144 -20.697  0.00  0.00    -0.274 OA
ATOM     21  O   UNL     1      34.938 -17.766 -24.053  0.00  0.00    -0.263 OA
ATOM     22  N   UNL     1      36.516 -18.330 -22.443  0.00  0.00    -0.246 N 
ATOM     23  C   UNL     1      35.481 -19.816 -20.883  0.00  0.00    +0.137 C 
ATOM     24  C   UNL     1      36.732 -19.078 -21.304  0.00  0.00    +0.239 C 
ATOM     25  C   UNL     1      35.286 -18.365 -23.046  0.00  0.00    +0.279 C 
ATOM     26  H   UNL     1      37.238 -17.777 -22.819  0.00  0.00    +0.158 HD
ENDBRANCH  18  23
ENDBRANCH   7  18
TORSDOF 4
ENDMDL
MODEL 5
REMARK VINA RESULT:     -10.7      4.176      9.226
REMARK  Name = 6918151
REMARK  4 active torsions:
REMARK  status: ('A' for Active; 'I' for Inactive)
REMARK    1  A    between atoms: C_2  and  C_11
REMARK    2  A    between atoms: C_7  and  C_18
REMARK    3  A    between atoms: C_11  and  C_12
REMARK    4  A    between atoms: C_18  and  C_23
REMARK                            x       y       z     vdW  Elec       q    Type
REMARK                         _______ _______ _______ _____ _____    ______ ____
ROOT
ATOM      1  O   UNL     1      35.338 -23.205 -16.778  0.00  0.00    -0.479 OA
ATOM      2  C   UNL     1      34.328 -24.066 -16.232  0.00  0.00    +0.171 C 
ATOM      3  C   UNL     1      32.981 -23.351 -16.134  0.00  0.00    +0.049 C 
ATOM      4  C   UNL     1      32.513 -22.976 -17.535  0.00  0.00    +0.033 C 
ATOM      5  C   UNL     1      33.638 -22.367 -18.320  0.00  0.00    +0.012 C 
ATOM      6  C   UNL     1      34.969 -22.524 -17.911  0.00  0.00    +0.134 C 
ATOM      7  C   UNL     1      34.403 -21.082 -20.232  0.00  0.00    -0.021 C 
ATOM      8  C   UNL     1      33.365 -21.653 -19.494  0.00  0.00    -0.006 C 
ATOM      9  C   UNL     1      36.006 -21.941 -18.643  0.00  0.00    +0.036 C 
ATOM     10  C   UNL     1      35.722 -21.223 -19.805  0.00  0.00    -0.001 C 
ENDROOT
BRANCH   2  11
ATOM     11  C   UNL     1      34.808 -24.507 -14.854  0.00  0.00    +0.070 C 
BRANCH  11  12
ATOM     12  C   UNL     1      36.195 -25.089 -14.908  0.00  0.00    -0.019 C 
ATOM     13  C   UNL     1      36.359 -26.442 -15.174  0.00  0.00    -0.004 C 
ATOM     14  C   UNL     1      37.291 -24.266 -14.690  0.00  0.00    -0.004 C 
ATOM     15  C   UNL     1      37.644 -26.982 -15.224  0.00  0.00    -0.000 C 
ATOM     16  C   UNL     1      38.576 -24.806 -14.740  0.00  0.00    -0.000 C 
ATOM     17  C   UNL     1      38.753 -26.163 -15.007  0.00  0.00    -0.000 C 
ENDBRANCH  11  12
ENDBRANCH   2  11
BRANCH   7  18
ATOM     18  C   UNL     1      34.100 -20.319 -21.477  0.00  0.00    +0.047 C 
BRANCH  18  23
ATOM     19  S   UNL     1      35.391 -17.901 -21.151  0.00  0.00    -0.048 S 
ATOM     20  O   UNL     1      35.075 -20.094 -24.312  0.00  0.00    -0.274 OA
ATOM     21  O   UNL     1      35.429 -15.779 -22.703  0.00  0.00    -0.263 OA
ATOM     22  N   UNL     1      35.259 -17.870 -23.703  0.00  0.00    -0.246 N 
ATOM     23  C   UNL     1      35.303 -19.520 -21.974  0.00  0.00    +0.137 C 
ATOM     24  C   UNL     1      35.197 -19.226 -23.454  0.00  0.00    +0.239 C 
ATOM     25  C   UNL     1      35.366 -16.998 -22.650  0.00  0.00    +0.279 C 
ATOM     26  H   UNL     1      35.227 -17.533 -24.627  0.00  0.00    +0.158 HD
ENDBRANCH  18  23
ENDBRANCH   7  18
TORSDOF 4
ENDMDL
MODEL 6
REMARK VINA RESULT:     -10.6      9.886     14.391
REMARK  Name = 6918151
REMARK  4 active torsions:
REMARK  status: ('A' for Active; 'I' for Inactive)
REMARK    1  A    between atoms: C_2  and  C_11
REMARK    2  A    between atoms: C_7  and  C_18
REMARK    3  A    between atoms: C_11  and  C_12
REMARK    4  A    between atoms: C_18  and  C_23
REMARK                            x       y       z     vdW  Elec       q    Type
REMARK                         _______ _______ _______ _____ _____    ______ ____
ROOT
ATOM      1  O   UNL     1      32.696 -11.726 -23.262  0.00  0.00    -0.479 OA
ATOM      2  C   UNL     1      33.896 -12.346 -23.749  0.00  0.00    +0.171 C 
ATOM      3  C   UNL     1      34.454 -11.601 -24.961  0.00  0.00    +0.049 C 
ATOM      4  C   UNL     1      34.840 -10.188 -24.542  0.00  0.00    +0.033 C 
ATOM      5  C   UNL     1      33.756  -9.571 -23.707  0.00  0.00    +0.012 C 
ATOM      6  C   UNL     1      32.766 -10.365 -23.113  0.00  0.00    +0.134 C 
ATOM      7  C   UNL     1      32.736  -7.602 -22.720  0.00  0.00    -0.021 C 
ATOM      8  C   UNL     1      33.740  -8.186 -23.493  0.00  0.00    -0.006 C 
ATOM      9  C   UNL     1      31.754  -9.777 -22.350  0.00  0.00    +0.036 C 
ATOM     10  C   UNL     1      31.742  -8.396 -22.152  0.00  0.00    -0.001 C 
ENDROOT
BRANCH   2  11
ATOM     11  C   UNL     1      33.546 -13.784 -24.112  0.00  0.00    +0.070 C 
BRANCH  11  12
ATOM     12  C   UNL     1      34.154 -14.766 -23.148  0.00  0.00    -0.019 C 
ATOM     13  C   UNL     1      34.147 -14.483 -21.788  0.00  0.00    -0.004 C 
ATOM     14  C   UNL     1      34.714 -15.941 -23.630  0.00  0.00    -0.004 C 
ATOM     15  C   UNL     1      34.711 -15.393 -20.894  0.00  0.00    -0.000 C 
ATOM     16  C   UNL     1      35.277 -16.851 -22.735  0.00  0.00    -0.000 C 
ATOM     17  C   UNL     1      35.277 -16.577 -21.368  0.00  0.00    -0.000 C 
ENDBRANCH  11  12
ENDBRANCH   2  11
BRANCH   7  18
ATOM     18  C   UNL     1      32.726  -6.127 -22.504  0.00  0.00    +0.047 C 
BRANCH  18  23
ATOM     19  S   UNL     1      32.081  -4.264 -24.436  0.00  0.00    -0.048 S 
ATOM     20  O   UNL     1      30.229  -5.126 -21.161  0.00  0.00    -0.274 OA
ATOM     21  O   UNL     1      31.240  -1.786 -24.185  0.00  0.00    -0.263 OA
ATOM     22  N   UNL     1      30.613  -3.329 -22.565  0.00  0.00    -0.246 N 
ATOM     23  C   UNL     1      31.531  -5.450 -23.172  0.00  0.00    +0.137 C 
ATOM     24  C   UNL     1      30.722  -4.649 -22.177  0.00  0.00    +0.239 C 
ATOM     25  C   UNL     1      31.239  -2.911 -23.711  0.00  0.00    +0.279 C 
ATOM     26  H   UNL     1      30.092  -2.693 -22.023  0.00  0.00    +0.158 HD
ENDBRANCH  18  23
ENDBRANCH   7  18
TORSDOF 4
ENDMDL
MODEL 7
REMARK VINA RESULT:     -10.6      3.989      9.032
REMARK  Name = 6918151
REMARK  4 active torsions:
REMARK  status: ('A' for Active; 'I' for Inactive)
REMARK    1  A    between atoms: C_2  and  C_11
REMARK    2  A    between atoms: C_7  and  C_18
REMARK    3  A    between atoms: C_11  and  C_12
REMARK    4  A    between atoms: C_18  and  C_23
REMARK                            x       y       z     vdW  Elec       q    Type
REMARK                         _______ _______ _______ _____ _____    ______ ____
ROOT
ATOM      1  O   UNL     1      35.200 -22.574 -18.467  0.00  0.00    -0.479 OA
ATOM      2  C   UNL     1      33.904 -23.189 -18.403  0.00  0.00    +0.171 C 
ATOM      3  C   UNL     1      32.791 -22.143 -18.432  0.00  0.00    +0.049 C 
ATOM      4  C   UNL     1      32.845 -21.395 -19.759  0.00  0.00    +0.033 C 
ATOM      5  C   UNL     1      34.258 -21.007 -20.087  0.00  0.00    +0.012 C 
ATOM      6  C   UNL     1      35.340 -21.618 -19.441  0.00  0.00    +0.134 C 
ATOM      7  C   UNL     1      35.816 -19.670 -21.382  0.00  0.00    -0.021 C 
ATOM      8  C   UNL     1      34.507 -20.040 -21.070  0.00  0.00    -0.006 C 
ATOM      9  C   UNL     1      36.650 -21.238 -19.745  0.00  0.00    +0.036 C 
ATOM     10  C   UNL     1      36.886 -20.266 -20.718  0.00  0.00    -0.001 C 
ENDROOT
BRANCH   2  11
ATOM     11  C   UNL     1      33.852 -23.997 -17.112  0.00  0.00    +0.070 C 
BRANCH  11  12
ATOM     12  C   UNL     1      32.649 -23.642 -16.280  0.00  0.00    -0.019 C 
ATOM     13  C   UNL     1      32.823 -23.248 -14.960  0.00  0.00    -0.004 C 
ATOM     14  C   UNL     1      31.383 -23.713 -16.844  0.00  0.00    -0.004 C 
ATOM     15  C   UNL     1      31.708 -22.919 -14.189  0.00  0.00    -0.000 C 
ATOM     16  C   UNL     1      30.268 -23.383 -16.073  0.00  0.00    -0.000 C 
ATOM     17  C   UNL     1      30.431 -22.986 -14.746  0.00  0.00    -0.000 C 
ENDBRANCH  11  12
ENDBRANCH   2  11
BRANCH   7  18
ATOM     18  C   UNL     1      36.069 -18.635 -22.425  0.00  0.00    +0.047 C 
BRANCH  18  23
ATOM     19  S   UNL     1      34.345 -18.484 -24.576  0.00  0.00    -0.048 S 
ATOM     20  O   UNL     1      35.286 -15.763 -22.004  0.00  0.00    -0.274 OA
ATOM     21  O   UNL     1      34.045 -16.591 -26.375  0.00  0.00    -0.263 OA
ATOM     22  N   UNL     1      34.661 -15.973 -24.221  0.00  0.00    -0.246 N 
ATOM     23  C   UNL     1      34.784 -17.955 -22.892  0.00  0.00    +0.137 C 
ATOM     24  C   UNL     1      34.946 -16.454 -22.960  0.00  0.00    +0.239 C 
ATOM     25  C   UNL     1      34.321 -16.854 -25.215  0.00  0.00    +0.279 C 
ATOM     26  H   UNL     1      34.702 -15.007 -24.406  0.00  0.00    +0.158 HD
ENDBRANCH  18  23
ENDBRANCH   7  18
TORSDOF 4
ENDMDL
MODEL 8
REMARK VINA RESULT:     -10.6      5.980     10.570
REMARK  Name = 6918151
REMARK  4 active torsions:
REMARK  status: ('A' for Active; 'I' for Inactive)
REMARK    1  A    between atoms: C_2  and  C_11
REMARK    2  A    between atoms: C_7  and  C_18
REMARK    3  A    between atoms: C_11  and  C_12
REMARK    4  A    between atoms: C_18  and  C_23
REMARK                            x       y       z     vdW  Elec       q    Type
REMARK                         _______ _______ _______ _____ _____    ______ ____
ROOT
ATOM      1  O   UNL     1      34.952 -17.979 -23.311  0.00  0.00    -0.479 OA
ATOM      2  C   UNL     1      34.981 -18.338 -21.921  0.00  0.00    +0.171 C 
ATOM      3  C   UNL     1      35.721 -17.291 -21.091  0.00  0.00    +0.049 C 
ATOM      4  C   UNL     1      34.970 -15.967 -21.175  0.00  0.00    +0.033 C 
ATOM      5  C   UNL     1      34.581 -15.673 -22.595  0.00  0.00    +0.012 C 
ATOM      6  C   UNL     1      34.582 -16.683 -23.566  0.00  0.00    +0.134 C 
ATOM      7  C   UNL     1      33.823 -14.092 -24.274  0.00  0.00    -0.021 C 
ATOM      8  C   UNL     1      34.185 -14.378 -22.957  0.00  0.00    -0.006 C 
ATOM      9  C   UNL     1      34.231 -16.392 -24.887  0.00  0.00    +0.036 C 
ATOM     10  C   UNL     1      33.849 -15.098 -25.239  0.00  0.00    -0.001 C 
ENDROOT
BRANCH   2  11
ATOM     11  C   UNL     1      35.671 -19.694 -21.821  0.00  0.00    +0.070 C 
BRANCH  11  12
ATOM     12  C   UNL     1      35.013 -20.579 -20.797  0.00  0.00    -0.019 C 
ATOM     13  C   UNL     1      33.628 -20.588 -20.689  0.00  0.00    -0.004 C 
ATOM     14  C   UNL     1      35.799 -21.374 -19.974  0.00  0.00    -0.004 C 
ATOM     15  C   UNL     1      33.018 -21.409 -19.741  0.00  0.00    -0.000 C 
ATOM     16  C   UNL     1      35.188 -22.195 -19.025  0.00  0.00    -0.000 C 
ATOM     17  C   UNL     1      33.799 -22.212 -18.908  0.00  0.00    -0.000 C 
ENDBRANCH  11  12
ENDBRANCH   2  11
BRANCH   7  18
ATOM     18  C   UNL     1      33.410 -12.710 -24.650  0.00  0.00    +0.047 C 
BRANCH  18  23
ATOM     19  S   UNL     1      32.364 -11.165 -22.616  0.00  0.00    -0.048 S 
ATOM     20  O   UNL     1      35.300 -10.398 -25.000  0.00  0.00    -0.274 OA
ATOM     21  O   UNL     1      31.830  -8.591 -22.547  0.00  0.00    -0.263 OA
ATOM     22  N   UNL     1      33.629  -9.307 -23.831  0.00  0.00    -0.246 N 
ATOM     23  C   UNL     1      33.807 -11.679 -23.596  0.00  0.00    +0.137 C 
ATOM     24  C   UNL     1      34.345 -10.417 -24.231  0.00  0.00    +0.239 C 
ATOM     25  C   UNL     1      32.560  -9.466 -22.988  0.00  0.00    +0.279 C 
ATOM     26  H   UNL     1      33.884  -8.411 -24.148  0.00  0.00    +0.158 HD
ENDBRANCH  18  23
ENDBRANCH   7  18
TORSDOF 4
ENDMDL
MODEL 9
REMARK VINA RESULT:     -10.4      8.334     12.406
REMARK  Name = 6918151
REMARK  4 active torsions:
REMARK  status: ('A' for Active; 'I' for Inactive)
REMARK    1  A    between atoms: C_2  and  C_11
REMARK    2  A    between atoms: C_7  and  C_18
REMARK    3  A    between atoms: C_11  and  C_12
REMARK    4  A    between atoms: C_18  and  C_23
REMARK                            x       y       z     vdW  Elec       q    Type
REMARK                         _______ _______ _______ _____ _____    ______ ____
ROOT
ATOM      1  O   UNL     1      32.147  -8.188 -22.342  0.00  0.00    -0.479 OA
ATOM      2  C   UNL     1      32.806  -7.358 -23.310  0.00  0.00    +0.171 C 
ATOM      3  C   UNL     1      34.278  -7.738 -23.458  0.00  0.00    +0.049 C 
ATOM      4  C   UNL     1      34.373  -9.166 -23.983  0.00  0.00    +0.033 C 
ATOM      5  C   UNL     1      33.430 -10.064 -23.237  0.00  0.00    +0.012 C 
ATOM      6  C   UNL     1      32.378  -9.534 -22.479  0.00  0.00    +0.134 C 
ATOM      7  C   UNL     1      32.711 -12.300 -22.625  0.00  0.00    -0.021 C 
ATOM      8  C   UNL     1      33.581 -11.455 -23.315  0.00  0.00    -0.006 C 
ATOM      9  C   UNL     1      31.515 -10.381 -21.779  0.00  0.00    +0.036 C 
ATOM     10  C   UNL     1      31.681 -11.763 -21.855  0.00  0.00    -0.001 C 
ENDROOT
BRANCH   2  11
ATOM     11  C   UNL     1      32.665  -5.916 -22.837  0.00  0.00    +0.070 C 
BRANCH  11  12
ATOM     12  C   UNL     1      32.570  -4.957 -23.993  0.00  0.00    -0.019 C 
ATOM     13  C   UNL     1      31.735  -3.851 -23.898  0.00  0.00    -0.004 C 
ATOM     14  C   UNL     1      33.318  -5.191 -25.139  0.00  0.00    -0.004 C 
ATOM     15  C   UNL     1      31.647  -2.963 -24.969  0.00  0.00    -0.000 C 
ATOM     16  C   UNL     1      33.230  -4.301 -26.210  0.00  0.00    -0.000 C 
ATOM     17  C   UNL     1      32.395  -3.188 -26.125  0.00  0.00    -0.000 C 
ENDBRANCH  11  12
ENDBRANCH   2  11
BRANCH   7  18
ATOM     18  C   UNL     1      32.885 -13.779 -22.710  0.00  0.00    +0.047 C 
BRANCH  18  23
ATOM     19  S   UNL     1      33.040 -14.489 -25.373  0.00  0.00    -0.048 S 
ATOM     20  O   UNL     1      35.222 -15.646 -22.407  0.00  0.00    -0.274 OA
ATOM     21  O   UNL     1      33.402 -16.847 -26.478  0.00  0.00    -0.263 OA
ATOM     22  N   UNL     1      34.413 -16.426 -24.429  0.00  0.00    -0.246 N 
ATOM     23  C   UNL     1      33.884 -14.184 -23.791  0.00  0.00    +0.137 C 
ATOM     24  C   UNL     1      34.584 -15.478 -23.441  0.00  0.00    +0.239 C 
ATOM     25  C   UNL     1      33.649 -16.123 -25.526  0.00  0.00    +0.279 C 
ATOM     26  H   UNL     1      34.835 -17.311 -24.346  0.00  0.00    +0.158 HD
ENDBRANCH  18  23
ENDBRANCH   7  18
TORSDOF 4
ENDMDL
