MODEL 1
REMARK VINA RESULT:     -11.9      0.000      0.000
REMARK  Name = 25101874
REMARK  5 active torsions:
REMARK  status: ('A' for Active; 'I' for Inactive)
REMARK    1  A    between atoms: N_1  and  C_22
REMARK    2  A    between atoms: C_2  and  N_8
REMARK    3  A    between atoms: N_8  and  C_11
REMARK    4  A    between atoms: C_11  and  C_14
REMARK    5  A    between atoms: C_22  and  C_28
REMARK                            x       y       z     vdW  Elec       q    Type
REMARK                         _______ _______ _______ _____ _____    ______ ____
ROOT
ATOM      1  N   UNL     1      34.319 -22.833 -19.088  0.00  0.00    +0.388 N 
ATOM      2  C   UNL     1      34.698 -20.310 -20.521  0.00  0.00    -0.066 C 
ATOM      3  C   UNL     1      35.640 -22.189 -19.125  0.00  0.00    -0.079 C 
ATOM      4  C   UNL     1      33.240 -21.837 -19.139  0.00  0.00    -0.079 C 
ATOM      5  C   UNL     1      35.811 -21.354 -20.397  0.00  0.00    -0.044 C 
ATOM      6  C   UNL     1      33.331 -20.990 -20.411  0.00  0.00    -0.044 C 
ATOM      7  H   UNL     1      34.237 -23.427 -19.911  0.00  0.00    -0.080 HD
ENDROOT
BRANCH   2   8
ATOM      8  N   UNL     1      34.822 -19.587 -21.784  0.00  0.00    +0.389 N 
ATOM      9  H   UNL     1      33.927 -19.153 -22.011  0.00  0.00    -0.084 HD
ATOM     10  H   UNL     1      35.091 -20.249 -22.514  0.00  0.00    -0.084 HD
BRANCH   8  11
ATOM     11  C   UNL     1      35.843 -18.555 -21.692  0.00  0.00    -0.034 C 
BRANCH  11  14
ATOM     12  O   UNL     1      33.857 -13.440 -22.779  0.00  0.00    -0.474 OA
ATOM     13  N   UNL     1      35.206 -16.307 -21.021  0.00  0.00    -0.247 NA
ATOM     14  C   UNL     1      35.299 -17.194 -22.036  0.00  0.00    +0.037 C 
ATOM     15  C   UNL     1      34.926 -16.923 -23.343  0.00  0.00    +0.011 C 
ATOM     16  C   UNL     1      34.418 -15.656 -23.637  0.00  0.00    +0.015 C 
ATOM     17  C   UNL     1      34.000 -15.313 -25.037  0.00  0.00    +0.033 C 
ATOM     18  C   UNL     1      34.333 -14.710 -22.613  0.00  0.00    +0.154 C 
ATOM     19  C   UNL     1      33.131 -14.062 -25.036  0.00  0.00    +0.052 C 
ATOM     20  C   UNL     1      34.723 -15.084 -21.335  0.00  0.00    +0.135 C 
ATOM     21  C   UNL     1      33.768 -13.009 -24.142  0.00  0.00    +0.206 C 
ENDBRANCH  11  14
ENDBRANCH   8  11
ENDBRANCH   2   8
BRANCH   1  22
ATOM     22  C   UNL     1      34.191 -23.667 -17.893  0.00  0.00    -0.055 C 
BRANCH  22  28
ATOM     23  O   UNL     1      31.367 -23.163 -16.078  0.00  0.00    -0.273 OA
ATOM     24  O   UNL     1      38.005 -23.696 -14.191  0.00  0.00    -0.270 OA
ATOM     25  N   UNL     1      33.616 -23.396 -15.493  0.00  0.00    -0.261 N 
ATOM     26  N   UNL     1      35.776 -23.566 -14.826  0.00  0.00    -0.255 N 
ATOM     27  N   UNL     1      32.727 -24.559 -13.101  0.00  0.00    -0.262 NA
ATOM     28  C   UNL     1      34.383 -22.841 -16.626  0.00  0.00    +0.076 C 
ATOM     29  C   UNL     1      35.852 -22.885 -16.126  0.00  0.00    +0.113 C 
ATOM     30  C   UNL     1      34.470 -23.803 -14.521  0.00  0.00    +0.196 C 
ATOM     31  C   UNL     1      34.053 -24.358 -13.387  0.00  0.00    +0.092 C 
ATOM     32  C   UNL     1      32.260 -23.508 -15.321  0.00  0.00    +0.252 C 
ATOM     33  C   UNL     1      36.813 -23.895 -13.974  0.00  0.00    +0.251 C 
ATOM     34  C   UNL     1      35.065 -24.750 -12.431  0.00  0.00    +0.022 C 
ATOM     35  C   UNL     1      31.877 -24.159 -14.002  0.00  0.00    +0.210 C 
ATOM     36  C   UNL     1      36.371 -24.546 -12.687  0.00  0.00    +0.059 C 
ENDBRANCH  22  28
ENDBRANCH   1  22
TORSDOF 5
ENDMDL
MODEL 2
REMARK VINA RESULT:     -11.8      1.990     11.090
REMARK  Name = 25101874
REMARK  5 active torsions:
REMARK  status: ('A' for Active; 'I' for Inactive)
REMARK    1  A    between atoms: N_1  and  C_22
REMARK    2  A    between atoms: C_2  and  N_8
REMARK    3  A    between atoms: N_8  and  C_11
REMARK    4  A    between atoms: C_11  and  C_14
REMARK    5  A    between atoms: C_22  and  C_28
REMARK                            x       y       z     vdW  Elec       q    Type
REMARK                         _______ _______ _______ _____ _____    ______ ____
ROOT
ATOM      1  N   UNL     1      34.467 -19.854 -21.432  0.00  0.00    +0.388 N 
ATOM      2  C   UNL     1      34.891 -21.979 -19.466  0.00  0.00    -0.066 C 
ATOM      3  C   UNL     1      35.733 -20.599 -21.403  0.00  0.00    -0.079 C 
ATOM      4  C   UNL     1      33.345 -20.693 -20.990  0.00  0.00    -0.079 C 
ATOM      5  C   UNL     1      36.039 -21.114 -19.994  0.00  0.00    -0.044 C 
ATOM      6  C   UNL     1      33.570 -21.211 -19.568  0.00  0.00    -0.044 C 
ATOM      7  H   UNL     1      34.549 -19.072 -20.783  0.00  0.00    -0.080 HD
ENDROOT
BRANCH   2   8
ATOM      8  N   UNL     1      35.155 -22.382 -18.087  0.00  0.00    +0.389 N 
ATOM      9  H   UNL     1      35.307 -21.549 -17.517  0.00  0.00    -0.084 HD
ATOM     10  H   UNL     1      35.985 -22.977 -18.074  0.00  0.00    -0.084 HD
BRANCH   8  11
ATOM     11  C   UNL     1      34.035 -23.134 -17.544  0.00  0.00    -0.034 C 
BRANCH  11  14
ATOM     12  O   UNL     1      34.640 -24.550 -12.166  0.00  0.00    -0.474 OA
ATOM     13  N   UNL     1      33.182 -23.996 -15.436  0.00  0.00    -0.247 NA
ATOM     14  C   UNL     1      34.248 -23.496 -16.097  0.00  0.00    +0.037 C 
ATOM     15  C   UNL     1      35.497 -23.301 -15.527  0.00  0.00    +0.011 C 
ATOM     16  C   UNL     1      35.669 -23.638 -14.183  0.00  0.00    +0.015 C 
ATOM     17  C   UNL     1      37.002 -23.445 -13.519  0.00  0.00    +0.033 C 
ATOM     18  C   UNL     1      34.592 -24.180 -13.480  0.00  0.00    +0.154 C 
ATOM     19  C   UNL     1      36.848 -23.496 -12.005  0.00  0.00    +0.052 C 
ATOM     20  C   UNL     1      33.380 -24.325 -14.140  0.00  0.00    +0.135 C 
ATOM     21  C   UNL     1      35.963 -24.675 -11.629  0.00  0.00    +0.206 C 
ENDBRANCH  11  14
ENDBRANCH   8  11
ENDBRANCH   2   8
BRANCH   1  22
ATOM     22  C   UNL     1      34.216 -19.326 -22.773  0.00  0.00    -0.055 C 
BRANCH  22  28
ATOM     23  O   UNL     1      34.423 -18.525 -26.065  0.00  0.00    -0.273 OA
ATOM     24  O   UNL     1      35.068 -14.671 -20.352  0.00  0.00    -0.270 OA
ATOM     25  N   UNL     1      34.586 -17.265 -24.106  0.00  0.00    -0.261 N 
ATOM     26  N   UNL     1      34.803 -15.960 -22.264  0.00  0.00    -0.255 N 
ATOM     27  N   UNL     1      33.495 -15.128 -25.559  0.00  0.00    -0.262 NA
ATOM     28  C   UNL     1      35.160 -18.173 -23.093  0.00  0.00    +0.076 C 
ATOM     29  C   UNL     1      35.382 -17.251 -21.863  0.00  0.00    +0.113 C 
ATOM     30  C   UNL     1      34.394 -16.037 -23.560  0.00  0.00    +0.196 C 
ATOM     31  C   UNL     1      33.873 -15.023 -24.245  0.00  0.00    +0.092 C 
ATOM     32  C   UNL     1      34.281 -17.498 -25.422  0.00  0.00    +0.252 C 
ATOM     33  C   UNL     1      34.706 -14.801 -21.518  0.00  0.00    +0.251 C 
ATOM     34  C   UNL     1      33.719 -13.765 -23.548  0.00  0.00    +0.022 C 
ATOM     35  C   UNL     1      33.687 -16.286 -26.121  0.00  0.00    +0.210 C 
ATOM     36  C   UNL     1      34.100 -13.637 -22.263  0.00  0.00    +0.059 C 
ENDBRANCH  22  28
ENDBRANCH   1  22
TORSDOF 5
ENDMDL
MODEL 3
REMARK VINA RESULT:     -11.6      0.876      1.295
REMARK  Name = 25101874
REMARK  5 active torsions:
REMARK  status: ('A' for Active; 'I' for Inactive)
REMARK    1  A    between atoms: N_1  and  C_22
REMARK    2  A    between atoms: C_2  and  N_8
REMARK    3  A    between atoms: N_8  and  C_11
REMARK    4  A    between atoms: C_11  and  C_14
REMARK    5  A    between atoms: C_22  and  C_28
REMARK                            x       y       z     vdW  Elec       q    Type
REMARK                         _______ _______ _______ _____ _____    ______ ____
ROOT
ATOM      1  N   UNL     1      34.505 -22.756 -19.157  0.00  0.00    +0.388 N 
ATOM      2  C   UNL     1      35.162 -20.267 -20.548  0.00  0.00    -0.066 C 
ATOM      3  C   UNL     1      35.848 -22.171 -19.041  0.00  0.00    -0.079 C 
ATOM      4  C   UNL     1      33.484 -21.715 -19.340  0.00  0.00    -0.079 C 
ATOM      5  C   UNL     1      36.205 -21.357 -20.288  0.00  0.00    -0.044 C 
ATOM      6  C   UNL     1      33.762 -20.886 -20.597  0.00  0.00    -0.044 C 
ATOM      7  H   UNL     1      34.495 -23.355 -19.982  0.00  0.00    -0.080 HD
ENDROOT
BRANCH   2   8
ATOM      8  N   UNL     1      35.466 -19.564 -21.792  0.00  0.00    +0.389 N 
ATOM      9  H   UNL     1      34.652 -19.601 -22.405  0.00  0.00    -0.084 HD
ATOM     10  H   UNL     1      36.266 -20.016 -22.236  0.00  0.00    -0.084 HD
BRANCH   8  11
ATOM     11  C   UNL     1      35.803 -18.173 -21.530  0.00  0.00    -0.034 C 
BRANCH  11  14
ATOM     12  O   UNL     1      33.604 -14.896 -25.494  0.00  0.00    -0.474 OA
ATOM     13  N   UNL     1      34.979 -17.778 -23.783  0.00  0.00    -0.247 NA
ATOM     14  C   UNL     1      35.215 -17.248 -22.563  0.00  0.00    +0.037 C 
ATOM     15  C   UNL     1      34.951 -15.931 -22.223  0.00  0.00    +0.011 C 
ATOM     16  C   UNL     1      34.411 -15.091 -23.199  0.00  0.00    +0.015 C 
ATOM     17  C   UNL     1      34.109 -13.655 -22.880  0.00  0.00    +0.033 C 
ATOM     18  C   UNL     1      34.134 -15.617 -24.462  0.00  0.00    +0.154 C 
ATOM     19  C   UNL     1      33.916 -12.860 -24.165  0.00  0.00    +0.052 C 
ATOM     20  C   UNL     1      34.444 -16.947 -24.706  0.00  0.00    +0.135 C 
ATOM     21  C   UNL     1      33.020 -13.645 -25.112  0.00  0.00    +0.206 C 
ENDBRANCH  11  14
ENDBRANCH   8  11
ENDBRANCH   2   8
BRANCH   1  22
ATOM     22  C   UNL     1      34.200 -23.572 -17.982  0.00  0.00    -0.055 C 
BRANCH  22  28
ATOM     23  O   UNL     1      31.370 -23.119 -16.163  0.00  0.00    -0.273 OA
ATOM     24  O   UNL     1      38.006 -23.660 -14.272  0.00  0.00    -0.270 OA
ATOM     25  N   UNL     1      33.618 -23.353 -15.578  0.00  0.00    -0.261 N 
ATOM     26  N   UNL     1      35.778 -23.527 -14.909  0.00  0.00    -0.255 N 
ATOM     27  N   UNL     1      32.729 -24.570 -13.213  0.00  0.00    -0.262 NA
ATOM     28  C   UNL     1      34.385 -22.771 -16.698  0.00  0.00    +0.076 C 
ATOM     29  C   UNL     1      35.854 -22.819 -16.195  0.00  0.00    +0.113 C 
ATOM     30  C   UNL     1      34.472 -23.776 -14.613  0.00  0.00    +0.196 C 
ATOM     31  C   UNL     1      34.055 -24.357 -13.492  0.00  0.00    +0.092 C 
ATOM     32  C   UNL     1      32.263 -23.475 -15.412  0.00  0.00    +0.252 C 
ATOM     33  C   UNL     1      36.814 -23.870 -14.062  0.00  0.00    +0.251 C 
ATOM     34  C   UNL     1      35.067 -24.764 -12.542  0.00  0.00    +0.022 C 
ATOM     35  C   UNL     1      31.880 -24.155 -14.107  0.00  0.00    +0.210 C 
ATOM     36  C   UNL     1      36.372 -24.549 -12.790  0.00  0.00    +0.059 C 
ENDBRANCH  22  28
ENDBRANCH   1  22
TORSDOF 5
ENDMDL
MODEL 4
REMARK VINA RESULT:     -11.5      1.432      3.198
REMARK  Name = 25101874
REMARK  5 active torsions:
REMARK  status: ('A' for Active; 'I' for Inactive)
REMARK    1  A    between atoms: N_1  and  C_22
REMARK    2  A    between atoms: C_2  and  N_8
REMARK    3  A    between atoms: N_8  and  C_11
REMARK    4  A    between atoms: C_11  and  C_14
REMARK    5  A    between atoms: C_22  and  C_28
REMARK                            x       y       z     vdW  Elec       q    Type
REMARK                         _______ _______ _______ _____ _____    ______ ____
ROOT
ATOM      1  N   UNL     1      35.058 -22.092 -18.978  0.00  0.00    +0.388 N 
ATOM      2  C   UNL     1      34.918 -20.090 -21.107  0.00  0.00    -0.066 C 
ATOM      3  C   UNL     1      36.246 -21.307 -19.340  0.00  0.00    -0.079 C 
ATOM      4  C   UNL     1      33.825 -21.323 -19.196  0.00  0.00    -0.079 C 
ATOM      5  C   UNL     1      36.197 -20.877 -20.809  0.00  0.00    -0.044 C 
ATOM      6  C   UNL     1      33.694 -20.894 -20.659  0.00  0.00    -0.044 C 
ATOM      7  H   UNL     1      35.028 -22.912 -19.583  0.00  0.00    -0.080 HD
ENDROOT
BRANCH   2   8
ATOM      8  N   UNL     1      34.841 -19.770 -22.530  0.00  0.00    +0.389 N 
ATOM      9  H   UNL     1      33.899 -19.450 -22.751  0.00  0.00    -0.084 HD
ATOM     10  H   UNL     1      35.066 -20.610 -23.066  0.00  0.00    -0.084 HD
BRANCH   8  11
ATOM     11  C   UNL     1      35.794 -18.727 -22.878  0.00  0.00    -0.034 C 
BRANCH  11  14
ATOM     12  O   UNL     1      33.253 -14.466 -25.461  0.00  0.00    -0.474 OA
ATOM     13  N   UNL     1      34.648 -17.739 -24.782  0.00  0.00    -0.247 NA
ATOM     14  C   UNL     1      35.123 -17.548 -23.531  0.00  0.00    +0.037 C 
ATOM     15  C   UNL     1      35.027 -16.352 -22.837  0.00  0.00    +0.011 C 
ATOM     16  C   UNL     1      34.405 -15.271 -23.465  0.00  0.00    +0.015 C 
ATOM     17  C   UNL     1      34.277 -13.954 -22.756  0.00  0.00    +0.033 C 
ATOM     18  C   UNL     1      33.883 -15.446 -24.749  0.00  0.00    +0.154 C 
ATOM     19  C   UNL     1      33.942 -12.851 -23.751  0.00  0.00    +0.052 C 
ATOM     20  C   UNL     1      34.040 -16.681 -25.362  0.00  0.00    +0.135 C 
ATOM     21  C   UNL     1      32.843 -13.333 -24.686  0.00  0.00    +0.206 C 
ENDBRANCH  11  14
ENDBRANCH   8  11
ENDBRANCH   2   8
BRANCH   1  22
ATOM     22  C   UNL     1      35.145 -22.538 -17.587  0.00  0.00    -0.055 C 
BRANCH  22  28
ATOM     23  O   UNL     1      36.208 -24.767 -15.259  0.00  0.00    -0.273 OA
ATOM     24  O   UNL     1      29.856 -22.707 -17.080  0.00  0.00    -0.270 OA
ATOM     25  N   UNL     1      34.091 -24.003 -15.882  0.00  0.00    -0.261 N 
ATOM     26  N   UNL     1      31.991 -23.357 -16.442  0.00  0.00    -0.255 N 
ATOM     27  N   UNL     1      33.320 -24.395 -13.214  0.00  0.00    -0.262 NA
ATOM     28  C   UNL     1      34.186 -23.693 -17.323  0.00  0.00    +0.076 C 
ATOM     29  C   UNL     1      32.727 -23.333 -17.714  0.00  0.00    +0.113 C 
ATOM     30  C   UNL     1      32.826 -23.771 -15.450  0.00  0.00    +0.196 C 
ATOM     31  C   UNL     1      32.458 -23.952 -14.184  0.00  0.00    +0.092 C 
ATOM     32  C   UNL     1      35.045 -24.480 -15.022  0.00  0.00    +0.252 C 
ATOM     33  C   UNL     1      30.657 -23.072 -16.223  0.00  0.00    +0.251 C 
ATOM     34  C   UNL     1      31.079 -23.668 -13.850  0.00  0.00    +0.022 C 
ATOM     35  C   UNL     1      34.537 -24.649 -13.599  0.00  0.00    +0.210 C 
ATOM     36  C   UNL     1      30.214 -23.249 -14.793  0.00  0.00    +0.059 C 
ENDBRANCH  22  28
ENDBRANCH   1  22
TORSDOF 5
ENDMDL
MODEL 5
REMARK VINA RESULT:     -11.4      2.057      3.081
REMARK  Name = 25101874
REMARK  5 active torsions:
REMARK  status: ('A' for Active; 'I' for Inactive)
REMARK    1  A    between atoms: N_1  and  C_22
REMARK    2  A    between atoms: C_2  and  N_8
REMARK    3  A    between atoms: N_8  and  C_11
REMARK    4  A    between atoms: C_11  and  C_14
REMARK    5  A    between atoms: C_22  and  C_28
REMARK                            x       y       z     vdW  Elec       q    Type
REMARK                         _______ _______ _______ _____ _____    ______ ____
ROOT
ATOM      1  N   UNL     1      34.612 -22.846 -16.733  0.00  0.00    +0.388 N 
ATOM      2  C   UNL     1      34.462 -22.154 -19.572  0.00  0.00    -0.066 C 
ATOM      3  C   UNL     1      33.441 -23.233 -17.532  0.00  0.00    -0.079 C 
ATOM      4  C   UNL     1      35.830 -22.810 -17.555  0.00  0.00    -0.079 C 
ATOM      5  C   UNL     1      33.215 -22.256 -18.689  0.00  0.00    -0.044 C 
ATOM      6  C   UNL     1      35.684 -21.819 -18.713  0.00  0.00    -0.044 C 
ATOM      7  H   UNL     1      34.449 -21.907 -16.372  0.00  0.00    -0.080 HD
ENDROOT
BRANCH   2   8
ATOM      8  N   UNL     1      34.263 -21.148 -20.612  0.00  0.00    +0.389 N 
ATOM      9  H   UNL     1      33.494 -20.535 -20.343  0.00  0.00    -0.084 HD
ATOM     10  H   UNL     1      34.048 -21.624 -21.489  0.00  0.00    -0.084 HD
BRANCH   8  11
ATOM     11  C   UNL     1      35.466 -20.351 -20.798  0.00  0.00    -0.034 C 
BRANCH  11  14
ATOM     12  O   UNL     1      34.755 -16.041 -24.291  0.00  0.00    -0.474 OA
ATOM     13  N   UNL     1      35.650 -17.997 -21.375  0.00  0.00    -0.247 NA
ATOM     14  C   UNL     1      35.249 -19.224 -21.772  0.00  0.00    +0.037 C 
ATOM     15  C   UNL     1      34.661 -19.492 -22.999  0.00  0.00    +0.011 C 
ATOM     16  C   UNL     1      34.464 -18.430 -23.883  0.00  0.00    +0.015 C 
ATOM     17  C   UNL     1      33.830 -18.668 -25.223  0.00  0.00    +0.033 C 
ATOM     18  C   UNL     1      34.890 -17.154 -23.510  0.00  0.00    +0.154 C 
ATOM     19  C   UNL     1      33.364 -17.350 -25.827  0.00  0.00    +0.052 C 
ATOM     20  C   UNL     1      35.459 -16.989 -22.255  0.00  0.00    +0.135 C 
ATOM     21  C   UNL     1      34.461 -16.308 -25.667  0.00  0.00    +0.206 C 
ENDBRANCH  11  14
ENDBRANCH   8  11
ENDBRANCH   2   8
BRANCH   1  22
ATOM     22  C   UNL     1      34.784 -23.760 -15.603  0.00  0.00    -0.055 C 
BRANCH  22  28
ATOM     23  O   UNL     1      33.959 -23.666 -12.312  0.00  0.00    -0.273 OA
ATOM     24  O   UNL     1      39.996 -24.797 -15.503  0.00  0.00    -0.270 OA
ATOM     25  N   UNL     1      35.960 -24.086 -13.441  0.00  0.00    -0.261 N 
ATOM     26  N   UNL     1      37.960 -24.464 -14.441  0.00  0.00    -0.255 N 
ATOM     27  N   UNL     1      36.635 -25.792 -11.320  0.00  0.00    -0.262 NA
ATOM     28  C   UNL     1      35.897 -23.282 -14.678  0.00  0.00    +0.076 C 
ATOM     29  C   UNL     1      37.300 -23.481 -15.312  0.00  0.00    +0.113 C 
ATOM     30  C   UNL     1      37.146 -24.742 -13.385  0.00  0.00    +0.196 C 
ATOM     31  C   UNL     1      37.468 -25.555 -12.382  0.00  0.00    +0.092 C 
ATOM     32  C   UNL     1      35.047 -24.209 -12.426  0.00  0.00    +0.252 C 
ATOM     33  C   UNL     1      39.218 -25.019 -14.580  0.00  0.00    +0.251 C 
ATOM     34  C   UNL     1      38.764 -26.195 -12.441  0.00  0.00    +0.022 C 
ATOM     35  C   UNL     1      35.496 -25.161 -11.330  0.00  0.00    +0.210 C 
ATOM     36  C   UNL     1      39.603 -25.961 -13.467  0.00  0.00    +0.059 C 
ENDBRANCH  22  28
ENDBRANCH   1  22
TORSDOF 5
ENDMDL
MODEL 6
REMARK VINA RESULT:     -11.4      7.191     11.648
REMARK  Name = 25101874
REMARK  5 active torsions:
REMARK  status: ('A' for Active; 'I' for Inactive)
REMARK    1  A    between atoms: N_1  and  C_22
REMARK    2  A    between atoms: C_2  and  N_8
REMARK    3  A    between atoms: N_8  and  C_11
REMARK    4  A    between atoms: C_11  and  C_14
REMARK    5  A    between atoms: C_22  and  C_28
REMARK                            x       y       z     vdW  Elec       q    Type
REMARK                         _______ _______ _______ _____ _____    ______ ____
ROOT
ATOM      1  N   UNL     1      32.612 -12.051 -22.129  0.00  0.00    +0.388 N 
ATOM      2  C   UNL     1      31.729  -9.262 -22.072  0.00  0.00    -0.066 C 
ATOM      3  C   UNL     1      31.423 -11.662 -21.359  0.00  0.00    -0.079 C 
ATOM      4  C   UNL     1      32.788 -11.191 -23.308  0.00  0.00    -0.079 C 
ATOM      5  C   UNL     1      31.520 -10.208 -20.888  0.00  0.00    -0.044 C 
ATOM      6  C   UNL     1      32.931  -9.722 -22.902  0.00  0.00    -0.044 C 
ATOM      7  H   UNL     1      33.427 -11.931 -21.528  0.00  0.00    -0.080 HD
ENDROOT
BRANCH   2   8
ATOM      8  N   UNL     1      31.916  -7.893 -21.598  0.00  0.00    +0.389 N 
ATOM      9  H   UNL     1      31.856  -7.880 -20.580  0.00  0.00    -0.084 HD
ATOM     10  H   UNL     1      31.187  -7.304 -22.004  0.00  0.00    -0.084 HD
BRANCH   8  11
ATOM     11  C   UNL     1      33.213  -7.376 -22.007  0.00  0.00    -0.034 C 
BRANCH  11  14
ATOM     12  O   UNL     1      32.589  -3.448 -25.940  0.00  0.00    -0.474 OA
ATOM     13  N   UNL     1      32.025  -5.509 -23.014  0.00  0.00    -0.247 NA
ATOM     14  C   UNL     1      33.088  -6.339 -23.092  0.00  0.00    +0.037 C 
ATOM     15  C   UNL     1      34.044  -6.288 -24.094  0.00  0.00    +0.011 C 
ATOM     16  C   UNL     1      33.904  -5.322 -25.093  0.00  0.00    +0.015 C 
ATOM     17  C   UNL     1      34.912  -5.227 -26.201  0.00  0.00    +0.033 C 
ATOM     18  C   UNL     1      32.828  -4.434 -25.026  0.00  0.00    +0.154 C 
ATOM     19  C   UNL     1      34.353  -4.399 -27.351  0.00  0.00    +0.052 C 
ATOM     20  C   UNL     1      31.920  -4.576 -23.986  0.00  0.00    +0.135 C 
ATOM     21  C   UNL     1      33.697  -3.144 -26.796  0.00  0.00    +0.206 C 
ENDBRANCH  11  14
ENDBRANCH   8  11
ENDBRANCH   2   8
BRANCH   1  22
ATOM     22  C   UNL     1      32.527 -13.456 -22.528  0.00  0.00    -0.055 C 
BRANCH  22  28
ATOM     23  O   UNL     1      35.020 -14.443 -20.447  0.00  0.00    -0.273 OA
ATOM     24  O   UNL     1      33.335 -16.427 -26.860  0.00  0.00    -0.270 OA
ATOM     25  N   UNL     1      34.379 -15.106 -22.592  0.00  0.00    -0.261 N 
ATOM     26  N   UNL     1      33.865 -15.791 -24.692  0.00  0.00    -0.255 N 
ATOM     27  N   UNL     1      35.330 -17.661 -21.931  0.00  0.00    -0.262 NA
ATOM     28  C   UNL     1      33.804 -13.904 -23.227  0.00  0.00    +0.076 C 
ATOM     29  C   UNL     1      33.533 -14.360 -24.687  0.00  0.00    +0.113 C 
ATOM     30  C   UNL     1      34.364 -16.138 -23.473  0.00  0.00    +0.196 C 
ATOM     31  C   UNL     1      34.810 -17.352 -23.162  0.00  0.00    +0.092 C 
ATOM     32  C   UNL     1      34.904 -15.270 -21.336  0.00  0.00    +0.252 C 
ATOM     33  C   UNL     1      33.765 -16.687 -25.739  0.00  0.00    +0.251 C 
ATOM     34  C   UNL     1      34.737 -18.366 -24.190  0.00  0.00    +0.022 C 
ATOM     35  C   UNL     1      35.381 -16.688 -21.068  0.00  0.00    +0.210 C 
ATOM     36  C   UNL     1      34.246 -18.078 -25.410  0.00  0.00    +0.059 C 
ENDBRANCH  22  28
ENDBRANCH   1  22
TORSDOF 5
ENDMDL
MODEL 7
REMARK VINA RESULT:     -11.3      2.931     11.709
REMARK  Name = 25101874
REMARK  5 active torsions:
REMARK  status: ('A' for Active; 'I' for Inactive)
REMARK    1  A    between atoms: N_1  and  C_22
REMARK    2  A    between atoms: C_2  and  N_8
REMARK    3  A    between atoms: N_8  and  C_11
REMARK    4  A    between atoms: C_11  and  C_14
REMARK    5  A    between atoms: C_22  and  C_28
REMARK                            x       y       z     vdW  Elec       q    Type
REMARK                         _______ _______ _______ _____ _____    ______ ____
ROOT
ATOM      1  N   UNL     1      34.532 -15.606 -22.231  0.00  0.00    +0.388 N 
ATOM      2  C   UNL     1      35.604 -18.322 -22.418  0.00  0.00    -0.066 C 
ATOM      3  C   UNL     1      35.235 -16.208 -21.091  0.00  0.00    -0.079 C 
ATOM      4  C   UNL     1      35.054 -16.113 -23.508  0.00  0.00    -0.079 C 
ATOM      5  C   UNL     1      35.098 -17.733 -21.099  0.00  0.00    -0.044 C 
ATOM      6  C   UNL     1      34.910 -17.634 -23.598  0.00  0.00    -0.044 C 
ATOM      7  H   UNL     1      33.549 -15.869 -22.168  0.00  0.00    -0.080 HD
ENDROOT
BRANCH   2   8
ATOM      8  N   UNL     1      35.377 -19.765 -22.448  0.00  0.00    +0.389 N 
ATOM      9  H   UNL     1      36.174 -20.238 -22.022  0.00  0.00    -0.084 HD
ATOM     10  H   UNL     1      35.268 -20.058 -23.419  0.00  0.00    -0.084 HD
BRANCH   8  11
ATOM     11  C   UNL     1      34.168 -20.113 -21.717  0.00  0.00    -0.034 C 
BRANCH  11  14
ATOM     12  O   UNL     1      35.485 -23.137 -17.199  0.00  0.00    -0.474 OA
ATOM     13  N   UNL     1      35.775 -21.141 -20.208  0.00  0.00    -0.247 NA
ATOM     14  C   UNL     1      34.470 -20.937 -20.493  0.00  0.00    +0.037 C 
ATOM     15  C   UNL     1      33.421 -21.437 -19.737  0.00  0.00    +0.011 C 
ATOM     16  C   UNL     1      33.725 -22.203 -18.610  0.00  0.00    +0.015 C 
ATOM     17  C   UNL     1      32.625 -22.767 -17.758  0.00  0.00    +0.033 C 
ATOM     18  C   UNL     1      35.065 -22.409 -18.277  0.00  0.00    +0.154 C 
ATOM     19  C   UNL     1      33.170 -23.864 -16.853  0.00  0.00    +0.052 C 
ATOM     20  C   UNL     1      36.041 -21.875 -19.106  0.00  0.00    +0.135 C 
ATOM     21  C   UNL     1      34.471 -23.394 -16.220  0.00  0.00    +0.206 C 
ENDBRANCH  11  14
ENDBRANCH   8  11
ENDBRANCH   2   8
BRANCH   1  22
ATOM     22  C   UNL     1      34.630 -14.147 -22.181  0.00  0.00    -0.055 C 
BRANCH  22  28
ATOM     23  O   UNL     1      31.561 -13.741 -20.791  0.00  0.00    -0.273 OA
ATOM     24  O   UNL     1      34.963 -10.063 -25.567  0.00  0.00    -0.270 OA
ATOM     25  N   UNL     1      32.772 -12.512 -22.364  0.00  0.00    -0.261 N 
ATOM     26  N   UNL     1      33.847 -11.274 -23.930  0.00  0.00    -0.255 N 
ATOM     27  N   UNL     1      31.487 -10.229 -21.362  0.00  0.00    -0.262 NA
ATOM     28  C   UNL     1      33.596 -13.497 -23.092  0.00  0.00    +0.076 C 
ATOM     29  C   UNL     1      34.263 -12.655 -24.213  0.00  0.00    +0.113 C 
ATOM     30  C   UNL     1      32.980 -11.275 -22.880  0.00  0.00    +0.196 C 
ATOM     31  C   UNL     1      32.376 -10.189 -22.405  0.00  0.00    +0.092 C 
ATOM     32  C   UNL     1      31.881 -12.698 -21.339  0.00  0.00    +0.252 C 
ATOM     33  C   UNL     1      34.196 -10.122 -24.609  0.00  0.00    +0.251 C 
ATOM     34  C   UNL     1      32.684  -8.928 -23.042  0.00  0.00    +0.022 C 
ATOM     35  C   UNL     1      31.246 -11.405 -20.857  0.00  0.00    +0.210 C 
ATOM     36  C   UNL     1      33.541  -8.871 -24.079  0.00  0.00    +0.059 C 
ENDBRANCH  22  28
ENDBRANCH   1  22
TORSDOF 5
ENDMDL
MODEL 8
REMARK VINA RESULT:     -11.2      0.974      1.343
REMARK  Name = 25101874
REMARK  5 active torsions:
REMARK  status: ('A' for Active; 'I' for Inactive)
REMARK    1  A    between atoms: N_1  and  C_22
REMARK    2  A    between atoms: C_2  and  N_8
REMARK    3  A    between atoms: N_8  and  C_11
REMARK    4  A    between atoms: C_11  and  C_14
REMARK    5  A    between atoms: C_22  and  C_28
REMARK                            x       y       z     vdW  Elec       q    Type
REMARK                         _______ _______ _______ _____ _____    ______ ____
ROOT
ATOM      1  N   UNL     1      35.546 -22.022 -18.065  0.00  0.00    +0.388 N 
ATOM      2  C   UNL     1      35.279 -21.032 -20.805  0.00  0.00    -0.066 C 
ATOM      3  C   UNL     1      34.411 -22.438 -18.900  0.00  0.00    -0.079 C 
ATOM      4  C   UNL     1      36.740 -21.762 -18.882  0.00  0.00    -0.079 C 
ATOM      5  C   UNL     1      34.064 -21.366 -19.936  0.00  0.00    -0.044 C 
ATOM      6  C   UNL     1      36.472 -20.667 -19.918  0.00  0.00    -0.044 C 
ATOM      7  H   UNL     1      35.290 -21.153 -17.598  0.00  0.00    -0.080 HD
ENDROOT
BRANCH   2   8
ATOM      8  N   UNL     1      34.959 -19.941 -21.724  0.00  0.00    +0.389 N 
ATOM      9  H   UNL     1      34.072 -19.520 -21.447  0.00  0.00    -0.084 HD
ATOM     10  H   UNL     1      34.893 -20.319 -22.669  0.00  0.00    -0.084 HD
BRANCH   8  11
ATOM     11  C   UNL     1      35.999 -18.923 -21.700  0.00  0.00    -0.034 C 
BRANCH  11  14
ATOM     12  O   UNL     1      33.974 -13.763 -22.446  0.00  0.00    -0.474 OA
ATOM     13  N   UNL     1      35.363 -16.722 -20.886  0.00  0.00    -0.247 NA
ATOM     14  C   UNL     1      35.443 -17.547 -21.953  0.00  0.00    +0.037 C 
ATOM     15  C   UNL     1      35.047 -17.200 -23.235  0.00  0.00    +0.011 C 
ATOM     16  C   UNL     1      34.529 -15.920 -23.444  0.00  0.00    +0.015 C 
ATOM     17  C   UNL     1      34.085 -15.497 -24.814  0.00  0.00    +0.033 C 
ATOM     18  C   UNL     1      34.458 -15.038 -22.364  0.00  0.00    +0.154 C 
ATOM     19  C   UNL     1      33.212 -14.253 -24.724  0.00  0.00    +0.052 C 
ATOM     20  C   UNL     1      34.870 -15.485 -21.118  0.00  0.00    +0.135 C 
ATOM     21  C   UNL     1      33.860 -13.251 -23.780  0.00  0.00    +0.206 C 
ENDBRANCH  11  14
ENDBRANCH   8  11
ENDBRANCH   2   8
BRANCH   1  22
ATOM     22  C   UNL     1      35.831 -23.034 -17.048  0.00  0.00    -0.055 C 
BRANCH  22  28
ATOM     23  O   UNL     1      32.643 -22.841 -15.902  0.00  0.00    -0.273 OA
ATOM     24  O   UNL     1      38.658 -23.776 -12.608  0.00  0.00    -0.270 OA
ATOM     25  N   UNL     1      34.695 -23.199 -14.848  0.00  0.00    -0.261 N 
ATOM     26  N   UNL     1      36.640 -23.510 -13.724  0.00  0.00    -0.255 N 
ATOM     27  N   UNL     1      33.304 -24.770 -12.986  0.00  0.00    -0.262 NA
ATOM     28  C   UNL     1      35.690 -22.455 -15.646  0.00  0.00    +0.076 C 
ATOM     29  C   UNL     1      36.999 -22.604 -14.825  0.00  0.00    +0.113 C 
ATOM     30  C   UNL     1      35.308 -23.785 -13.789  0.00  0.00    +0.196 C 
ATOM     31  C   UNL     1      34.653 -24.534 -12.906  0.00  0.00    +0.092 C 
ATOM     32  C   UNL     1      33.342 -23.328 -15.028  0.00  0.00    +0.252 C 
ATOM     33  C   UNL     1      37.456 -24.000 -12.722  0.00  0.00    +0.251 C 
ATOM     34  C   UNL     1      35.422 -25.104 -11.822  0.00  0.00    +0.022 C 
ATOM     35  C   UNL     1      32.680 -24.204 -13.978  0.00  0.00    +0.210 C 
ATOM     36  C   UNL     1      36.743 -24.870 -11.717  0.00  0.00    +0.059 C 
ENDBRANCH  22  28
ENDBRANCH   1  22
TORSDOF 5
ENDMDL
MODEL 9
REMARK VINA RESULT:     -11.1      6.848     11.050
REMARK  Name = 25101874
REMARK  5 active torsions:
REMARK  status: ('A' for Active; 'I' for Inactive)
REMARK    1  A    between atoms: N_1  and  C_22
REMARK    2  A    between atoms: C_2  and  N_8
REMARK    3  A    between atoms: N_8  and  C_11
REMARK    4  A    between atoms: C_11  and  C_14
REMARK    5  A    between atoms: C_22  and  C_28
REMARK                            x       y       z     vdW  Elec       q    Type
REMARK                         _______ _______ _______ _____ _____    ______ ____
ROOT
ATOM      1  N   UNL     1      33.049 -12.710 -22.937  0.00  0.00    +0.388 N 
ATOM      2  C   UNL     1      32.336  -9.895 -22.577  0.00  0.00    -0.066 C 
ATOM      3  C   UNL     1      31.870 -12.337 -22.145  0.00  0.00    -0.079 C 
ATOM      4  C   UNL     1      33.301 -11.735 -24.009  0.00  0.00    -0.079 C 
ATOM      5  C   UNL     1      32.045 -10.955 -21.510  0.00  0.00    -0.044 C 
ATOM      6  C   UNL     1      33.524 -10.333 -23.437  0.00  0.00    -0.044 C 
ATOM      7  H   UNL     1      33.858 -12.709 -22.316  0.00  0.00    -0.080 HD
ENDROOT
BRANCH   2   8
ATOM      8  N   UNL     1      32.594  -8.603 -21.947  0.00  0.00    +0.389 N 
ATOM      9  H   UNL     1      32.713  -8.737 -20.943  0.00  0.00    -0.084 HD
ATOM     10  H   UNL     1      31.803  -7.985 -22.132  0.00  0.00    -0.084 HD
BRANCH   8  11
ATOM     11  C   UNL     1      33.798  -7.993 -22.493  0.00  0.00    -0.034 C 
BRANCH  11  14
ATOM     12  O   UNL     1      32.465  -3.518 -25.574  0.00  0.00    -0.474 OA
ATOM     13  N   UNL     1      32.362  -6.110 -23.044  0.00  0.00    -0.247 NA
ATOM     14  C   UNL     1      33.481  -6.800 -23.355  0.00  0.00    +0.037 C 
ATOM     15  C   UNL     1      34.330  -6.474 -24.401  0.00  0.00    +0.011 C 
ATOM     16  C   UNL     1      34.013  -5.367 -25.191  0.00  0.00    +0.015 C 
ATOM     17  C   UNL     1      34.900  -4.974 -26.336  0.00  0.00    +0.033 C 
ATOM     18  C   UNL     1      32.875  -4.620 -24.878  0.00  0.00    +0.154 C 
ATOM     19  C   UNL     1      34.166  -4.019 -27.268  0.00  0.00    +0.052 C 
ATOM     20  C   UNL     1      32.084  -5.036 -23.816  0.00  0.00    +0.135 C 
ATOM     21  C   UNL     1      33.458  -2.956 -26.441  0.00  0.00    +0.206 C 
ENDBRANCH  11  14
ENDBRANCH   8  11
ENDBRANCH   2   8
BRANCH   1  22
ATOM     22  C   UNL     1      32.888 -14.053 -23.494  0.00  0.00    -0.055 C 
BRANCH  22  28
ATOM     23  O   UNL     1      34.925 -14.133 -20.781  0.00  0.00    -0.273 OA
ATOM     24  O   UNL     1      34.270 -18.438 -26.162  0.00  0.00    -0.270 OA
ATOM     25  N   UNL     1      34.631 -15.574 -22.595  0.00  0.00    -0.261 N 
ATOM     26  N   UNL     1      34.451 -17.015 -24.337  0.00  0.00    -0.255 N 
ATOM     27  N   UNL     1      35.312 -17.669 -20.859  0.00  0.00    -0.262 NA
ATOM     28  C   UNL     1      34.240 -14.714 -23.730  0.00  0.00    +0.076 C 
ATOM     29  C   UNL     1      34.202 -15.695 -24.933  0.00  0.00    +0.113 C 
ATOM     30  C   UNL     1      34.711 -16.864 -23.009  0.00  0.00    +0.196 C 
ATOM     31  C   UNL     1      35.030 -17.861 -22.188  0.00  0.00    +0.092 C 
ATOM     32  C   UNL     1      34.920 -15.239 -21.298  0.00  0.00    +0.252 C 
ATOM     33  C   UNL     1      34.485 -18.244 -24.968  0.00  0.00    +0.251 C 
ATOM     34  C   UNL     1      35.081 -19.191 -22.752  0.00  0.00    +0.022 C 
ATOM     35  C   UNL     1      35.266 -16.440 -20.433  0.00  0.00    +0.210 C 
ATOM     36  C   UNL     1      34.825 -19.397 -24.057  0.00  0.00    +0.059 C 
ENDBRANCH  22  28
ENDBRANCH   1  22
TORSDOF 5
ENDMDL
