MODEL 1
REMARK VINA RESULT:     -13.7      0.000      0.000
REMARK  Name = 25145656
REMARK  4 active torsions:
REMARK  status: ('A' for Active; 'I' for Inactive)
REMARK    1  A    between atoms: C_5  and  C_22
REMARK    2  A    between atoms: C_8  and  C_11
REMARK    3  A    between atoms: C_14  and  C_19
REMARK    4  A    between atoms: C_22  and  C_24
REMARK                            x       y       z     vdW  Elec       q    Type
REMARK                         _______ _______ _______ _____ _____    ______ ____
ROOT
ATOM      1  N   UNL     1      34.444 -16.800 -24.245  0.00  0.00    -0.134 N 
ATOM      2  N   UNL     1      34.323 -15.538 -23.776  0.00  0.00    -0.168 NA
ATOM      3  N   UNL     1      34.266 -18.555 -25.590  0.00  0.00    -0.178 NA
ATOM      4  N   UNL     1      33.255 -16.463 -26.270  0.00  0.00    -0.200 NA
ATOM      5  C   UNL     1      35.089 -17.829 -23.615  0.00  0.00    +0.086 C 
ATOM      6  C   UNL     1      33.954 -17.279 -25.444  0.00  0.00    +0.114 C 
ATOM      7  C   UNL     1      34.965 -18.900 -24.464  0.00  0.00    +0.124 C 
ATOM      8  C   UNL     1      33.675 -14.734 -24.565  0.00  0.00    +0.103 C 
ATOM      9  C   UNL     1      33.104 -15.245 -25.866  0.00  0.00    +0.184 C 
ENDROOT
BRANCH   8  11
ATOM     10  F   UNL     1      32.129 -11.359 -21.439  0.00  0.00    -0.204 F 
ATOM     11  C   UNL     1      33.483 -13.315 -24.187  0.00  0.00    +0.019 C 
ATOM     12  C   UNL     1      32.885 -12.993 -22.969  0.00  0.00    +0.031 C 
ATOM     13  C   UNL     1      33.902 -12.301 -25.048  0.00  0.00    +0.002 C 
ATOM     14  C   UNL     1      33.123 -10.642 -23.473  0.00  0.00    +0.081 C 
ATOM     15  C   UNL     1      32.705 -11.657 -22.612  0.00  0.00    +0.144 C 
ATOM     16  C   UNL     1      33.722 -10.965 -24.691  0.00  0.00    +0.007 C 
BRANCH  14  19
ATOM     17  O   UNL     1      33.913  -8.542 -22.795  0.00  0.00    -0.270 OA
ATOM     18  N   UNL     1      31.631  -8.750 -23.141  0.00  0.00    -0.299 N 
ATOM     19  C   UNL     1      32.938  -9.248 -23.105  0.00  0.00    +0.248 C 
ATOM     20  C   UNL     1      31.288  -7.381 -22.827  0.00  0.00    +0.111 C 
ATOM     21  H   UNL     1      30.904  -9.364 -23.395  0.00  0.00    +0.150 HD
ENDBRANCH  14  19
ENDBRANCH   8  11
BRANCH   5  22
ATOM     22  C   UNL     1      35.761 -17.691 -22.263  0.00  0.00    +0.068 C 
BRANCH  22  24
ATOM     23  N   UNL     1      35.561 -22.371 -19.089  0.00  0.00    -0.248 NA
ATOM     24  C   UNL     1      35.698 -18.924 -21.427  0.00  0.00    -0.038 C 
ATOM     25  C   UNL     1      34.468 -19.491 -21.107  0.00  0.00    +0.050 C 
ATOM     26  C   UNL     1      34.404 -20.652 -20.320  0.00  0.00    -0.004 C 
ATOM     27  C   UNL     1      36.867 -19.515 -20.964  0.00  0.00    -0.028 C 
ATOM     28  C   UNL     1      35.587 -21.258 -19.845  0.00  0.00    +0.060 C 
ATOM     29  C   UNL     1      36.803 -20.670 -20.181  0.00  0.00    +0.071 C 
ATOM     30  C   UNL     1      33.179 -21.244 -19.983  0.00  0.00    -0.001 C 
ATOM     31  C   UNL     1      33.150 -22.392 -19.203  0.00  0.00    +0.020 C 
ATOM     32  C   UNL     1      34.358 -22.911 -18.786  0.00  0.00    +0.098 C 
ENDBRANCH  22  24
ENDBRANCH   5  22
TORSDOF 4
ENDMDL
MODEL 2
REMARK VINA RESULT:     -12.6      1.515      2.116
REMARK  Name = 25145656
REMARK  4 active torsions:
REMARK  status: ('A' for Active; 'I' for Inactive)
REMARK    1  A    between atoms: C_5  and  C_22
REMARK    2  A    between atoms: C_8  and  C_11
REMARK    3  A    between atoms: C_14  and  C_19
REMARK    4  A    between atoms: C_22  and  C_24
REMARK                            x       y       z     vdW  Elec       q    Type
REMARK                         _______ _______ _______ _____ _____    ______ ____
ROOT
ATOM      1  N   UNL     1      34.269 -17.580 -24.387  0.00  0.00    -0.134 N 
ATOM      2  N   UNL     1      34.207 -16.325 -23.891  0.00  0.00    -0.168 NA
ATOM      3  N   UNL     1      34.076 -19.280 -25.799  0.00  0.00    -0.178 NA
ATOM      4  N   UNL     1      33.307 -17.095 -26.501  0.00  0.00    -0.200 NA
ATOM      5  C   UNL     1      34.765 -18.676 -23.733  0.00  0.00    +0.086 C 
ATOM      6  C   UNL     1      33.857 -17.987 -25.641  0.00  0.00    +0.114 C 
ATOM      7  C   UNL     1      34.636 -19.711 -24.625  0.00  0.00    +0.124 C 
ATOM      8  C   UNL     1      33.704 -15.450 -24.709  0.00  0.00    +0.103 C 
ATOM      9  C   UNL     1      33.219 -15.879 -26.073  0.00  0.00    +0.184 C 
ENDROOT
BRANCH   8  11
ATOM     10  F   UNL     1      34.216 -10.723 -25.678  0.00  0.00    -0.204 F 
ATOM     11  C   UNL     1      33.594 -14.029 -24.304  0.00  0.00    +0.019 C 
ATOM     12  C   UNL     1      33.962 -13.021 -25.195  0.00  0.00    +0.031 C 
ATOM     13  C   UNL     1      33.121 -13.701 -23.034  0.00  0.00    +0.002 C 
ATOM     14  C   UNL     1      33.387 -11.354 -23.544  0.00  0.00    +0.081 C 
ATOM     15  C   UNL     1      33.859 -11.684 -24.814  0.00  0.00    +0.144 C 
ATOM     16  C   UNL     1      33.018 -12.363 -22.654  0.00  0.00    +0.007 C 
BRANCH  14  19
ATOM     17  O   UNL     1      32.283  -9.562 -22.510  0.00  0.00    -0.270 OA
ATOM     18  N   UNL     1      34.339  -9.116 -23.483  0.00  0.00    -0.299 N 
ATOM     19  C   UNL     1      33.276  -9.960 -23.143  0.00  0.00    +0.248 C 
ATOM     20  C   UNL     1      34.388  -7.713 -23.136  0.00  0.00    +0.111 C 
ATOM     21  H   UNL     1      35.095  -9.496 -23.986  0.00  0.00    +0.150 HD
ENDBRANCH  14  19
ENDBRANCH   8  11
BRANCH   5  22
ATOM     22  C   UNL     1      35.316 -18.627 -22.322  0.00  0.00    +0.068 C 
BRANCH  22  24
ATOM     23  N   UNL     1      32.907 -22.361 -18.818  0.00  0.00    -0.248 NA
ATOM     24  C   UNL     1      34.690 -19.613 -21.395  0.00  0.00    -0.038 C 
ATOM     25  C   UNL     1      35.483 -20.359 -20.528  0.00  0.00    +0.050 C 
ATOM     26  C   UNL     1      34.898 -21.289 -19.652  0.00  0.00    -0.004 C 
ATOM     27  C   UNL     1      33.312 -19.794 -21.391  0.00  0.00    -0.028 C 
ATOM     28  C   UNL     1      33.499 -21.478 -19.643  0.00  0.00    +0.060 C 
ATOM     29  C   UNL     1      32.731 -20.719 -20.521  0.00  0.00    +0.071 C 
ATOM     30  C   UNL     1      35.672 -22.053 -18.768  0.00  0.00    -0.001 C 
ATOM     31  C   UNL     1      35.063 -22.965 -17.916  0.00  0.00    +0.020 C 
ATOM     32  C   UNL     1      33.690 -23.079 -17.980  0.00  0.00    +0.098 C 
ENDBRANCH  22  24
ENDBRANCH   5  22
TORSDOF 4
ENDMDL
MODEL 3
REMARK VINA RESULT:     -12.1      3.542      9.589
REMARK  Name = 25145656
REMARK  4 active torsions:
REMARK  status: ('A' for Active; 'I' for Inactive)
REMARK    1  A    between atoms: C_5  and  C_22
REMARK    2  A    between atoms: C_8  and  C_11
REMARK    3  A    between atoms: C_14  and  C_19
REMARK    4  A    between atoms: C_22  and  C_24
REMARK                            x       y       z     vdW  Elec       q    Type
REMARK                         _______ _______ _______ _____ _____    ______ ____
ROOT
ATOM      1  N   UNL     1      34.211 -16.808 -24.226  0.00  0.00    -0.134 N 
ATOM      2  N   UNL     1      34.569 -17.476 -23.107  0.00  0.00    -0.168 NA
ATOM      3  N   UNL     1      33.448 -16.417 -26.272  0.00  0.00    -0.178 NA
ATOM      4  N   UNL     1      33.534 -18.703 -25.481  0.00  0.00    -0.200 NA
ATOM      5  C   UNL     1      34.284 -15.453 -24.406  0.00  0.00    +0.086 C 
ATOM      6  C   UNL     1      33.700 -17.361 -25.383  0.00  0.00    +0.114 C 
ATOM      7  C   UNL     1      33.807 -15.237 -25.675  0.00  0.00    +0.124 C 
ATOM      8  C   UNL     1      34.395 -18.762 -23.173  0.00  0.00    +0.103 C 
ATOM      9  C   UNL     1      33.866 -19.392 -24.439  0.00  0.00    +0.184 C 
ENDROOT
BRANCH   8  11
ATOM     10  F   UNL     1      33.024 -21.574 -19.463  0.00  0.00    -0.204 F 
ATOM     11  C   UNL     1      34.726 -19.618 -22.011  0.00  0.00    +0.019 C 
ATOM     12  C   UNL     1      33.704 -20.206 -21.266  0.00  0.00    +0.031 C 
ATOM     13  C   UNL     1      36.059 -19.837 -21.662  0.00  0.00    +0.002 C 
ATOM     14  C   UNL     1      35.347 -21.232 -19.822  0.00  0.00    +0.081 C 
ATOM     15  C   UNL     1      34.015 -21.013 -20.172  0.00  0.00    +0.144 C 
ATOM     16  C   UNL     1      36.369 -20.643 -20.567  0.00  0.00    +0.007 C 
BRANCH  14  19
ATOM     17  O   UNL     1      35.036 -23.116 -18.461  0.00  0.00    -0.270 OA
ATOM     18  N   UNL     1      36.745 -21.663 -17.877  0.00  0.00    -0.299 N 
ATOM     19  C   UNL     1      35.676 -22.073 -18.682  0.00  0.00    +0.248 C 
ATOM     20  C   UNL     1      37.208 -22.402 -16.725  0.00  0.00    +0.111 C 
ATOM     21  H   UNL     1      37.208 -20.825 -18.108  0.00  0.00    +0.150 HD
ENDBRANCH  14  19
ENDBRANCH   8  11
BRANCH   5  22
ATOM     22  C   UNL     1      34.800 -14.497 -23.350  0.00  0.00    +0.068 C 
BRANCH  22  24
ATOM     23  N   UNL     1      31.161 -10.373 -22.017  0.00  0.00    -0.248 NA
ATOM     24  C   UNL     1      33.846 -13.404 -23.005  0.00  0.00    -0.038 C 
ATOM     25  C   UNL     1      33.971 -12.152 -23.600  0.00  0.00    +0.050 C 
ATOM     26  C   UNL     1      33.074 -11.119 -23.279  0.00  0.00    -0.004 C 
ATOM     27  C   UNL     1      32.827 -13.629 -22.088  0.00  0.00    -0.028 C 
ATOM     28  C   UNL     1      32.036 -11.340 -22.348  0.00  0.00    +0.060 C 
ATOM     29  C   UNL     1      31.935 -12.602 -21.769  0.00  0.00    +0.071 C 
ATOM     30  C   UNL     1      33.176  -9.850 -23.863  0.00  0.00    -0.001 C 
ATOM     31  C   UNL     1      32.274  -8.851 -23.523  0.00  0.00    +0.020 C 
ATOM     32  C   UNL     1      31.294  -9.161 -22.604  0.00  0.00    +0.098 C 
ENDBRANCH  22  24
ENDBRANCH   5  22
TORSDOF 4
ENDMDL
MODEL 4
REMARK VINA RESULT:     -11.9      3.180     10.206
REMARK  Name = 25145656
REMARK  4 active torsions:
REMARK  status: ('A' for Active; 'I' for Inactive)
REMARK    1  A    between atoms: C_5  and  C_22
REMARK    2  A    between atoms: C_8  and  C_11
REMARK    3  A    between atoms: C_14  and  C_19
REMARK    4  A    between atoms: C_22  and  C_24
REMARK                            x       y       z     vdW  Elec       q    Type
REMARK                         _______ _______ _______ _____ _____    ______ ____
ROOT
ATOM      1  N   UNL     1      33.713 -13.684 -24.887  0.00  0.00    -0.134 N 
ATOM      2  N   UNL     1      34.167 -14.530 -23.936  0.00  0.00    -0.168 NA
ATOM      3  N   UNL     1      32.942 -12.946 -26.832  0.00  0.00    -0.178 NA
ATOM      4  N   UNL     1      33.457 -15.301 -26.604  0.00  0.00    -0.200 NA
ATOM      5  C   UNL     1      33.522 -12.337 -24.734  0.00  0.00    +0.086 C 
ATOM      6  C   UNL     1      33.352 -14.018 -26.177  0.00  0.00    +0.114 C 
ATOM      7  C   UNL     1      33.046 -11.906 -25.947  0.00  0.00    +0.124 C 
ATOM      8  C   UNL     1      34.252 -15.769 -24.319  0.00  0.00    +0.103 C 
ATOM      9  C   UNL     1      33.891 -16.152 -25.734  0.00  0.00    +0.184 C 
ENDROOT
BRANCH   8  11
ATOM     10  F   UNL     1      35.268 -20.402 -23.290  0.00  0.00    -0.204 F 
ATOM     11  C   UNL     1      34.715 -16.810 -23.373  0.00  0.00    +0.019 C 
ATOM     12  C   UNL     1      34.777 -18.143 -23.779  0.00  0.00    +0.031 C 
ATOM     13  C   UNL     1      35.089 -16.458 -22.076  0.00  0.00    +0.002 C 
ATOM     14  C   UNL     1      35.586 -18.772 -21.591  0.00  0.00    +0.081 C 
ATOM     15  C   UNL     1      35.213 -19.123 -22.888  0.00  0.00    +0.144 C 
ATOM     16  C   UNL     1      35.525 -17.439 -21.186  0.00  0.00    +0.007 C 
BRANCH  14  19
ATOM     17  O   UNL     1      37.203 -19.767 -20.215  0.00  0.00    -0.270 OA
ATOM     18  N   UNL     1      35.113 -20.768 -20.282  0.00  0.00    -0.299 N 
ATOM     19  C   UNL     1      36.042 -19.791 -20.660  0.00  0.00    +0.248 C 
ATOM     20  C   UNL     1      35.406 -21.831 -19.348  0.00  0.00    +0.111 C 
ATOM     21  H   UNL     1      34.211 -20.729 -20.673  0.00  0.00    +0.150 HD
ENDBRANCH  14  19
ENDBRANCH   8  11
BRANCH   5  22
ATOM     22  C   UNL     1      33.812 -11.594 -23.446  0.00  0.00    +0.068 C 
BRANCH  22  24
ATOM     23  N   UNL     1      33.253  -5.978 -23.861  0.00  0.00    -0.248 NA
ATOM     24  C   UNL     1      33.655 -10.115 -23.552  0.00  0.00    -0.038 C 
ATOM     25  C   UNL     1      32.423  -9.521 -23.292  0.00  0.00    +0.050 C 
ATOM     26  C   UNL     1      32.271  -8.128 -23.391  0.00  0.00    -0.004 C 
ATOM     27  C   UNL     1      34.736  -9.321 -23.913  0.00  0.00    -0.028 C 
ATOM     28  C   UNL     1      33.365  -7.315 -23.757  0.00  0.00    +0.060 C 
ATOM     29  C   UNL     1      34.585  -7.936 -24.012  0.00  0.00    +0.071 C 
ATOM     30  C   UNL     1      31.043  -7.504 -23.133  0.00  0.00    -0.001 C 
ATOM     31  C   UNL     1      30.925  -6.125 -23.240  0.00  0.00    +0.020 C 
ATOM     32  C   UNL     1      32.050  -5.415 -23.604  0.00  0.00    +0.098 C 
ENDBRANCH  22  24
ENDBRANCH   5  22
TORSDOF 4
ENDMDL
MODEL 5
REMARK VINA RESULT:     -11.8      3.336      6.225
REMARK  Name = 25145656
REMARK  4 active torsions:
REMARK  status: ('A' for Active; 'I' for Inactive)
REMARK    1  A    between atoms: C_5  and  C_22
REMARK    2  A    between atoms: C_8  and  C_11
REMARK    3  A    between atoms: C_14  and  C_19
REMARK    4  A    between atoms: C_22  and  C_24
REMARK                            x       y       z     vdW  Elec       q    Type
REMARK                         _______ _______ _______ _____ _____    ______ ____
ROOT
ATOM      1  N   UNL     1      32.574 -11.625 -22.424  0.00  0.00    -0.134 N 
ATOM      2  N   UNL     1      32.771 -10.484 -23.120  0.00  0.00    -0.168 NA
ATOM      3  N   UNL     1      31.874 -13.011 -20.838  0.00  0.00    -0.178 NA
ATOM      4  N   UNL     1      31.343 -10.658 -20.641  0.00  0.00    -0.200 NA
ATOM      5  C   UNL     1      33.018 -12.869 -22.783  0.00  0.00    +0.086 C 
ATOM      6  C   UNL     1      31.883 -11.751 -21.234  0.00  0.00    +0.114 C 
ATOM      7  C   UNL     1      32.574 -13.706 -21.790  0.00  0.00    +0.124 C 
ATOM      8  C   UNL     1      32.240  -9.429 -22.579  0.00  0.00    +0.103 C 
ATOM      9  C   UNL     1      31.508  -9.537 -21.264  0.00  0.00    +0.184 C 
ENDROOT
BRANCH   8  11
ATOM     10  F   UNL     1      34.950  -5.875 -24.472  0.00  0.00    -0.204 F 
ATOM     11  C   UNL     1      32.360  -8.111 -23.245  0.00  0.00    +0.019 C 
ATOM     12  C   UNL     1      33.620  -7.599 -23.553  0.00  0.00    +0.031 C 
ATOM     13  C   UNL     1      31.214  -7.384 -23.565  0.00  0.00    +0.002 C 
ATOM     14  C   UNL     1      32.588  -5.630 -24.500  0.00  0.00    +0.081 C 
ATOM     15  C   UNL     1      33.734  -6.358 -24.180  0.00  0.00    +0.144 C 
ATOM     16  C   UNL     1      31.328  -6.143 -24.192  0.00  0.00    +0.007 C 
BRANCH  14  19
ATOM     17  O   UNL     1      33.302  -4.228 -26.239  0.00  0.00    -0.270 OA
ATOM     18  N   UNL     1      32.090  -3.249 -24.522  0.00  0.00    -0.299 N 
ATOM     19  C   UNL     1      32.701  -4.337 -25.155  0.00  0.00    +0.248 C 
ATOM     20  C   UNL     1      32.094  -1.906 -25.058  0.00  0.00    +0.111 C 
ATOM     21  H   UNL     1      31.632  -3.405 -23.665  0.00  0.00    +0.150 HD
ENDBRANCH  14  19
ENDBRANCH   8  11
BRANCH   5  22
ATOM     22  C   UNL     1      33.822 -13.138 -24.039  0.00  0.00    +0.068 C 
BRANCH  22  24
ATOM     23  N   UNL     1      33.942 -18.580 -25.585  0.00  0.00    -0.248 NA
ATOM     24  C   UNL     1      33.859 -14.574 -24.438  0.00  0.00    -0.038 C 
ATOM     25  C   UNL     1      34.509 -15.507 -23.635  0.00  0.00    +0.050 C 
ATOM     26  C   UNL     1      34.546 -16.861 -24.007  0.00  0.00    -0.004 C 
ATOM     27  C   UNL     1      33.245 -14.989 -25.613  0.00  0.00    -0.028 C 
ATOM     28  C   UNL     1      33.925 -17.291 -25.199  0.00  0.00    +0.060 C 
ATOM     29  C   UNL     1      33.282 -16.336 -25.982  0.00  0.00    +0.071 C 
ATOM     30  C   UNL     1      35.192 -17.822 -23.217  0.00  0.00    -0.001 C 
ATOM     31  C   UNL     1      35.212 -19.152 -23.613  0.00  0.00    +0.020 C 
ATOM     32  C   UNL     1      34.577 -19.476 -24.794  0.00  0.00    +0.098 C 
ENDBRANCH  22  24
ENDBRANCH   5  22
TORSDOF 4
ENDMDL
MODEL 6
REMARK VINA RESULT:     -11.6      3.923      9.856
REMARK  Name = 25145656
REMARK  4 active torsions:
REMARK  status: ('A' for Active; 'I' for Inactive)
REMARK    1  A    between atoms: C_5  and  C_22
REMARK    2  A    between atoms: C_8  and  C_11
REMARK    3  A    between atoms: C_14  and  C_19
REMARK    4  A    between atoms: C_22  and  C_24
REMARK                            x       y       z     vdW  Elec       q    Type
REMARK                         _______ _______ _______ _____ _____    ______ ____
ROOT
ATOM      1  N   UNL     1      34.708 -17.340 -23.249  0.00  0.00    -0.134 N 
ATOM      2  N   UNL     1      34.755 -18.074 -22.116  0.00  0.00    -0.168 NA
ATOM      3  N   UNL     1      34.554 -16.830 -25.403  0.00  0.00    -0.178 NA
ATOM      4  N   UNL     1      34.507 -19.162 -24.756  0.00  0.00    -0.200 NA
ATOM      5  C   UNL     1      34.770 -15.975 -23.322  0.00  0.00    +0.086 C 
ATOM      6  C   UNL     1      34.578 -17.826 -24.536  0.00  0.00    +0.114 C 
ATOM      7  C   UNL     1      34.673 -15.685 -24.660  0.00  0.00    +0.124 C 
ATOM      8  C   UNL     1      34.665 -19.357 -22.304  0.00  0.00    +0.103 C 
ATOM      9  C   UNL     1      34.553 -19.911 -23.704  0.00  0.00    +0.184 C 
ENDROOT
BRANCH   8  11
ATOM     10  F   UNL     1      37.089 -21.952 -18.997  0.00  0.00    -0.204 F 
ATOM     11  C   UNL     1      34.682 -20.282 -21.148  0.00  0.00    +0.019 C 
ATOM     12  C   UNL     1      35.898 -20.693 -20.603  0.00  0.00    +0.031 C 
ATOM     13  C   UNL     1      33.482 -20.741 -20.604  0.00  0.00    +0.002 C 
ATOM     14  C   UNL     1      34.715 -22.024 -18.970  0.00  0.00    +0.081 C 
ATOM     15  C   UNL     1      35.914 -21.564 -19.513  0.00  0.00    +0.144 C 
ATOM     16  C   UNL     1      33.499 -21.612 -19.515  0.00  0.00    +0.007 C 
BRANCH  14  19
ATOM     17  O   UNL     1      33.958 -23.908 -17.796  0.00  0.00    -0.270 OA
ATOM     18  N   UNL     1      35.651 -22.663 -16.816  0.00  0.00    -0.299 N 
ATOM     19  C   UNL     1      34.727 -22.932 -17.833  0.00  0.00    +0.248 C 
ATOM     20  C   UNL     1      35.801 -23.484 -15.636  0.00  0.00    +0.111 C 
ATOM     21  H   UNL     1      36.230 -21.873 -16.909  0.00  0.00    +0.150 HD
ENDBRANCH  14  19
ENDBRANCH   8  11
BRANCH   5  22
ATOM     22  C   UNL     1      34.916 -15.080 -22.108  0.00  0.00    +0.068 C 
BRANCH  22  24
ATOM     23  N   UNL     1      31.229 -10.791 -21.949  0.00  0.00    -0.248 NA
ATOM     24  C   UNL     1      33.950 -13.945 -22.073  0.00  0.00    -0.038 C 
ATOM     25  C   UNL     1      34.131 -12.846 -22.908  0.00  0.00    +0.050 C 
ATOM     26  C   UNL     1      33.223 -11.775 -22.879  0.00  0.00    -0.004 C 
ATOM     27  C   UNL     1      32.864 -13.978 -21.207  0.00  0.00    -0.028 C 
ATOM     28  C   UNL     1      32.117 -11.801 -22.002  0.00  0.00    +0.060 C 
ATOM     29  C   UNL     1      31.961 -12.912 -21.178  0.00  0.00    +0.071 C 
ATOM     30  C   UNL     1      33.380 -10.657 -23.709  0.00  0.00    -0.001 C 
ATOM     31  C   UNL     1      32.465  -9.614 -23.656  0.00  0.00    +0.020 C 
ATOM     32  C   UNL     1      31.417  -9.729 -22.767  0.00  0.00    +0.098 C 
ENDBRANCH  22  24
ENDBRANCH   5  22
TORSDOF 4
ENDMDL
MODEL 7
REMARK VINA RESULT:     -11.6      6.025     12.157
REMARK  Name = 25145656
REMARK  4 active torsions:
REMARK  status: ('A' for Active; 'I' for Inactive)
REMARK    1  A    between atoms: C_5  and  C_22
REMARK    2  A    between atoms: C_8  and  C_11
REMARK    3  A    between atoms: C_14  and  C_19
REMARK    4  A    between atoms: C_22  and  C_24
REMARK                            x       y       z     vdW  Elec       q    Type
REMARK                         _______ _______ _______ _____ _____    ______ ____
ROOT
ATOM      1  N   UNL     1      34.213 -22.003 -18.779  0.00  0.00    -0.134 N 
ATOM      2  N   UNL     1      35.293 -22.467 -18.112  0.00  0.00    -0.168 NA
ATOM      3  N   UNL     1      32.094 -21.615 -19.312  0.00  0.00    -0.178 NA
ATOM      4  N   UNL     1      32.572 -22.995 -17.382  0.00  0.00    -0.200 NA
ATOM      5  C   UNL     1      34.240 -21.216 -19.899  0.00  0.00    +0.086 C 
ATOM      6  C   UNL     1      32.889 -22.227 -18.452  0.00  0.00    +0.114 C 
ATOM      7  C   UNL     1      32.922 -20.990 -20.207  0.00  0.00    +0.124 C 
ATOM      8  C   UNL     1      35.009 -23.187 -17.069  0.00  0.00    +0.103 C 
ATOM      9  C   UNL     1      33.570 -23.469 -16.710  0.00  0.00    +0.184 C 
ENDROOT
BRANCH   8  11
ATOM     10  F   UNL     1      36.692 -26.559 -14.012  0.00  0.00    -0.204 F 
ATOM     11  C   UNL     1      36.097 -23.743 -16.231  0.00  0.00    +0.019 C 
ATOM     12  C   UNL     1      35.884 -24.911 -15.500  0.00  0.00    +0.031 C 
ATOM     13  C   UNL     1      37.332 -23.099 -16.173  0.00  0.00    +0.002 C 
ATOM     14  C   UNL     1      38.143 -24.792 -14.652  0.00  0.00    +0.081 C 
ATOM     15  C   UNL     1      36.908 -25.435 -14.711  0.00  0.00    +0.144 C 
ATOM     16  C   UNL     1      38.355 -23.623 -15.384  0.00  0.00    +0.007 C 
BRANCH  14  19
ATOM     17  O   UNL     1      39.346 -24.978 -12.648  0.00  0.00    -0.270 OA
ATOM     18  N   UNL     1      40.055 -26.281 -14.430  0.00  0.00    -0.299 N 
ATOM     19  C   UNL     1      39.214 -25.335 -13.832  0.00  0.00    +0.248 C 
ATOM     20  C   UNL     1      41.147 -26.929 -13.739  0.00  0.00    +0.111 C 
ATOM     21  H   UNL     1      39.894 -26.518 -15.372  0.00  0.00    +0.150 HD
ENDBRANCH  14  19
ENDBRANCH   8  11
BRANCH   5  22
ATOM     22  C   UNL     1      35.521 -20.756 -20.565  0.00  0.00    +0.068 C 
BRANCH  22  24
ATOM     23  N   UNL     1      34.863 -16.310 -24.003  0.00  0.00    -0.248 NA
ATOM     24  C   UNL     1      35.344 -19.591 -21.478  0.00  0.00    -0.038 C 
ATOM     25  C   UNL     1      34.784 -19.769 -22.740  0.00  0.00    +0.050 C 
ATOM     26  C   UNL     1      34.615 -18.674 -23.603  0.00  0.00    -0.004 C 
ATOM     27  C   UNL     1      35.735 -18.320 -21.074  0.00  0.00    -0.028 C 
ATOM     28  C   UNL     1      35.010 -17.380 -23.200  0.00  0.00    +0.060 C 
ATOM     29  C   UNL     1      35.567 -17.231 -21.933  0.00  0.00    +0.071 C 
ATOM     30  C   UNL     1      34.054 -18.824 -24.878  0.00  0.00    -0.001 C 
ATOM     31  C   UNL     1      33.901 -17.722 -25.708  0.00  0.00    +0.020 C 
ATOM     32  C   UNL     1      34.317 -16.499 -25.227  0.00  0.00    +0.098 C 
ENDBRANCH  22  24
ENDBRANCH   5  22
TORSDOF 4
ENDMDL
MODEL 8
REMARK VINA RESULT:     -11.3      3.426      9.839
REMARK  Name = 25145656
REMARK  4 active torsions:
REMARK  status: ('A' for Active; 'I' for Inactive)
REMARK    1  A    between atoms: C_5  and  C_22
REMARK    2  A    between atoms: C_8  and  C_11
REMARK    3  A    between atoms: C_14  and  C_19
REMARK    4  A    between atoms: C_22  and  C_24
REMARK                            x       y       z     vdW  Elec       q    Type
REMARK                         _______ _______ _______ _____ _____    ______ ____
ROOT
ATOM      1  N   UNL     1      33.964 -15.945 -24.365  0.00  0.00    -0.134 N 
ATOM      2  N   UNL     1      34.256 -16.710 -23.290  0.00  0.00    -0.168 NA
ATOM      3  N   UNL     1      33.603 -15.353 -26.472  0.00  0.00    -0.178 NA
ATOM      4  N   UNL     1      34.257 -17.636 -26.002  0.00  0.00    -0.200 NA
ATOM      5  C   UNL     1      33.624 -14.619 -24.335  0.00  0.00    +0.086 C 
ATOM      6  C   UNL     1      33.943 -16.357 -25.683  0.00  0.00    +0.114 C 
ATOM      7  C   UNL     1      33.406 -14.278 -25.646  0.00  0.00    +0.124 C 
ATOM      8  C   UNL     1      34.538 -17.946 -23.574  0.00  0.00    +0.103 C 
ATOM      9  C   UNL     1      34.551 -18.410 -25.010  0.00  0.00    +0.184 C 
ENDROOT
BRANCH   8  11
ATOM     10  F   UNL     1      37.716 -19.960 -20.509  0.00  0.00    -0.204 F 
ATOM     11  C   UNL     1      34.858 -18.904 -22.490  0.00  0.00    +0.019 C 
ATOM     12  C   UNL     1      36.159 -18.987 -21.997  0.00  0.00    +0.031 C 
ATOM     13  C   UNL     1      33.858 -19.722 -21.964  0.00  0.00    +0.002 C 
ATOM     14  C   UNL     1      35.462 -20.707 -20.450  0.00  0.00    +0.081 C 
ATOM     15  C   UNL     1      36.461 -19.889 -20.976  0.00  0.00    +0.144 C 
ATOM     16  C   UNL     1      34.160 -20.623 -20.944  0.00  0.00    +0.007 C 
BRANCH  14  19
ATOM     17  O   UNL     1      35.270 -22.786 -19.381  0.00  0.00    -0.270 OA
ATOM     18  N   UNL     1      36.667 -21.219 -18.399  0.00  0.00    -0.299 N 
ATOM     19  C   UNL     1      35.772 -21.648 -19.385  0.00  0.00    +0.248 C 
ATOM     20  C   UNL     1      37.092 -22.044 -17.291  0.00  0.00    +0.111 C 
ATOM     21  H   UNL     1      37.027 -20.305 -18.462  0.00  0.00    +0.150 HD
ENDBRANCH  14  19
ENDBRANCH   8  11
BRANCH   5  22
ATOM     22  C   UNL     1      33.539 -13.808 -23.058  0.00  0.00    +0.068 C 
BRANCH  22  24
ATOM     23  N   UNL     1      33.524  -8.215 -23.919  0.00  0.00    -0.248 NA
ATOM     24  C   UNL     1      33.527 -12.333 -23.278  0.00  0.00    -0.038 C 
ATOM     25  C   UNL     1      32.595 -11.535 -22.622  0.00  0.00    +0.050 C 
ATOM     26  C   UNL     1      32.580 -10.145 -22.827  0.00  0.00    -0.004 C 
ATOM     27  C   UNL     1      34.447 -11.747 -24.139  0.00  0.00    -0.028 C 
ATOM     28  C   UNL     1      33.511  -9.543 -23.700  0.00  0.00    +0.060 C 
ATOM     29  C   UNL     1      34.432 -10.365 -24.343  0.00  0.00    +0.071 C 
ATOM     30  C   UNL     1      31.653  -9.318 -22.179  0.00  0.00    -0.001 C 
ATOM     31  C   UNL     1      31.664  -7.948 -22.403  0.00  0.00    +0.020 C 
ATOM     32  C   UNL     1      32.611  -7.451 -23.273  0.00  0.00    +0.098 C 
ENDBRANCH  22  24
ENDBRANCH   5  22
TORSDOF 4
ENDMDL
MODEL 9
REMARK VINA RESULT:     -11.1      3.601      6.663
REMARK  Name = 25145656
REMARK  4 active torsions:
REMARK  status: ('A' for Active; 'I' for Inactive)
REMARK    1  A    between atoms: C_5  and  C_22
REMARK    2  A    between atoms: C_8  and  C_11
REMARK    3  A    between atoms: C_14  and  C_19
REMARK    4  A    between atoms: C_22  and  C_24
REMARK                            x       y       z     vdW  Elec       q    Type
REMARK                         _______ _______ _______ _____ _____    ______ ____
ROOT
ATOM      1  N   UNL     1      35.530 -20.871 -19.876  0.00  0.00    -0.134 N 
ATOM      2  N   UNL     1      34.921 -20.159 -20.849  0.00  0.00    -0.168 NA
ATOM      3  N   UNL     1      37.118 -21.631 -18.525  0.00  0.00    -0.178 NA
ATOM      4  N   UNL     1      37.708 -19.988 -20.203  0.00  0.00    -0.200 NA
ATOM      5  C   UNL     1      34.925 -21.780 -19.050  0.00  0.00    +0.086 C 
ATOM      6  C   UNL     1      36.865 -20.809 -19.528  0.00  0.00    +0.114 C 
ATOM      7  C   UNL     1      35.924 -22.233 -18.226  0.00  0.00    +0.124 C 
ATOM      8  C   UNL     1      35.707 -19.350 -21.493  0.00  0.00    +0.103 C 
ATOM      9  C   UNL     1      37.176 -19.287 -21.150  0.00  0.00    +0.184 C 
ENDROOT
BRANCH   8  11
ATOM     10  F   UNL     1      33.263 -18.814 -25.651  0.00  0.00    -0.204 F 
ATOM     11  C   UNL     1      35.170 -18.491 -22.573  0.00  0.00    +0.019 C 
ATOM     12  C   UNL     1      34.455 -19.062 -23.626  0.00  0.00    +0.031 C 
ATOM     13  C   UNL     1      35.377 -17.112 -22.537  0.00  0.00    +0.002 C 
ATOM     14  C   UNL     1      34.156 -16.875 -24.608  0.00  0.00    +0.081 C 
ATOM     15  C   UNL     1      33.949 -18.254 -24.643  0.00  0.00    +0.144 C 
ATOM     16  C   UNL     1      34.870 -16.305 -23.555  0.00  0.00    +0.007 C 
BRANCH  14  19
ATOM     17  O   UNL     1      33.293 -16.519 -26.760  0.00  0.00    -0.270 OA
ATOM     18  N   UNL     1      33.499 -14.664 -25.383  0.00  0.00    -0.299 N 
ATOM     19  C   UNL     1      33.628 -16.029 -25.667  0.00  0.00    +0.248 C 
ATOM     20  C   UNL     1      32.970 -13.700 -26.321  0.00  0.00    +0.111 C 
ATOM     21  H   UNL     1      33.785 -14.343 -24.498  0.00  0.00    +0.150 HD
ENDBRANCH  14  19
ENDBRANCH   8  11
BRANCH   5  22
ATOM     22  C   UNL     1      33.451 -22.125 -19.128  0.00  0.00    +0.068 C 
BRANCH  22  24
ATOM     23  N   UNL     1      31.442 -24.531 -14.416  0.00  0.00    -0.248 NA
ATOM     24  C   UNL     1      32.912 -22.757 -17.889  0.00  0.00    -0.038 C 
ATOM     25  C   UNL     1      31.545 -22.735 -17.630  0.00  0.00    +0.050 C 
ATOM     26  C   UNL     1      31.033 -23.329 -16.464  0.00  0.00    -0.004 C 
ATOM     27  C   UNL     1      33.772 -23.370 -16.985  0.00  0.00    -0.028 C 
ATOM     28  C   UNL     1      31.899 -23.953 -15.542  0.00  0.00    +0.060 C 
ATOM     29  C   UNL     1      33.262 -23.960 -15.826  0.00  0.00    +0.071 C 
ATOM     30  C   UNL     1      29.661 -23.323 -16.179  0.00  0.00    -0.001 C 
ATOM     31  C   UNL     1      29.186 -23.917 -15.018  0.00  0.00    +0.020 C 
ATOM     32  C   UNL     1      30.110 -24.503 -14.178  0.00  0.00    +0.098 C 
ENDBRANCH  22  24
ENDBRANCH   5  22
TORSDOF 4
ENDMDL
