MODEL 1
REMARK VINA RESULT:     -11.0      0.000      0.000
REMARK  Name = 4369497
REMARK  6 active torsions:
REMARK  status: ('A' for Active; 'I' for Inactive)
REMARK    1  A    between atoms: N_2  and  C_9
REMARK    2  A    between atoms: C_5  and  C_21
REMARK    3  A    between atoms: C_8  and  S_14
REMARK    4  A    between atoms: C_12  and  O_19
REMARK    5  A    between atoms: S_14  and  C_17
REMARK    6  A    between atoms: C_22  and  C_28
REMARK                            x       y       z     vdW  Elec       q    Type
REMARK                         _______ _______ _______ _____ _____    ______ ____
ROOT
ATOM      1  O   UNL     1      33.476 -11.283 -22.882  0.00  0.00    -0.424 OA
ATOM      2  N   UNL     1      34.189 -13.356 -23.566  0.00  0.00    -0.265 N 
ATOM      3  N   UNL     1      32.205 -13.041 -22.243  0.00  0.00    -0.193 NA
ATOM      4  C   UNL     1      33.270 -12.629 -22.892  0.00  0.00    +0.293 C 
ATOM      5  C   UNL     1      32.430 -10.817 -22.152  0.00  0.00    +0.168 C 
ATOM      6  C   UNL     1      31.661 -11.877 -21.765  0.00  0.00    +0.141 C 
ATOM      7  H   UNL     1      34.966 -12.846 -23.889  0.00  0.00    +0.157 HD
ENDROOT
BRANCH   2   9
ATOM      8  C   UNL     1      34.852 -16.989 -23.307  0.00  0.00    +0.107 C 
ATOM      9  C   UNL     1      34.210 -14.743 -23.885  0.00  0.00    +0.087 C 
ATOM     10  C   UNL     1      34.824 -15.628 -23.007  0.00  0.00    +0.036 C 
ATOM     11  C   UNL     1      34.266 -17.455 -24.484  0.00  0.00    +0.022 C 
ATOM     12  C   UNL     1      33.624 -15.199 -25.060  0.00  0.00    +0.152 C 
ATOM     13  C   UNL     1      33.652 -16.561 -25.360  0.00  0.00    +0.040 C 
BRANCH   8  14
ATOM     14  S   UNL     1      35.622 -18.110 -22.212  0.00  0.00    +0.009 S 
ATOM     15  O   UNL     1      36.935 -18.433 -22.751  0.00  0.00    -0.169 OA
ATOM     16  O   UNL     1      35.502 -17.600 -20.854  0.00  0.00    -0.169 OA
BRANCH  14  17
ATOM     17  C   UNL     1      34.618 -19.577 -22.305  0.00  0.00    +0.156 C 
ATOM     18  C   UNL     1      34.331 -20.140 -20.931  0.00  0.00    +0.028 C 
ENDBRANCH  14  17
ENDBRANCH   8  14
BRANCH  12  19
ATOM     19  O   UNL     1      33.020 -14.341 -25.929  0.00  0.00    -0.470 OA
ATOM     20  C   UNL     1      33.825 -13.811 -26.981  0.00  0.00    +0.253 C 
ENDBRANCH  12  19
ENDBRANCH   2   9
BRANCH   5  21
ATOM     21  C   UNL     1      32.377  -9.387 -21.964  0.00  0.00    +0.036 C 
ATOM     22  C   UNL     1      32.718  -7.150 -22.811  0.00  0.00    +0.018 C 
ATOM     23  C   UNL     1      32.767  -8.532 -22.995  0.00  0.00    +0.005 C 
ATOM     24  C   UNL     1      31.940  -8.861 -20.749  0.00  0.00    +0.003 C 
ATOM     25  C   UNL     1      32.279  -6.624 -21.597  0.00  0.00    +0.001 C 
ATOM     26  C   UNL     1      31.890  -7.478 -20.566  0.00  0.00    +0.000 C 
BRANCH  22  28
ATOM     27  N   UNL     1      32.210  -5.324 -24.214  0.00  0.00    -0.244 NA
ATOM     28  C   UNL     1      33.121  -6.263 -23.880  0.00  0.00    +0.081 C 
ATOM     29  C   UNL     1      34.358  -6.400 -24.489  0.00  0.00    +0.019 C 
ATOM     30  C   UNL     1      34.680  -5.513 -25.509  0.00  0.00    +0.003 C 
ATOM     31  C   UNL     1      32.559  -4.479 -25.211  0.00  0.00    +0.099 C 
ATOM     32  C   UNL     1      33.769  -4.532 -25.884  0.00  0.00    +0.021 C 
ENDBRANCH  22  28
ENDBRANCH   5  21
TORSDOF 6
ENDMDL
MODEL 2
REMARK VINA RESULT:     -10.8      3.387     10.264
REMARK  Name = 4369497
REMARK  6 active torsions:
REMARK  status: ('A' for Active; 'I' for Inactive)
REMARK    1  A    between atoms: N_2  and  C_9
REMARK    2  A    between atoms: C_5  and  C_21
REMARK    3  A    between atoms: C_8  and  S_14
REMARK    4  A    between atoms: C_12  and  O_19
REMARK    5  A    between atoms: S_14  and  C_17
REMARK    6  A    between atoms: C_22  and  C_28
REMARK                            x       y       z     vdW  Elec       q    Type
REMARK                         _______ _______ _______ _____ _____    ______ ____
ROOT
ATOM      1  O   UNL     1      32.911 -12.364 -23.170  0.00  0.00    -0.424 OA
ATOM      2  N   UNL     1      32.367 -10.443 -22.035  0.00  0.00    -0.265 N 
ATOM      3  N   UNL     1      33.892 -10.460 -23.894  0.00  0.00    -0.193 NA
ATOM      4  C   UNL     1      33.071 -11.019 -23.035  0.00  0.00    +0.293 C 
ATOM      5  C   UNL     1      33.714 -12.666 -24.222  0.00  0.00    +0.168 C 
ATOM      6  C   UNL     1      34.309 -11.518 -24.661  0.00  0.00    +0.141 C 
ATOM      7  H   UNL     1      31.894 -11.073 -21.445  0.00  0.00    +0.157 HD
ENDROOT
BRANCH   2   9
ATOM      8  C   UNL     1      31.704  -6.819 -22.394  0.00  0.00    +0.107 C 
ATOM      9  C   UNL     1      32.199  -9.070 -21.701  0.00  0.00    +0.087 C 
ATOM     10  C   UNL     1      31.870  -8.168 -22.706  0.00  0.00    +0.036 C 
ATOM     11  C   UNL     1      31.867  -6.383 -21.079  0.00  0.00    +0.022 C 
ATOM     12  C   UNL     1      32.364  -8.644 -20.390  0.00  0.00    +0.152 C 
ATOM     13  C   UNL     1      32.197  -7.295 -20.077  0.00  0.00    +0.040 C 
BRANCH   8  14
ATOM     14  S   UNL     1      31.291  -5.675 -23.647  0.00  0.00    +0.009 S 
ATOM     15  O   UNL     1      30.852  -6.429 -24.813  0.00  0.00    -0.169 OA
ATOM     16  O   UNL     1      30.428  -4.647 -23.083  0.00  0.00    -0.169 OA
BRANCH  14  17
ATOM     17  C   UNL     1      32.835  -4.890 -24.053  0.00  0.00    +0.156 C 
ATOM     18  C   UNL     1      33.770  -5.840 -24.768  0.00  0.00    +0.028 C 
ENDBRANCH  14  17
ENDBRANCH   8  14
BRANCH  12  19
ATOM     19  O   UNL     1      32.687  -9.519 -19.396  0.00  0.00    -0.470 OA
ATOM     20  C   UNL     1      31.638 -10.343 -18.892  0.00  0.00    +0.253 C 
ENDBRANCH  12  19
ENDBRANCH   2   9
BRANCH   5  21
ATOM     21  C   UNL     1      33.753 -14.056 -24.610  0.00  0.00    +0.036 C 
ATOM     22  C   UNL     1      34.293 -16.356 -24.105  0.00  0.00    +0.018 C 
ATOM     23  C   UNL     1      34.253 -15.013 -23.728  0.00  0.00    +0.005 C 
ATOM     24  C   UNL     1      33.293 -14.440 -25.869  0.00  0.00    +0.003 C 
ATOM     25  C   UNL     1      33.832 -16.740 -25.364  0.00  0.00    +0.001 C 
ATOM     26  C   UNL     1      33.331 -15.783 -26.246  0.00  0.00    +0.000 C 
BRANCH  22  28
ATOM     27  N   UNL     1      35.302 -16.856 -22.034  0.00  0.00    -0.244 NA
ATOM     28  C   UNL     1      34.812 -17.350 -23.191  0.00  0.00    +0.081 C 
ATOM     29  C   UNL     1      34.788 -18.696 -23.517  0.00  0.00    +0.019 C 
ATOM     30  C   UNL     1      35.304 -19.596 -22.590  0.00  0.00    +0.003 C 
ATOM     31  C   UNL     1      35.795 -17.761 -21.158  0.00  0.00    +0.099 C 
ATOM     32  C   UNL     1      35.819 -19.127 -21.387  0.00  0.00    +0.021 C 
ENDBRANCH  22  28
ENDBRANCH   5  21
TORSDOF 6
ENDMDL
MODEL 3
REMARK VINA RESULT:     -10.4      5.500     10.212
REMARK  Name = 4369497
REMARK  6 active torsions:
REMARK  status: ('A' for Active; 'I' for Inactive)
REMARK    1  A    between atoms: N_2  and  C_9
REMARK    2  A    between atoms: C_5  and  C_21
REMARK    3  A    between atoms: C_8  and  S_14
REMARK    4  A    between atoms: C_12  and  O_19
REMARK    5  A    between atoms: S_14  and  C_17
REMARK    6  A    between atoms: C_22  and  C_28
REMARK                            x       y       z     vdW  Elec       q    Type
REMARK                         _______ _______ _______ _____ _____    ______ ____
ROOT
ATOM      1  O   UNL     1      33.951 -20.697 -20.976  0.00  0.00    -0.424 OA
ATOM      2  N   UNL     1      33.545 -22.017 -19.141  0.00  0.00    -0.265 N 
ATOM      3  N   UNL     1      35.693 -21.025 -19.573  0.00  0.00    -0.193 NA
ATOM      4  C   UNL     1      34.431 -21.271 -19.839  0.00  0.00    +0.293 C 
ATOM      5  C   UNL     1      35.026 -20.026 -21.461  0.00  0.00    +0.168 C 
ATOM      6  C   UNL     1      36.081 -20.222 -20.616  0.00  0.00    +0.141 C 
ATOM      7  H   UNL     1      32.677 -22.152 -19.584  0.00  0.00    +0.157 HD
ENDROOT
BRANCH   2   9
ATOM      8  C   UNL     1      35.075 -23.496 -16.111  0.00  0.00    +0.107 C 
ATOM      9  C   UNL     1      33.669 -22.637 -17.866  0.00  0.00    +0.087 C 
ATOM     10  C   UNL     1      34.939 -22.888 -17.359  0.00  0.00    +0.036 C 
ATOM     11  C   UNL     1      33.941 -23.849 -15.381  0.00  0.00    +0.022 C 
ATOM     12  C   UNL     1      32.535 -22.987 -17.145  0.00  0.00    +0.152 C 
ATOM     13  C   UNL     1      32.671 -23.595 -15.897  0.00  0.00    +0.040 C 
BRANCH   8  14
ATOM     14  S   UNL     1      36.665 -23.815 -15.464  0.00  0.00    +0.009 S 
ATOM     15  O   UNL     1      36.874 -25.256 -15.482  0.00  0.00    -0.169 OA
ATOM     16  O   UNL     1      37.626 -22.937 -16.115  0.00  0.00    -0.169 OA
BRANCH  14  17
ATOM     17  C   UNL     1      36.561 -23.300 -13.764  0.00  0.00    +0.156 C 
ATOM     18  C   UNL     1      37.530 -24.066 -12.892  0.00  0.00    +0.028 C 
ENDBRANCH  14  17
ENDBRANCH   8  14
BRANCH  12  19
ATOM     19  O   UNL     1      31.285 -22.747 -17.633  0.00  0.00    -0.470 OA
ATOM     20  C   UNL     1      30.186 -23.036 -16.770  0.00  0.00    +0.253 C 
ENDBRANCH  12  19
ENDBRANCH   2   9
BRANCH   5  21
ATOM     21  C   UNL     1      34.818 -19.302 -22.692  0.00  0.00    +0.036 C 
ATOM     22  C   UNL     1      34.407 -17.223 -23.853  0.00  0.00    +0.018 C 
ATOM     23  C   UNL     1      34.611 -17.922 -22.663  0.00  0.00    +0.005 C 
ATOM     24  C   UNL     1      34.822 -19.982 -23.909  0.00  0.00    +0.003 C 
ATOM     25  C   UNL     1      34.411 -17.903 -25.071  0.00  0.00    +0.001 C 
ATOM     26  C   UNL     1      34.619 -19.282 -25.099  0.00  0.00    +0.000 C 
BRANCH  22  28
ATOM     27  N   UNL     1      33.589 -15.287 -24.922  0.00  0.00    -0.244 NA
ATOM     28  C   UNL     1      34.192 -15.793 -23.824  0.00  0.00    +0.081 C 
ATOM     29  C   UNL     1      34.589 -15.037 -22.734  0.00  0.00    +0.019 C 
ATOM     30  C   UNL     1      34.350 -13.667 -22.774  0.00  0.00    +0.003 C 
ATOM     31  C   UNL     1      33.374 -13.952 -24.925  0.00  0.00    +0.099 C 
ATOM     32  C   UNL     1      33.733 -13.107 -23.886  0.00  0.00    +0.021 C 
ENDBRANCH  22  28
ENDBRANCH   5  21
TORSDOF 6
ENDMDL
MODEL 4
REMARK VINA RESULT:     -10.0      5.763     10.763
REMARK  Name = 4369497
REMARK  6 active torsions:
REMARK  status: ('A' for Active; 'I' for Inactive)
REMARK    1  A    between atoms: N_2  and  C_9
REMARK    2  A    between atoms: C_5  and  C_21
REMARK    3  A    between atoms: C_8  and  S_14
REMARK    4  A    between atoms: C_12  and  O_19
REMARK    5  A    between atoms: S_14  and  C_17
REMARK    6  A    between atoms: C_22  and  C_28
REMARK                            x       y       z     vdW  Elec       q    Type
REMARK                         _______ _______ _______ _____ _____    ______ ____
ROOT
ATOM      1  O   UNL     1      34.523 -20.993 -20.210  0.00  0.00    -0.424 OA
ATOM      2  N   UNL     1      34.231 -22.339 -18.371  0.00  0.00    -0.265 N 
ATOM      3  N   UNL     1      36.389 -21.514 -19.043  0.00  0.00    -0.193 NA
ATOM      4  C   UNL     1      35.087 -21.645 -19.156  0.00  0.00    +0.293 C 
ATOM      5  C   UNL     1      35.586 -20.398 -20.809  0.00  0.00    +0.168 C 
ATOM      6  C   UNL     1      36.715 -20.711 -20.106  0.00  0.00    +0.141 C 
ATOM      7  H   UNL     1      33.306 -22.385 -18.706  0.00  0.00    +0.157 HD
ENDROOT
BRANCH   2   9
ATOM      8  C   UNL     1      35.983 -23.744 -15.429  0.00  0.00    +0.107 C 
ATOM      9  C   UNL     1      34.455 -23.011 -17.137  0.00  0.00    +0.087 C 
ATOM     10  C   UNL     1      35.749 -23.087 -16.637  0.00  0.00    +0.036 C 
ATOM     11  C   UNL     1      34.921 -24.320 -14.732  0.00  0.00    +0.022 C 
ATOM     12  C   UNL     1      33.392 -23.583 -16.450  0.00  0.00    +0.152 C 
ATOM     13  C   UNL     1      33.626 -24.240 -15.242  0.00  0.00    +0.040 C 
BRANCH   8  14
ATOM     14  S   UNL     1      37.604 -23.846 -14.789  0.00  0.00    +0.009 S 
ATOM     15  O   UNL     1      38.521 -23.369 -15.815  0.00  0.00    -0.169 OA
ATOM     16  O   UNL     1      37.628 -23.246 -13.463  0.00  0.00    -0.169 OA
BRANCH  14  17
ATOM     17  C   UNL     1      37.885 -25.590 -14.574  0.00  0.00    +0.156 C 
ATOM     18  C   UNL     1      39.226 -25.860 -13.931  0.00  0.00    +0.028 C 
ENDBRANCH  14  17
ENDBRANCH   8  14
BRANCH  12  19
ATOM     19  O   UNL     1      32.119 -23.516 -16.932  0.00  0.00    -0.470 OA
ATOM     20  C   UNL     1      31.081 -23.260 -15.987  0.00  0.00    +0.253 C 
ENDBRANCH  12  19
ENDBRANCH   2   9
BRANCH   5  21
ATOM     21  C   UNL     1      35.294 -19.616 -21.986  0.00  0.00    +0.036 C 
ATOM     22  C   UNL     1      34.790 -17.488 -23.013  0.00  0.00    +0.018 C 
ATOM     23  C   UNL     1      35.075 -18.243 -21.875  0.00  0.00    +0.005 C 
ATOM     24  C   UNL     1      35.226 -20.235 -23.234  0.00  0.00    +0.003 C 
ATOM     25  C   UNL     1      34.723 -18.107 -24.261  0.00  0.00    +0.001 C 
ATOM     26  C   UNL     1      34.942 -19.480 -24.372  0.00  0.00    +0.000 C 
BRANCH  22  28
ATOM     27  N   UNL     1      34.114 -15.468 -24.025  0.00  0.00    -0.244 NA
ATOM     28  C   UNL     1      34.562 -16.064 -22.899  0.00  0.00    +0.081 C 
ATOM     29  C   UNL     1      34.799 -15.400 -21.707  0.00  0.00    +0.019 C 
ATOM     30  C   UNL     1      34.559 -14.031 -21.668  0.00  0.00    +0.003 C 
ATOM     31  C   UNL     1      33.892 -14.136 -23.949  0.00  0.00    +0.099 C 
ATOM     32  C   UNL     1      34.097 -13.380 -22.807  0.00  0.00    +0.021 C 
ENDBRANCH  22  28
ENDBRANCH   5  21
TORSDOF 6
ENDMDL
MODEL 5
REMARK VINA RESULT:     -10.0      3.308     10.413
REMARK  Name = 4369497
REMARK  6 active torsions:
REMARK  status: ('A' for Active; 'I' for Inactive)
REMARK    1  A    between atoms: N_2  and  C_9
REMARK    2  A    between atoms: C_5  and  C_21
REMARK    3  A    between atoms: C_8  and  S_14
REMARK    4  A    between atoms: C_12  and  O_19
REMARK    5  A    between atoms: S_14  and  C_17
REMARK    6  A    between atoms: C_22  and  C_28
REMARK                            x       y       z     vdW  Elec       q    Type
REMARK                         _______ _______ _______ _____ _____    ______ ____
ROOT
ATOM      1  O   UNL     1      34.245 -14.882 -23.618  0.00  0.00    -0.424 OA
ATOM      2  N   UNL     1      33.865 -12.637 -23.926  0.00  0.00    -0.265 N 
ATOM      3  N   UNL     1      34.641 -13.545 -21.837  0.00  0.00    -0.193 NA
ATOM      4  C   UNL     1      34.255 -13.627 -23.090  0.00  0.00    +0.293 C 
ATOM      5  C   UNL     1      34.669 -15.654 -22.586  0.00  0.00    +0.168 C 
ATOM      6  C   UNL     1      34.908 -14.850 -21.508  0.00  0.00    +0.141 C 
ATOM      7  H   UNL     1      33.516 -12.942 -24.794  0.00  0.00    +0.157 HD
ENDROOT
BRANCH   2   9
ATOM      8  C   UNL     1      33.124  -9.281 -22.550  0.00  0.00    +0.107 C 
ATOM      9  C   UNL     1      33.882 -11.226 -23.749  0.00  0.00    +0.087 C 
ATOM     10  C   UNL     1      33.117 -10.664 -22.733  0.00  0.00    +0.036 C 
ATOM     11  C   UNL     1      33.896  -8.471 -23.383  0.00  0.00    +0.022 C 
ATOM     12  C   UNL     1      34.652 -10.426 -24.584  0.00  0.00    +0.152 C 
ATOM     13  C   UNL     1      34.659  -9.043 -24.400  0.00  0.00    +0.040 C 
BRANCH   8  14
ATOM     14  S   UNL     1      32.168  -8.564 -21.277  0.00  0.00    +0.009 S 
ATOM     15  O   UNL     1      33.079  -8.092 -20.244  0.00  0.00    -0.169 OA
ATOM     16  O   UNL     1      31.207  -7.645 -21.870  0.00  0.00    -0.169 OA
BRANCH  14  17
ATOM     17  C   UNL     1      31.237  -9.923 -20.605  0.00  0.00    +0.156 C 
ATOM     18  C   UNL     1      31.782 -10.359 -19.264  0.00  0.00    +0.028 C 
ENDBRANCH  14  17
ENDBRANCH   8  14
BRANCH  12  19
ATOM     19  O   UNL     1      35.405 -10.965 -25.584  0.00  0.00    -0.470 OA
ATOM     20  C   UNL     1      34.704 -11.599 -26.652  0.00  0.00    +0.253 C 
ENDBRANCH  12  19
ENDBRANCH   2   9
BRANCH   5  21
ATOM     21  C   UNL     1      34.762 -17.069 -22.850  0.00  0.00    +0.036 C 
ATOM     22  C   UNL     1      34.969 -19.340 -22.050  0.00  0.00    +0.018 C 
ATOM     23  C   UNL     1      34.877 -17.972 -21.793  0.00  0.00    +0.005 C 
ATOM     24  C   UNL     1      34.742 -17.535 -24.165  0.00  0.00    +0.003 C 
ATOM     25  C   UNL     1      34.948 -19.805 -23.364  0.00  0.00    +0.001 C 
ATOM     26  C   UNL     1      34.833 -18.903 -24.422  0.00  0.00    +0.000 C 
BRANCH  22  28
ATOM     27  N   UNL     1      36.345 -20.457 -20.495  0.00  0.00    -0.244 NA
ATOM     28  C   UNL     1      35.088 -20.276 -20.954  0.00  0.00    +0.081 C 
ATOM     29  C   UNL     1      33.972 -20.917 -20.442  0.00  0.00    +0.019 C 
ATOM     30  C   UNL     1      34.160 -21.804 -19.388  0.00  0.00    +0.003 C 
ATOM     31  C   UNL     1      36.489 -21.327 -19.469  0.00  0.00    +0.099 C 
ATOM     32  C   UNL     1      35.439 -22.018 -18.887  0.00  0.00    +0.021 C 
ENDBRANCH  22  28
ENDBRANCH   5  21
TORSDOF 6
ENDMDL
MODEL 6
REMARK VINA RESULT:      -9.4      5.452     10.030
REMARK  Name = 4369497
REMARK  6 active torsions:
REMARK  status: ('A' for Active; 'I' for Inactive)
REMARK    1  A    between atoms: N_2  and  C_9
REMARK    2  A    between atoms: C_5  and  C_21
REMARK    3  A    between atoms: C_8  and  S_14
REMARK    4  A    between atoms: C_12  and  O_19
REMARK    5  A    between atoms: S_14  and  C_17
REMARK    6  A    between atoms: C_22  and  C_28
REMARK                            x       y       z     vdW  Elec       q    Type
REMARK                         _______ _______ _______ _____ _____    ______ ____
ROOT
ATOM      1  O   UNL     1      33.691 -20.539 -21.391  0.00  0.00    -0.424 OA
ATOM      2  N   UNL     1      33.231 -21.899 -19.597  0.00  0.00    -0.265 N 
ATOM      3  N   UNL     1      35.309 -20.707 -19.820  0.00  0.00    -0.193 NA
ATOM      4  C   UNL     1      34.108 -21.070 -20.208  0.00  0.00    +0.293 C 
ATOM      5  C   UNL     1      34.742 -19.769 -21.770  0.00  0.00    +0.168 C 
ATOM      6  C   UNL     1      35.722 -19.869 -20.824  0.00  0.00    +0.141 C 
ATOM      7  H   UNL     1      32.427 -22.113 -20.123  0.00  0.00    +0.157 HD
ENDROOT
BRANCH   2   9
ATOM      8  C   UNL     1      32.137 -23.384 -16.387  0.00  0.00    +0.107 C 
ATOM      9  C   UNL     1      33.286 -22.509 -18.313  0.00  0.00    +0.087 C 
ATOM     10  C   UNL     1      32.098 -22.787 -17.647  0.00  0.00    +0.036 C 
ATOM     11  C   UNL     1      33.365 -23.699 -15.803  0.00  0.00    +0.022 C 
ATOM     12  C   UNL     1      34.512 -22.819 -17.738  0.00  0.00    +0.152 C 
ATOM     13  C   UNL     1      34.552 -23.416 -16.478  0.00  0.00    +0.040 C 
BRANCH   8  14
ATOM     14  S   UNL     1      30.652 -23.737 -15.541  0.00  0.00    +0.009 S 
ATOM     15  O   UNL     1      30.439 -25.177 -15.591  0.00  0.00    -0.169 OA
ATOM     16  O   UNL     1      30.666 -23.053 -14.256  0.00  0.00    -0.169 OA
BRANCH  14  17
ATOM     17  C   UNL     1      29.388 -22.964 -16.526  0.00  0.00    +0.156 C 
ATOM     18  C   UNL     1      28.294 -23.942 -16.891  0.00  0.00    +0.028 C 
ENDBRANCH  14  17
ENDBRANCH   8  14
BRANCH  12  19
ATOM     19  O   UNL     1      35.683 -22.550 -18.381  0.00  0.00    -0.470 OA
ATOM     20  C   UNL     1      36.796 -22.176 -17.571  0.00  0.00    +0.253 C 
ENDBRANCH  12  19
ENDBRANCH   2   9
BRANCH   5  21
ATOM     21  C   UNL     1      34.590 -19.062 -23.019  0.00  0.00    +0.036 C 
ATOM     22  C   UNL     1      34.245 -16.999 -24.229  0.00  0.00    +0.018 C 
ATOM     23  C   UNL     1      34.395 -17.681 -23.021  0.00  0.00    +0.005 C 
ATOM     24  C   UNL     1      34.634 -19.762 -24.225  0.00  0.00    +0.003 C 
ATOM     25  C   UNL     1      34.290 -17.698 -25.434  0.00  0.00    +0.001 C 
ATOM     26  C   UNL     1      34.485 -19.080 -25.433  0.00  0.00    +0.000 C 
BRANCH  22  28
ATOM     27  N   UNL     1      33.484 -15.073 -25.357  0.00  0.00    -0.244 NA
ATOM     28  C   UNL     1      34.043 -15.566 -24.231  0.00  0.00    +0.081 C 
ATOM     29  C   UNL     1      34.409 -14.796 -23.140  0.00  0.00    +0.019 C 
ATOM     30  C   UNL     1      34.186 -13.425 -23.211  0.00  0.00    +0.003 C 
ATOM     31  C   UNL     1      33.282 -13.737 -25.389  0.00  0.00    +0.099 C 
ATOM     32  C   UNL     1      33.613 -12.878 -24.353  0.00  0.00    +0.021 C 
ENDBRANCH  22  28
ENDBRANCH   5  21
TORSDOF 6
ENDMDL
MODEL 7
REMARK VINA RESULT:      -9.3      4.471     10.557
REMARK  Name = 4369497
REMARK  6 active torsions:
REMARK  status: ('A' for Active; 'I' for Inactive)
REMARK    1  A    between atoms: N_2  and  C_9
REMARK    2  A    between atoms: C_5  and  C_21
REMARK    3  A    between atoms: C_8  and  S_14
REMARK    4  A    between atoms: C_12  and  O_19
REMARK    5  A    between atoms: S_14  and  C_17
REMARK    6  A    between atoms: C_22  and  C_28
REMARK                            x       y       z     vdW  Elec       q    Type
REMARK                         _______ _______ _______ _____ _____    ______ ____
ROOT
ATOM      1  O   UNL     1      32.120  -8.334 -23.379  0.00  0.00    -0.424 OA
ATOM      2  N   UNL     1      31.952  -6.158 -24.095  0.00  0.00    -0.265 N 
ATOM      3  N   UNL     1      34.052  -7.328 -23.988  0.00  0.00    -0.193 NA
ATOM      4  C   UNL     1      32.751  -7.221 -23.845  0.00  0.00    +0.293 C 
ATOM      5  C   UNL     1      33.137  -9.219 -23.219  0.00  0.00    +0.168 C 
ATOM      6  C   UNL     1      34.305  -8.614 -23.586  0.00  0.00    +0.141 C 
ATOM      7  H   UNL     1      31.015  -6.268 -23.814  0.00  0.00    +0.157 HD
ENDROOT
BRANCH   2   9
ATOM      8  C   UNL     1      33.494  -3.641 -26.329  0.00  0.00    +0.107 C 
ATOM      9  C   UNL     1      32.252  -4.906 -24.701  0.00  0.00    +0.087 C 
ATOM     10  C   UNL     1      33.190  -4.861 -25.727  0.00  0.00    +0.036 C 
ATOM     11  C   UNL     1      32.859  -2.475 -25.901  0.00  0.00    +0.022 C 
ATOM     12  C   UNL     1      31.616  -3.750 -24.269  0.00  0.00    +0.152 C 
ATOM     13  C   UNL     1      31.920  -2.529 -24.872  0.00  0.00    +0.040 C 
BRANCH   8  14
ATOM     14  S   UNL     1      34.670  -3.571 -27.618  0.00  0.00    +0.009 S 
ATOM     15  O   UNL     1      34.013  -3.997 -28.846  0.00  0.00    -0.169 OA
ATOM     16  O   UNL     1      35.349  -2.284 -27.569  0.00  0.00    -0.169 OA
BRANCH  14  17
ATOM     17  C   UNL     1      35.873  -4.809 -27.185  0.00  0.00    +0.156 C 
ATOM     18  C   UNL     1      37.280  -4.260 -27.251  0.00  0.00    +0.028 C 
ENDBRANCH  14  17
ENDBRANCH   8  14
BRANCH  12  19
ATOM     19  O   UNL     1      30.696  -3.781 -23.264  0.00  0.00    -0.470 OA
ATOM     20  C   UNL     1      30.419  -2.550 -22.600  0.00  0.00    +0.253 C 
ENDBRANCH  12  19
ENDBRANCH   2   9
BRANCH   5  21
ATOM     21  C   UNL     1      32.768 -10.524 -22.724  0.00  0.00    +0.036 C 
ATOM     22  C   UNL     1      32.950 -12.931 -22.828  0.00  0.00    +0.018 C 
ATOM     23  C   UNL     1      33.310 -11.670 -23.306  0.00  0.00    +0.005 C 
ATOM     24  C   UNL     1      31.866 -10.638 -21.666  0.00  0.00    +0.003 C 
ATOM     25  C   UNL     1      32.050 -13.045 -21.770  0.00  0.00    +0.001 C 
ATOM     26  C   UNL     1      31.508 -11.898 -21.188  0.00  0.00    +0.000 C 
BRANCH  22  28
ATOM     27  N   UNL     1      33.075 -14.384 -24.681  0.00  0.00    -0.244 NA
ATOM     28  C   UNL     1      33.512 -14.120 -23.431  0.00  0.00    +0.081 C 
ATOM     29  C   UNL     1      34.426 -14.901 -22.743  0.00  0.00    +0.019 C 
ATOM     30  C   UNL     1      34.925 -16.030 -23.384  0.00  0.00    +0.003 C 
ATOM     31  C   UNL     1      33.581 -15.490 -25.272  0.00  0.00    +0.099 C 
ATOM     32  C   UNL     1      34.499 -16.337 -24.672  0.00  0.00    +0.021 C 
ENDBRANCH  22  28
ENDBRANCH   5  21
TORSDOF 6
ENDMDL
MODEL 8
REMARK VINA RESULT:      -8.7      5.054     12.704
REMARK  Name = 4369497
REMARK  6 active torsions:
REMARK  status: ('A' for Active; 'I' for Inactive)
REMARK    1  A    between atoms: N_2  and  C_9
REMARK    2  A    between atoms: C_5  and  C_21
REMARK    3  A    between atoms: C_8  and  S_14
REMARK    4  A    between atoms: C_12  and  O_19
REMARK    5  A    between atoms: S_14  and  C_17
REMARK    6  A    between atoms: C_22  and  C_28
REMARK                            x       y       z     vdW  Elec       q    Type
REMARK                         _______ _______ _______ _____ _____    ______ ____
ROOT
ATOM      1  O   UNL     1      35.298 -20.222 -20.220  0.00  0.00    -0.424 OA
ATOM      2  N   UNL     1      35.344 -18.700 -21.940  0.00  0.00    -0.265 N 
ATOM      3  N   UNL     1      33.417 -20.059 -21.466  0.00  0.00    -0.193 NA
ATOM      4  C   UNL     1      34.643 -19.636 -21.260  0.00  0.00    +0.293 C 
ATOM      5  C   UNL     1      34.381 -21.096 -19.733  0.00  0.00    +0.168 C 
ATOM      6  C   UNL     1      33.244 -21.001 -20.483  0.00  0.00    +0.141 C 
ATOM      7  H   UNL     1      36.289 -18.617 -21.677  0.00  0.00    +0.157 HD
ENDROOT
BRANCH   2   9
ATOM      8  C   UNL     1      34.329 -15.594 -23.680  0.00  0.00    +0.107 C 
ATOM      9  C   UNL     1      34.931 -17.815 -22.975  0.00  0.00    +0.087 C 
ATOM     10  C   UNL     1      34.734 -16.472 -22.675  0.00  0.00    +0.036 C 
ATOM     11  C   UNL     1      34.123 -16.065 -24.976  0.00  0.00    +0.022 C 
ATOM     12  C   UNL     1      34.728 -18.292 -24.264  0.00  0.00    +0.152 C 
ATOM     13  C   UNL     1      34.323 -17.414 -25.269  0.00  0.00    +0.040 C 
BRANCH   8  14
ATOM     14  S   UNL     1      34.077 -13.905 -23.315  0.00  0.00    +0.009 S 
ATOM     15  O   UNL     1      34.958 -13.549 -22.211  0.00  0.00    -0.169 OA
ATOM     16  O   UNL     1      34.127 -13.142 -24.554  0.00  0.00    -0.169 OA
BRANCH  14  17
ATOM     17  C   UNL     1      32.401 -13.826 -22.724  0.00  0.00    +0.156 C 
ATOM     18  C   UNL     1      32.135 -12.536 -21.981  0.00  0.00    +0.028 C 
ENDBRANCH  14  17
ENDBRANCH   8  14
BRANCH  12  19
ATOM     19  O   UNL     1      34.917 -19.607 -24.569  0.00  0.00    -0.470 OA
ATOM     20  C   UNL     1      34.088 -20.161 -25.589  0.00  0.00    +0.253 C 
ENDBRANCH  12  19
ENDBRANCH   2   9
BRANCH   5  21
ATOM     21  C   UNL     1      34.798 -21.883 -18.597  0.00  0.00    +0.036 C 
ATOM     22  C   UNL     1      34.249 -23.232 -16.670  0.00  0.00    +0.018 C 
ATOM     23  C   UNL     1      33.844 -22.474 -17.769  0.00  0.00    +0.005 C 
ATOM     24  C   UNL     1      36.156 -22.047 -18.325  0.00  0.00    +0.003 C 
ATOM     25  C   UNL     1      35.607 -23.398 -16.399  0.00  0.00    +0.001 C 
ATOM     26  C   UNL     1      36.561 -22.806 -17.227  0.00  0.00    +0.000 C 
BRANCH  22  28
ATOM     27  N   UNL     1      33.757 -24.435 -14.702  0.00  0.00    -0.244 NA
ATOM     28  C   UNL     1      33.260 -23.846 -15.811  0.00  0.00    +0.081 C 
ATOM     29  C   UNL     1      31.915 -23.811 -16.138  0.00  0.00    +0.019 C 
ATOM     30  C   UNL     1      31.019 -24.421 -15.267  0.00  0.00    +0.003 C 
ATOM     31  C   UNL     1      32.857 -25.018 -13.879  0.00  0.00    +0.099 C 
ATOM     32  C   UNL     1      31.491 -25.039 -14.114  0.00  0.00    +0.021 C 
ENDBRANCH  22  28
ENDBRANCH   5  21
TORSDOF 6
ENDMDL
MODEL 9
REMARK VINA RESULT:      -8.6      4.105     10.736
REMARK  Name = 4369497
REMARK  6 active torsions:
REMARK  status: ('A' for Active; 'I' for Inactive)
REMARK    1  A    between atoms: N_2  and  C_9
REMARK    2  A    between atoms: C_5  and  C_21
REMARK    3  A    between atoms: C_8  and  S_14
REMARK    4  A    between atoms: C_12  and  O_19
REMARK    5  A    between atoms: S_14  and  C_17
REMARK    6  A    between atoms: C_22  and  C_28
REMARK                            x       y       z     vdW  Elec       q    Type
REMARK                         _______ _______ _______ _____ _____    ______ ____
ROOT
ATOM      1  O   UNL     1      32.695 -10.342 -24.060  0.00  0.00    -0.424 OA
ATOM      2  N   UNL     1      32.072  -8.172 -23.634  0.00  0.00    -0.265 N 
ATOM      3  N   UNL     1      34.364  -8.818 -23.970  0.00  0.00    -0.193 NA
ATOM      4  C   UNL     1      33.074  -9.046 -23.881  0.00  0.00    +0.293 C 
ATOM      5  C   UNL     1      33.872 -10.979 -24.283  0.00  0.00    +0.168 C 
ATOM      6  C   UNL     1      34.883 -10.062 -24.230  0.00  0.00    +0.141 C 
ATOM      7  H   UNL     1      31.186  -8.582 -23.506  0.00  0.00    +0.157 HD
ENDROOT
BRANCH   2   9
ATOM      8  C   UNL     1      32.500  -4.612 -24.554  0.00  0.00    +0.107 C 
ATOM      9  C   UNL     1      32.094  -6.753 -23.532  0.00  0.00    +0.087 C 
ATOM     10  C   UNL     1      32.472  -6.004 -24.641  0.00  0.00    +0.036 C 
ATOM     11  C   UNL     1      32.150  -3.980 -23.361  0.00  0.00    +0.022 C 
ATOM     12  C   UNL     1      31.745  -6.132 -22.340  0.00  0.00    +0.152 C 
ATOM     13  C   UNL     1      31.773  -4.740 -22.254  0.00  0.00    +0.040 C 
BRANCH   8  14
ATOM     14  S   UNL     1      32.973  -3.660 -25.939  0.00  0.00    +0.009 S 
ATOM     15  O   UNL     1      34.427  -3.682 -26.022  0.00  0.00    -0.169 OA
ATOM     16  O   UNL     1      32.177  -4.068 -27.087  0.00  0.00    -0.169 OA
BRANCH  14  17
ATOM     17  C   UNL     1      32.475  -2.002 -25.526  0.00  0.00    +0.156 C 
ATOM     18  C   UNL     1      30.998  -1.790 -25.771  0.00  0.00    +0.028 C 
ENDBRANCH  14  17
ENDBRANCH   8  14
BRANCH  12  19
ATOM     19  O   UNL     1      31.374  -6.856 -21.247  0.00  0.00    -0.470 OA
ATOM     20  C   UNL     1      32.418  -7.315 -20.389  0.00  0.00    +0.253 C 
ENDBRANCH  12  19
ENDBRANCH   2   9
BRANCH   5  21
ATOM     21  C   UNL     1      33.788 -12.401 -24.513  0.00  0.00    +0.036 C 
ATOM     22  C   UNL     1      34.148 -14.668 -23.758  0.00  0.00    +0.018 C 
ATOM     23  C   UNL     1      34.227 -13.293 -23.534  0.00  0.00    +0.005 C 
ATOM     24  C   UNL     1      33.271 -12.883 -25.715  0.00  0.00    +0.003 C 
ATOM     25  C   UNL     1      33.630 -15.150 -24.959  0.00  0.00    +0.001 C 
ATOM     26  C   UNL     1      33.191 -14.258 -25.938  0.00  0.00    +0.000 C 
BRANCH  22  28
ATOM     27  N   UNL     1      35.029 -16.786 -23.212  0.00  0.00    -0.244 NA
ATOM     28  C   UNL     1      34.602 -15.594 -22.743  0.00  0.00    +0.081 C 
ATOM     29  C   UNL     1      34.586 -15.244 -21.403  0.00  0.00    +0.019 C 
ATOM     30  C   UNL     1      35.038 -16.182 -20.482  0.00  0.00    +0.003 C 
ATOM     31  C   UNL     1      35.460 -17.674 -22.287  0.00  0.00    +0.099 C 
ATOM     32  C   UNL     1      35.484 -17.423 -20.925  0.00  0.00    +0.021 C 
ENDBRANCH  22  28
ENDBRANCH   5  21
TORSDOF 6
ENDMDL
