MODEL 1
REMARK VINA RESULT:     -11.7      0.000      0.000
REMARK  Name = 11507920
REMARK  4 active torsions:
REMARK  status: ('A' for Active; 'I' for Inactive)
REMARK    1  A    between atoms: C_1  and  C_8
REMARK    2  A    between atoms: C_2  and  C_17
REMARK    3  A    between atoms: C_17  and  N_18
REMARK    4  A    between atoms: N_18  and  C_21
REMARK                            x       y       z     vdW  Elec       q    Type
REMARK                         _______ _______ _______ _____ _____    ______ ____
ROOT
ATOM      1  C   UNL     1      34.861 -19.081 -22.137  0.00  0.00    -0.000 C 
ATOM      2  C   UNL     1      34.914 -16.762 -22.813  0.00  0.00    -0.003 C 
ATOM      3  C   UNL     1      34.915 -17.728 -21.805  0.00  0.00    -0.003 C 
ATOM      4  C   UNL     1      34.804 -19.471 -23.474  0.00  0.00    -0.000 C 
ATOM      5  C   UNL     1      34.858 -17.152 -24.151  0.00  0.00    -0.003 C 
ATOM      6  C   UNL     1      34.802 -18.506 -24.482  0.00  0.00    -0.000 C 
ENDROOT
BRANCH   1   8
ATOM      7  N   UNL     1      32.666 -22.147 -18.905  0.00  0.00    -0.312 N 
ATOM      8  C   UNL     1      34.861 -20.082 -21.091  0.00  0.00    +0.001 C 
ATOM      9  C   UNL     1      33.688 -21.516 -19.578  0.00  0.00    +0.048 C 
ATOM     10  C   UNL     1      34.887 -22.018 -19.068  0.00  0.00    +0.015 C 
ATOM     11  C   UNL     1      33.643 -20.548 -20.587  0.00  0.00    +0.015 C 
ATOM     12  C   UNL     1      36.073 -20.565 -20.602  0.00  0.00    +0.000 C 
ATOM     13  C   UNL     1      36.103 -21.533 -19.591  0.00  0.00    +0.001 C 
ATOM     14  C   UNL     1      34.548 -22.973 -18.069  0.00  0.00    +0.017 C 
ATOM     15  C   UNL     1      33.176 -23.029 -17.991  0.00  0.00    +0.062 C 
ATOM     16  H   UNL     1      31.707 -21.987 -19.059  0.00  0.00    +0.152 HD
ENDBRANCH   1   8
BRANCH   2  17
ATOM     17  C   UNL     1      34.973 -15.314 -22.460  0.00  0.00    +0.114 C 
BRANCH  17  18
ATOM     18  N   UNL     1      34.092 -14.517 -23.275  0.00  0.00    -0.327 N 
ATOM     19  H   UNL     1      33.990 -14.761 -24.223  0.00  0.00    +0.147 HD
BRANCH  18  21
ATOM     20  N   UNL     1      32.779 -11.069 -22.952  0.00  0.00    -0.228 NA
ATOM     21  C   UNL     1      33.380 -13.424 -22.801  0.00  0.00    +0.077 C 
ATOM     22  C   UNL     1      33.456 -12.157 -23.384  0.00  0.00    +0.139 C 
ATOM     23  C   UNL     1      32.534 -13.553 -21.692  0.00  0.00    +0.019 C 
ATOM     24  C   UNL     1      31.821 -12.457 -21.219  0.00  0.00    +0.022 C 
ATOM     25  C   UNL     1      31.976 -11.248 -21.879  0.00  0.00    +0.100 C 
ATOM     26  N   UNL     1      34.308 -12.001 -24.506  0.00  0.00    -0.342 N 
ATOM     27  H   UNL     1      34.388 -11.123 -24.944  0.00  0.00    +0.144 HD
ATOM     28  H   UNL     1      34.817 -12.770 -24.849  0.00  0.00    +0.144 HD
ENDBRANCH  18  21
ENDBRANCH  17  18
ENDBRANCH   2  17
TORSDOF 4
ENDMDL
MODEL 2
REMARK VINA RESULT:     -11.6      3.445      9.198
REMARK  Name = 11507920
REMARK  4 active torsions:
REMARK  status: ('A' for Active; 'I' for Inactive)
REMARK    1  A    between atoms: C_1  and  C_8
REMARK    2  A    between atoms: C_2  and  C_17
REMARK    3  A    between atoms: C_17  and  N_18
REMARK    4  A    between atoms: N_18  and  C_21
REMARK                            x       y       z     vdW  Elec       q    Type
REMARK                         _______ _______ _______ _____ _____    ______ ____
ROOT
ATOM      1  C   UNL     1      35.292 -20.313 -20.691  0.00  0.00    -0.000 C 
ATOM      2  C   UNL     1      34.281 -21.895 -19.172  0.00  0.00    -0.003 C 
ATOM      3  C   UNL     1      34.154 -20.918 -20.160  0.00  0.00    -0.003 C 
ATOM      4  C   UNL     1      36.557 -20.682 -20.237  0.00  0.00    -0.000 C 
ATOM      5  C   UNL     1      35.547 -22.266 -18.717  0.00  0.00    -0.003 C 
ATOM      6  C   UNL     1      36.685 -21.659 -19.249  0.00  0.00    -0.000 C 
ENDROOT
BRANCH   1   8
ATOM      7  N   UNL     1      33.880 -18.637 -25.149  0.00  0.00    -0.312 N 
ATOM      8  C   UNL     1      35.160 -19.297 -21.716  0.00  0.00    +0.001 C 
ATOM      9  C   UNL     1      34.433 -18.610 -23.888  0.00  0.00    +0.048 C 
ATOM     10  C   UNL     1      34.917 -17.317 -23.680  0.00  0.00    +0.015 C 
ATOM     11  C   UNL     1      34.540 -19.620 -22.926  0.00  0.00    +0.015 C 
ATOM     12  C   UNL     1      35.653 -18.015 -21.480  0.00  0.00    +0.000 C 
ATOM     13  C   UNL     1      35.539 -17.015 -22.452  0.00  0.00    +0.001 C 
ATOM     14  C   UNL     1      34.635 -16.571 -24.858  0.00  0.00    +0.017 C 
ATOM     15  C   UNL     1      33.998 -17.410 -25.742  0.00  0.00    +0.062 C 
ATOM     16  H   UNL     1      33.461 -19.426 -25.563  0.00  0.00    +0.152 HD
ENDBRANCH   1   8
BRANCH   2  17
ATOM     17  C   UNL     1      33.065 -22.544 -18.602  0.00  0.00    +0.114 C 
BRANCH  17  18
ATOM     18  N   UNL     1      33.389 -23.530 -17.604  0.00  0.00    -0.327 N 
ATOM     19  H   UNL     1      34.041 -24.229 -17.836  0.00  0.00    +0.147 HD
BRANCH  18  21
ATOM     20  N   UNL     1      33.065 -23.889 -13.931  0.00  0.00    -0.228 NA
ATOM     21  C   UNL     1      32.833 -23.552 -16.331  0.00  0.00    +0.077 C 
ATOM     22  C   UNL     1      33.569 -23.859 -15.185  0.00  0.00    +0.139 C 
ATOM     23  C   UNL     1      31.476 -23.257 -16.143  0.00  0.00    +0.019 C 
ATOM     24  C   UNL     1      30.922 -23.278 -14.868  0.00  0.00    +0.022 C 
ATOM     25  C   UNL     1      31.751 -23.597 -13.805  0.00  0.00    +0.100 C 
ATOM     26  N   UNL     1      34.944 -24.162 -15.351  0.00  0.00    -0.342 N 
ATOM     27  H   UNL     1      35.496 -24.383 -14.566  0.00  0.00    +0.144 HD
ATOM     28  H   UNL     1      35.347 -24.150 -16.249  0.00  0.00    +0.144 HD
ENDBRANCH  18  21
ENDBRANCH  17  18
ENDBRANCH   2  17
TORSDOF 4
ENDMDL
MODEL 3
REMARK VINA RESULT:     -11.2      1.644      2.950
REMARK  Name = 11507920
REMARK  4 active torsions:
REMARK  status: ('A' for Active; 'I' for Inactive)
REMARK    1  A    between atoms: C_1  and  C_8
REMARK    2  A    between atoms: C_2  and  C_17
REMARK    3  A    between atoms: C_17  and  N_18
REMARK    4  A    between atoms: N_18  and  C_21
REMARK                            x       y       z     vdW  Elec       q    Type
REMARK                         _______ _______ _______ _____ _____    ______ ____
ROOT
ATOM      1  C   UNL     1      35.444 -20.268 -20.768  0.00  0.00    -0.000 C 
ATOM      2  C   UNL     1      35.358 -18.954 -22.793  0.00  0.00    -0.003 C 
ATOM      3  C   UNL     1      34.730 -19.784 -21.863  0.00  0.00    -0.003 C 
ATOM      4  C   UNL     1      36.785 -19.926 -20.601  0.00  0.00    -0.000 C 
ATOM      5  C   UNL     1      36.700 -18.611 -22.627  0.00  0.00    -0.003 C 
ATOM      6  C   UNL     1      37.414 -19.097 -21.531  0.00  0.00    -0.000 C 
ENDROOT
BRANCH   1   8
ATOM      7  N   UNL     1      35.372 -23.293 -16.829  0.00  0.00    -0.312 N 
ATOM      8  C   UNL     1      34.793 -21.130 -19.803  0.00  0.00    +0.001 C 
ATOM      9  C   UNL     1      34.887 -22.571 -17.896  0.00  0.00    +0.048 C 
ATOM     10  C   UNL     1      33.510 -22.793 -17.951  0.00  0.00    +0.015 C 
ATOM     11  C   UNL     1      35.556 -21.746 -18.808  0.00  0.00    +0.015 C 
ATOM     12  C   UNL     1      33.416 -21.334 -19.883  0.00  0.00    +0.000 C 
ATOM     13  C   UNL     1      32.761 -22.162 -18.965  0.00  0.00    +0.001 C 
ATOM     14  C   UNL     1      33.186 -23.672 -16.881  0.00  0.00    +0.017 C 
ATOM     15  C   UNL     1      34.351 -23.962 -16.210  0.00  0.00    +0.062 C 
ATOM     16  H   UNL     1      36.316 -23.324 -16.552  0.00  0.00    +0.152 HD
ENDBRANCH   1   8
BRANCH   2  17
ATOM     17  C   UNL     1      34.596 -18.435 -23.965  0.00  0.00    +0.114 C 
BRANCH  17  18
ATOM     18  N   UNL     1      35.051 -17.133 -24.380  0.00  0.00    -0.327 N 
ATOM     19  H   UNL     1      35.793 -17.085 -25.026  0.00  0.00    +0.147 HD
BRANCH  18  21
ATOM     20  N   UNL     1      33.026 -14.035 -24.243  0.00  0.00    -0.228 NA
ATOM     21  C   UNL     1      34.506 -15.942 -23.921  0.00  0.00    +0.077 C 
ATOM     22  C   UNL     1      33.580 -15.197 -24.656  0.00  0.00    +0.139 C 
ATOM     23  C   UNL     1      34.869 -15.428 -22.670  0.00  0.00    +0.019 C 
ATOM     24  C   UNL     1      34.321 -14.235 -22.212  0.00  0.00    +0.022 C 
ATOM     25  C   UNL     1      33.412 -13.583 -23.029  0.00  0.00    +0.100 C 
ATOM     26  N   UNL     1      33.198 -15.696 -25.926  0.00  0.00    -0.342 N 
ATOM     27  H   UNL     1      32.547 -15.199 -26.474  0.00  0.00    +0.144 HD
ATOM     28  H   UNL     1      33.580 -16.539 -26.261  0.00  0.00    +0.144 HD
ENDBRANCH  18  21
ENDBRANCH  17  18
ENDBRANCH   2  17
TORSDOF 4
ENDMDL
MODEL 4
REMARK VINA RESULT:     -11.0      1.115      1.525
REMARK  Name = 11507920
REMARK  4 active torsions:
REMARK  status: ('A' for Active; 'I' for Inactive)
REMARK    1  A    between atoms: C_1  and  C_8
REMARK    2  A    between atoms: C_2  and  C_17
REMARK    3  A    between atoms: C_17  and  N_18
REMARK    4  A    between atoms: N_18  and  C_21
REMARK                            x       y       z     vdW  Elec       q    Type
REMARK                         _______ _______ _______ _____ _____    ______ ____
ROOT
ATOM      1  C   UNL     1      35.074 -17.903 -22.799  0.00  0.00    -0.000 C 
ATOM      2  C   UNL     1      34.613 -15.598 -23.354  0.00  0.00    -0.003 C 
ATOM      3  C   UNL     1      34.989 -16.564 -22.420  0.00  0.00    -0.003 C 
ATOM      4  C   UNL     1      34.783 -18.278 -24.110  0.00  0.00    -0.000 C 
ATOM      5  C   UNL     1      34.322 -15.972 -24.666  0.00  0.00    -0.003 C 
ATOM      6  C   UNL     1      34.406 -17.313 -25.044  0.00  0.00    -0.000 C 
ENDROOT
BRANCH   1   8
ATOM      7  N   UNL     1      34.198 -21.706 -19.728  0.00  0.00    -0.312 N 
ATOM      8  C   UNL     1      35.462 -18.906 -21.829  0.00  0.00    +0.001 C 
ATOM      9  C   UNL     1      34.915 -20.733 -20.386  0.00  0.00    +0.048 C 
ATOM     10  C   UNL     1      36.239 -20.835 -19.955  0.00  0.00    +0.015 C 
ATOM     11  C   UNL     1      34.497 -19.779 -21.321  0.00  0.00    +0.015 C 
ATOM     12  C   UNL     1      36.792 -18.984 -21.417  0.00  0.00    +0.000 C 
ATOM     13  C   UNL     1      37.195 -19.943 -20.480  0.00  0.00    +0.001 C 
ATOM     14  C   UNL     1      36.290 -21.904 -19.016  0.00  0.00    +0.017 C 
ATOM     15  C   UNL     1      35.020 -22.418 -18.898  0.00  0.00    +0.062 C 
ATOM     16  H   UNL     1      33.232 -21.867 -19.838  0.00  0.00    +0.152 HD
ENDBRANCH   1   8
BRANCH   2  17
ATOM     17  C   UNL     1      34.522 -14.165 -22.951  0.00  0.00    +0.114 C 
BRANCH  17  18
ATOM     18  N   UNL     1      33.297 -13.550 -23.393  0.00  0.00    -0.327 N 
ATOM     19  H   UNL     1      32.817 -13.961 -24.149  0.00  0.00    +0.147 HD
BRANCH  18  21
ATOM     20  N   UNL     1      32.461  -9.993 -22.786  0.00  0.00    -0.228 NA
ATOM     21  C   UNL     1      32.753 -12.410 -22.816  0.00  0.00    +0.077 C 
ATOM     22  C   UNL     1      32.973 -11.125 -23.318  0.00  0.00    +0.139 C 
ATOM     23  C   UNL     1      31.939 -12.507 -21.680  0.00  0.00    +0.019 C 
ATOM     24  C   UNL     1      31.395 -11.364 -21.104  0.00  0.00    +0.022 C 
ATOM     25  C   UNL     1      31.683 -10.142 -21.690  0.00  0.00    +0.100 C 
ATOM     26  N   UNL     1      33.795 -11.001 -24.466  0.00  0.00    -0.342 N 
ATOM     27  H   UNL     1      33.974 -10.112 -24.849  0.00  0.00    +0.144 HD
ATOM     28  H   UNL     1      34.186 -11.803 -24.882  0.00  0.00    +0.144 HD
ENDBRANCH  18  21
ENDBRANCH  17  18
ENDBRANCH   2  17
TORSDOF 4
ENDMDL
MODEL 5
REMARK VINA RESULT:     -10.9      1.346      1.925
REMARK  Name = 11507920
REMARK  4 active torsions:
REMARK  status: ('A' for Active; 'I' for Inactive)
REMARK    1  A    between atoms: C_1  and  C_8
REMARK    2  A    between atoms: C_2  and  C_17
REMARK    3  A    between atoms: C_17  and  N_18
REMARK    4  A    between atoms: N_18  and  C_21
REMARK                            x       y       z     vdW  Elec       q    Type
REMARK                         _______ _______ _______ _____ _____    ______ ____
ROOT
ATOM      1  C   UNL     1      34.839 -19.170 -22.266  0.00  0.00    -0.000 C 
ATOM      2  C   UNL     1      34.928 -16.885 -23.045  0.00  0.00    -0.003 C 
ATOM      3  C   UNL     1      34.924 -17.805 -21.996  0.00  0.00    -0.003 C 
ATOM      4  C   UNL     1      34.756 -19.618 -23.583  0.00  0.00    -0.000 C 
ATOM      5  C   UNL     1      34.845 -17.332 -24.364  0.00  0.00    -0.003 C 
ATOM      6  C   UNL     1      34.758 -18.699 -24.633  0.00  0.00    -0.000 C 
ENDROOT
BRANCH   1   8
ATOM      7  N   UNL     1      32.628 -22.101 -18.921  0.00  0.00    -0.312 N 
ATOM      8  C   UNL     1      34.833 -20.124 -21.176  0.00  0.00    +0.001 C 
ATOM      9  C   UNL     1      33.653 -21.495 -19.611  0.00  0.00    +0.048 C 
ATOM     10  C   UNL     1      34.850 -21.967 -19.069  0.00  0.00    +0.015 C 
ATOM     11  C   UNL     1      33.614 -20.574 -20.664  0.00  0.00    +0.015 C 
ATOM     12  C   UNL     1      36.044 -20.577 -20.654  0.00  0.00    +0.000 C 
ATOM     13  C   UNL     1      36.068 -21.499 -19.601  0.00  0.00    +0.001 C 
ATOM     14  C   UNL     1      34.507 -22.878 -18.031  0.00  0.00    +0.017 C 
ATOM     15  C   UNL     1      33.134 -22.938 -17.964  0.00  0.00    +0.062 C 
ATOM     16  H   UNL     1      31.670 -21.954 -19.092  0.00  0.00    +0.152 HD
ENDBRANCH   1   8
BRANCH   2  17
ATOM     17  C   UNL     1      35.019 -15.425 -22.759  0.00  0.00    +0.114 C 
BRANCH  17  18
ATOM     18  N   UNL     1      33.807 -14.724 -23.099  0.00  0.00    -0.327 N 
ATOM     19  H   UNL     1      33.060 -14.750 -22.459  0.00  0.00    +0.147 HD
BRANCH  18  21
ATOM     20  N   UNL     1      33.721 -11.917 -25.515  0.00  0.00    -0.228 NA
ATOM     21  C   UNL     1      33.632 -14.014 -24.279  0.00  0.00    +0.077 C 
ATOM     22  C   UNL     1      33.878 -12.643 -24.385  0.00  0.00    +0.139 C 
ATOM     23  C   UNL     1      33.193 -14.661 -25.441  0.00  0.00    +0.019 C 
ATOM     24  C   UNL     1      33.019 -13.948 -26.622  0.00  0.00    +0.022 C 
ATOM     25  C   UNL     1      33.294 -12.590 -26.607  0.00  0.00    +0.100 C 
ATOM     26  N   UNL     1      34.323 -11.965 -23.222  0.00  0.00    -0.342 N 
ATOM     27  H   UNL     1      34.507 -10.998 -23.257  0.00  0.00    +0.144 HD
ATOM     28  H   UNL     1      34.449 -12.459 -22.381  0.00  0.00    +0.144 HD
ENDBRANCH  18  21
ENDBRANCH  17  18
ENDBRANCH   2  17
TORSDOF 4
ENDMDL
MODEL 6
REMARK VINA RESULT:     -10.8      1.814      8.549
REMARK  Name = 11507920
REMARK  4 active torsions:
REMARK  status: ('A' for Active; 'I' for Inactive)
REMARK    1  A    between atoms: C_1  and  C_8
REMARK    2  A    between atoms: C_2  and  C_17
REMARK    3  A    between atoms: C_17  and  N_18
REMARK    4  A    between atoms: N_18  and  C_21
REMARK                            x       y       z     vdW  Elec       q    Type
REMARK                         _______ _______ _______ _____ _____    ______ ____
ROOT
ATOM      1  C   UNL     1      34.066 -14.908 -23.619  0.00  0.00    -0.000 C 
ATOM      2  C   UNL     1      35.102 -16.933 -22.807  0.00  0.00    -0.003 C 
ATOM      3  C   UNL     1      34.656 -15.630 -22.583  0.00  0.00    -0.003 C 
ATOM      4  C   UNL     1      33.921 -15.486 -24.880  0.00  0.00    -0.000 C 
ATOM      5  C   UNL     1      34.957 -17.512 -24.068  0.00  0.00    -0.003 C 
ATOM      6  C   UNL     1      34.367 -16.788 -25.105  0.00  0.00    -0.000 C 
ENDROOT
BRANCH   1   8
ATOM      7  N   UNL     1      31.493 -11.437 -21.170  0.00  0.00    -0.312 N 
ATOM      8  C   UNL     1      33.604 -13.555 -23.387  0.00  0.00    +0.001 C 
ATOM      9  C   UNL     1      32.323 -11.977 -22.126  0.00  0.00    +0.048 C 
ATOM     10  C   UNL     1      32.726 -10.931 -22.959  0.00  0.00    +0.015 C 
ATOM     11  C   UNL     1      32.745 -13.297 -22.315  0.00  0.00    +0.015 C 
ATOM     12  C   UNL     1      34.022 -12.531 -24.235  0.00  0.00    +0.000 C 
ATOM     13  C   UNL     1      33.592 -11.214 -24.034  0.00  0.00    +0.001 C 
ATOM     14  C   UNL     1      32.108  -9.746 -22.469  0.00  0.00    +0.017 C 
ATOM     15  C   UNL     1      31.357 -10.090 -21.370  0.00  0.00    +0.062 C 
ATOM     16  H   UNL     1      31.059 -11.946 -20.447  0.00  0.00    +0.152 HD
ENDBRANCH   1   8
BRANCH   2  17
ATOM     17  C   UNL     1      35.734 -17.707 -21.700  0.00  0.00    +0.114 C 
BRANCH  17  18
ATOM     18  N   UNL     1      35.659 -19.129 -21.915  0.00  0.00    -0.327 N 
ATOM     19  H   UNL     1      36.147 -19.509 -22.682  0.00  0.00    +0.147 HD
BRANCH  18  21
ATOM     20  N   UNL     1      34.878 -21.693 -19.358  0.00  0.00    -0.228 NA
ATOM     21  C   UNL     1      34.939 -19.996 -21.104  0.00  0.00    +0.077 C 
ATOM     22  C   UNL     1      35.543 -20.837 -20.166  0.00  0.00    +0.139 C 
ATOM     23  C   UNL     1      33.543 -20.062 -21.196  0.00  0.00    +0.019 C 
ATOM     24  C   UNL     1      32.824 -20.931 -20.383  0.00  0.00    +0.022 C 
ATOM     25  C   UNL     1      33.532 -21.718 -19.488  0.00  0.00    +0.100 C 
ATOM     26  N   UNL     1      36.955 -20.789 -20.055  0.00  0.00    -0.342 N 
ATOM     27  H   UNL     1      37.417 -21.366 -19.405  0.00  0.00    +0.144 HD
ATOM     28  H   UNL     1      37.474 -20.178 -20.627  0.00  0.00    +0.144 HD
ENDBRANCH  18  21
ENDBRANCH  17  18
ENDBRANCH   2  17
TORSDOF 4
ENDMDL
MODEL 7
REMARK VINA RESULT:     -10.8      7.648     10.890
REMARK  Name = 11507920
REMARK  4 active torsions:
REMARK  status: ('A' for Active; 'I' for Inactive)
REMARK    1  A    between atoms: C_1  and  C_8
REMARK    2  A    between atoms: C_2  and  C_17
REMARK    3  A    between atoms: C_17  and  N_18
REMARK    4  A    between atoms: N_18  and  C_21
REMARK                            x       y       z     vdW  Elec       q    Type
REMARK                         _______ _______ _______ _____ _____    ______ ____
ROOT
ATOM      1  C   UNL     1      34.057 -22.885 -17.137  0.00  0.00    -0.000 C 
ATOM      2  C   UNL     1      36.423 -22.470 -16.883  0.00  0.00    -0.003 C 
ATOM      3  C   UNL     1      35.200 -22.866 -16.339  0.00  0.00    -0.003 C 
ATOM      4  C   UNL     1      34.133 -22.508 -18.477  0.00  0.00    -0.000 C 
ATOM      5  C   UNL     1      36.500 -22.092 -18.223  0.00  0.00    -0.003 C 
ATOM      6  C   UNL     1      35.355 -22.111 -19.021  0.00  0.00    -0.000 C 
ENDROOT
BRANCH   1   8
ATOM      7  N   UNL     1      29.097 -23.107 -17.018  0.00  0.00    -0.312 N 
ATOM      8  C   UNL     1      32.788 -23.296 -16.573  0.00  0.00    +0.001 C 
ATOM      9  C   UNL     1      30.397 -23.330 -16.624  0.00  0.00    +0.048 C 
ATOM     10  C   UNL     1      30.347 -24.101 -15.461  0.00  0.00    +0.015 C 
ATOM     11  C   UNL     1      31.601 -22.913 -17.202  0.00  0.00    +0.015 C 
ATOM     12  C   UNL     1      32.769 -24.065 -15.410  0.00  0.00    +0.000 C 
ATOM     13  C   UNL     1      31.557 -24.475 -14.843  0.00  0.00    +0.001 C 
ATOM     14  C   UNL     1      28.973 -24.332 -15.173  0.00  0.00    +0.017 C 
ATOM     15  C   UNL     1      28.230 -23.709 -16.147  0.00  0.00    +0.062 C 
ATOM     16  H   UNL     1      28.829 -22.589 -17.812  0.00  0.00    +0.152 HD
ENDBRANCH   1   8
BRANCH   2  17
ATOM     17  C   UNL     1      37.647 -22.448 -16.031  0.00  0.00    +0.114 C 
BRANCH  17  18
ATOM     18  N   UNL     1      38.256 -23.748 -15.916  0.00  0.00    -0.327 N 
ATOM     19  H   UNL     1      38.741 -24.104 -16.695  0.00  0.00    +0.147 HD
BRANCH  18  21
ATOM     20  N   UNL     1      39.110 -26.306 -13.377  0.00  0.00    -0.228 NA
ATOM     21  C   UNL     1      38.197 -24.529 -14.769  0.00  0.00    +0.077 C 
ATOM     22  C   UNL     1      39.132 -25.527 -14.481  0.00  0.00    +0.139 C 
ATOM     23  C   UNL     1      37.174 -24.341 -13.831  0.00  0.00    +0.019 C 
ATOM     24  C   UNL     1      37.118 -25.124 -12.684  0.00  0.00    +0.022 C 
ATOM     25  C   UNL     1      38.101 -26.084 -12.504  0.00  0.00    +0.100 C 
ATOM     26  N   UNL     1      40.176 -25.738 -15.416  0.00  0.00    -0.342 N 
ATOM     27  H   UNL     1      40.854 -26.431 -15.248  0.00  0.00    +0.144 HD
ATOM     28  H   UNL     1      40.225 -25.190 -16.232  0.00  0.00    +0.144 HD
ENDBRANCH  18  21
ENDBRANCH  17  18
ENDBRANCH   2  17
TORSDOF 4
ENDMDL
MODEL 8
REMARK VINA RESULT:     -10.8      4.894      8.447
REMARK  Name = 11507920
REMARK  4 active torsions:
REMARK  status: ('A' for Active; 'I' for Inactive)
REMARK    1  A    between atoms: C_1  and  C_8
REMARK    2  A    between atoms: C_2  and  C_17
REMARK    3  A    between atoms: C_17  and  N_18
REMARK    4  A    between atoms: N_18  and  C_21
REMARK                            x       y       z     vdW  Elec       q    Type
REMARK                         _______ _______ _______ _____ _____    ______ ____
ROOT
ATOM      1  C   UNL     1      34.504 -23.624 -15.159  0.00  0.00    -0.000 C 
ATOM      2  C   UNL     1      36.216 -22.622 -16.536  0.00  0.00    -0.003 C 
ATOM      3  C   UNL     1      34.893 -23.029 -16.358  0.00  0.00    -0.003 C 
ATOM      4  C   UNL     1      35.434 -23.815 -14.138  0.00  0.00    -0.000 C 
ATOM      5  C   UNL     1      37.148 -22.813 -15.516  0.00  0.00    -0.003 C 
ATOM      6  C   UNL     1      36.757 -23.410 -14.317  0.00  0.00    -0.000 C 
ENDROOT
BRANCH   1   8
ATOM      7  N   UNL     1      29.687 -23.773 -16.362  0.00  0.00    -0.312 N 
ATOM      8  C   UNL     1      33.131 -24.046 -14.974  0.00  0.00    +0.001 C 
ATOM      9  C   UNL     1      30.838 -24.039 -15.655  0.00  0.00    +0.048 C 
ATOM     10  C   UNL     1      30.484 -24.877 -14.595  0.00  0.00    +0.015 C 
ATOM     11  C   UNL     1      32.151 -23.608 -15.869  0.00  0.00    +0.015 C 
ATOM     12  C   UNL     1      32.807 -24.883 -13.907  0.00  0.00    +0.000 C 
ATOM     13  C   UNL     1      31.488 -25.306 -13.704  0.00  0.00    +0.001 C 
ATOM     14  C   UNL     1      29.082 -25.103 -14.692  0.00  0.00    +0.017 C 
ATOM     15  C   UNL     1      28.622 -24.411 -15.788  0.00  0.00    +0.062 C 
ATOM     16  H   UNL     1      29.638 -23.205 -17.165  0.00  0.00    +0.152 HD
ENDBRANCH   1   8
BRANCH   2  17
ATOM     17  C   UNL     1      36.635 -21.986 -17.818  0.00  0.00    +0.114 C 
BRANCH  17  18
ATOM     18  N   UNL     1      35.791 -22.368 -18.920  0.00  0.00    -0.327 N 
ATOM     19  H   UNL     1      35.619 -23.327 -19.062  0.00  0.00    +0.147 HD
BRANCH  18  21
ATOM     20  N   UNL     1      33.215 -20.487 -20.804  0.00  0.00    -0.228 NA
ATOM     21  C   UNL     1      35.205 -21.463 -19.795  0.00  0.00    +0.077 C 
ATOM     22  C   UNL     1      33.823 -21.355 -19.965  0.00  0.00    +0.139 C 
ATOM     23  C   UNL     1      35.998 -20.597 -20.559  0.00  0.00    +0.019 C 
ATOM     24  C   UNL     1      35.410 -19.690 -21.433  0.00  0.00    +0.022 C 
ATOM     25  C   UNL     1      34.027 -19.674 -21.518  0.00  0.00    +0.100 C 
ATOM     26  N   UNL     1      32.999 -22.222 -19.203  0.00  0.00    -0.342 N 
ATOM     27  H   UNL     1      32.020 -22.176 -19.295  0.00  0.00    +0.144 HD
ATOM     28  H   UNL     1      33.405 -22.868 -18.582  0.00  0.00    +0.144 HD
ENDBRANCH  18  21
ENDBRANCH  17  18
ENDBRANCH   2  17
TORSDOF 4
ENDMDL
MODEL 9
REMARK VINA RESULT:     -10.8      5.148      9.118
REMARK  Name = 11507920
REMARK  4 active torsions:
REMARK  status: ('A' for Active; 'I' for Inactive)
REMARK    1  A    between atoms: C_1  and  C_8
REMARK    2  A    between atoms: C_2  and  C_17
REMARK    3  A    between atoms: C_17  and  N_18
REMARK    4  A    between atoms: N_18  and  C_21
REMARK                            x       y       z     vdW  Elec       q    Type
REMARK                         _______ _______ _______ _____ _____    ______ ____
ROOT
ATOM      1  C   UNL     1      33.989 -24.064 -14.603  0.00  0.00    -0.000 C 
ATOM      2  C   UNL     1      32.529 -23.245 -16.344  0.00  0.00    -0.003 C 
ATOM      3  C   UNL     1      33.792 -23.665 -15.924  0.00  0.00    -0.003 C 
ATOM      4  C   UNL     1      32.926 -24.045 -13.701  0.00  0.00    -0.000 C 
ATOM      5  C   UNL     1      31.465 -23.225 -15.442  0.00  0.00    -0.003 C 
ATOM      6  C   UNL     1      31.664 -23.624 -14.120  0.00  0.00    -0.000 C 
ENDROOT
BRANCH   1   8
ATOM      7  N   UNL     1      38.691 -25.478 -15.349  0.00  0.00    -0.312 N 
ATOM      8  C   UNL     1      35.300 -24.498 -14.167  0.00  0.00    +0.001 C 
ATOM      9  C   UNL     1      37.545 -25.166 -14.655  0.00  0.00    +0.048 C 
ATOM     10  C   UNL     1      37.826 -25.337 -13.298  0.00  0.00    +0.015 C 
ATOM     11  C   UNL     1      36.292 -24.748 -15.119  0.00  0.00    +0.015 C 
ATOM     12  C   UNL     1      35.552 -24.661 -12.806  0.00  0.00    +0.000 C 
ATOM     13  C   UNL     1      36.810 -25.080 -12.356  0.00  0.00    +0.001 C 
ATOM     14  C   UNL     1      39.181 -25.763 -13.204  0.00  0.00    +0.017 C 
ATOM     15  C   UNL     1      39.685 -25.840 -14.481  0.00  0.00    +0.062 C 
ATOM     16  H   UNL     1      38.783 -25.446 -16.329  0.00  0.00    +0.152 HD
ENDBRANCH   1   8
BRANCH   2  17
ATOM     17  C   UNL     1      32.316 -22.817 -17.757  0.00  0.00    +0.114 C 
BRANCH  17  18
ATOM     18  N   UNL     1      33.526 -22.882 -18.536  0.00  0.00    -0.327 N 
ATOM     19  H   UNL     1      34.086 -23.687 -18.458  0.00  0.00    +0.147 HD
BRANCH  18  21
ATOM     20  N   UNL     1      35.733 -20.495 -20.312  0.00  0.00    -0.228 NA
ATOM     21  C   UNL     1      33.949 -21.872 -19.391  0.00  0.00    +0.077 C 
ATOM     22  C   UNL     1      35.282 -21.471 -19.492  0.00  0.00    +0.139 C 
ATOM     23  C   UNL     1      33.030 -21.201 -20.208  0.00  0.00    +0.019 C 
ATOM     24  C   UNL     1      33.455 -20.191 -21.064  0.00  0.00    +0.022 C 
ATOM     25  C   UNL     1      34.805 -19.879 -21.079  0.00  0.00    +0.100 C 
ATOM     26  N   UNL     1      36.231 -22.134 -18.674  0.00  0.00    -0.342 N 
ATOM     27  H   UNL     1      37.181 -21.880 -18.717  0.00  0.00    +0.144 HD
ATOM     28  H   UNL     1      35.941 -22.850 -18.064  0.00  0.00    +0.144 HD
ENDBRANCH  18  21
ENDBRANCH  17  18
ENDBRANCH   2  17
TORSDOF 4
ENDMDL
