MODEL 1
REMARK VINA RESULT:     -12.1      0.000      0.000
REMARK  Name = 46937081
REMARK  6 active torsions:
REMARK  status: ('A' for Active; 'I' for Inactive)
REMARK    1  A    between atoms: N_1  and  C_10
REMARK    2  A    between atoms: C_4  and  C_16
REMARK    3  A    between atoms: C_9  and  C_31
REMARK    4  A    between atoms: C_16  and  C_17
REMARK    5  A    between atoms: C_18  and  N_23
REMARK    6  A    between atoms: C_31  and  N_32
REMARK                            x       y       z     vdW  Elec       q    Type
REMARK                         _______ _______ _______ _____ _____    ______ ____
ROOT
ATOM      1  N   UNL     1      34.195 -23.575 -15.674  0.00  0.00    -0.267 N 
ATOM      2  N   UNL     1      35.269 -23.757 -13.521  0.00  0.00    -0.341 NA
ATOM      3  N   UNL     1      37.629 -23.163 -13.584  0.00  0.00    -0.188 NA
ATOM      4  C   UNL     1      34.567 -23.218 -16.943  0.00  0.00    +0.035 C 
ATOM      5  C   UNL     1      35.277 -23.482 -14.837  0.00  0.00    +0.199 C 
ATOM      6  C   UNL     1      36.364 -23.057 -15.590  0.00  0.00    +0.066 C 
ATOM      7  C   UNL     1      35.906 -22.892 -16.922  0.00  0.00    +0.016 C 
ATOM      8  C   UNL     1      37.572 -22.901 -14.911  0.00  0.00    +0.114 C 
ATOM      9  C   UNL     1      36.490 -23.570 -12.980  0.00  0.00    +0.042 C 
ENDROOT
BRANCH   1  10
ATOM     10  C   UNL     1      32.803 -24.007 -15.251  0.00  0.00    +0.079 C 
ATOM     11  C   UNL     1      32.843 -25.009 -14.084  0.00  0.00    +0.020 C 
ATOM     12  C   UNL     1      31.907 -22.803 -14.912  0.00  0.00    +0.020 C 
ATOM     13  C   UNL     1      31.437 -25.446 -13.674  0.00  0.00    +0.002 C 
ATOM     14  C   UNL     1      30.506 -23.248 -14.499  0.00  0.00    +0.002 C 
ATOM     15  C   UNL     1      30.549 -24.249 -13.347  0.00  0.00    +0.000 C 
ENDBRANCH   1  10
BRANCH   4  16
ATOM     16  C   UNL     1      33.588 -23.217 -18.101  0.00  0.00    +0.068 C 
BRANCH  16  17
ATOM     17  C   UNL     1      33.862 -22.168 -19.125  0.00  0.00    -0.016 C 
ATOM     18  C   UNL     1      34.375 -20.207 -21.041  0.00  0.00    +0.048 C 
ATOM     19  C   UNL     1      35.176 -21.881 -19.494  0.00  0.00    -0.003 C 
ATOM     20  C   UNL     1      32.805 -21.476 -19.714  0.00  0.00    -0.003 C 
ATOM     21  C   UNL     1      35.433 -20.900 -20.452  0.00  0.00    +0.014 C 
ATOM     22  C   UNL     1      33.061 -20.494 -20.672  0.00  0.00    +0.014 C 
BRANCH  18  23
ATOM     23  N   UNL     1      34.632 -19.223 -22.002  0.00  0.00    -0.312 N 
ATOM     24  N   UNL     1      35.406 -17.285 -23.953  0.00  0.00    +0.388 N 
ATOM     25  C   UNL     1      34.675 -19.587 -23.422  0.00  0.00    +0.068 C 
ATOM     26  C   UNL     1      35.469 -18.081 -21.614  0.00  0.00    +0.068 C 
ATOM     27  C   UNL     1      35.226 -16.895 -22.550  0.00  0.00    -0.056 C 
ATOM     28  C   UNL     1      34.459 -18.352 -24.300  0.00  0.00    -0.056 C 
ATOM     29  C   UNL     1      35.226 -16.132 -24.834  0.00  0.00    -0.101 C 
ATOM     30  H   UNL     1      36.356 -17.635 -24.079  0.00  0.00    -0.080 HD
ENDBRANCH  18  23
ENDBRANCH  16  17
ENDBRANCH   4  16
BRANCH   9  31
ATOM     31  C   UNL     1      36.599 -23.847 -11.517  0.00  0.00    +0.030 C 
BRANCH  31  32
ATOM     32  N   UNL     1      37.955 -24.229 -11.124  0.00  0.00    +0.390 N 
ATOM     33  H   UNL     1      38.529 -24.354 -11.959  0.00  0.00    -0.088 HD
ATOM     34  H   UNL     1      37.924 -25.103 -10.599  0.00  0.00    -0.088 HD
ATOM     35  H   UNL     1      38.359 -23.496 -10.540  0.00  0.00    -0.088 HD
ENDBRANCH  31  32
ENDBRANCH   9  31
TORSDOF 6
ENDMDL
MODEL 2
REMARK VINA RESULT:     -11.6      1.819      3.962
REMARK  Name = 46937081
REMARK  6 active torsions:
REMARK  status: ('A' for Active; 'I' for Inactive)
REMARK    1  A    between atoms: N_1  and  C_10
REMARK    2  A    between atoms: C_4  and  C_16
REMARK    3  A    between atoms: C_9  and  C_31
REMARK    4  A    between atoms: C_16  and  C_17
REMARK    5  A    between atoms: C_18  and  N_23
REMARK    6  A    between atoms: C_31  and  N_32
REMARK                            x       y       z     vdW  Elec       q    Type
REMARK                         _______ _______ _______ _____ _____    ______ ____
ROOT
ATOM      1  N   UNL     1      34.527 -23.435 -16.441  0.00  0.00    -0.267 N 
ATOM      2  N   UNL     1      32.908 -24.287 -14.868  0.00  0.00    -0.341 NA
ATOM      3  N   UNL     1      30.609 -23.914 -15.576  0.00  0.00    -0.188 NA
ATOM      4  C   UNL     1      34.495 -22.788 -17.648  0.00  0.00    +0.035 C 
ATOM      5  C   UNL     1      33.246 -23.669 -16.014  0.00  0.00    +0.199 C 
ATOM      6  C   UNL     1      32.376 -23.160 -16.970  0.00  0.00    +0.066 C 
ATOM      7  C   UNL     1      33.175 -22.604 -18.001  0.00  0.00    +0.016 C 
ATOM      8  C   UNL     1      31.013 -23.302 -16.713  0.00  0.00    +0.114 C 
ATOM      9  C   UNL     1      31.568 -24.362 -14.735  0.00  0.00    +0.042 C 
ENDROOT
BRANCH   1  10
ATOM     10  C   UNL     1      35.782 -23.834 -15.687  0.00  0.00    +0.079 C 
ATOM     11  C   UNL     1      35.973 -22.999 -14.409  0.00  0.00    +0.020 C 
ATOM     12  C   UNL     1      35.806 -25.339 -15.370  0.00  0.00    +0.020 C 
ATOM     13  C   UNL     1      37.245 -23.401 -13.664  0.00  0.00    +0.002 C 
ATOM     14  C   UNL     1      37.078 -25.733 -14.621  0.00  0.00    +0.002 C 
ATOM     15  C   UNL     1      37.269 -24.896 -13.358  0.00  0.00    +0.000 C 
ENDBRANCH   1  10
BRANCH   4  16
ATOM     16  C   UNL     1      35.759 -22.389 -18.385  0.00  0.00    +0.068 C 
BRANCH  16  17
ATOM     17  C   UNL     1      35.531 -21.433 -19.506  0.00  0.00    -0.016 C 
ATOM     18  C   UNL     1      35.103 -19.645 -21.605  0.00  0.00    +0.048 C 
ATOM     19  C   UNL     1      36.605 -20.733 -20.055  0.00  0.00    -0.003 C 
ATOM     20  C   UNL     1      34.244 -21.240 -20.006  0.00  0.00    -0.003 C 
ATOM     21  C   UNL     1      36.391 -19.839 -21.104  0.00  0.00    +0.014 C 
ATOM     22  C   UNL     1      34.029 -20.346 -21.055  0.00  0.00    +0.014 C 
BRANCH  18  23
ATOM     23  N   UNL     1      34.889 -18.749 -22.657  0.00  0.00    -0.312 N 
ATOM     24  N   UNL     1      34.703 -16.944 -24.863  0.00  0.00    +0.388 N 
ATOM     25  C   UNL     1      34.613 -19.260 -24.004  0.00  0.00    +0.068 C 
ATOM     26  C   UNL     1      35.557 -17.444 -22.598  0.00  0.00    +0.068 C 
ATOM     27  C   UNL     1      34.839 -16.432 -23.494  0.00  0.00    -0.056 C 
ATOM     28  C   UNL     1      33.926 -18.190 -24.855  0.00  0.00    -0.056 C 
ATOM     29  C   UNL     1      34.064 -15.948 -25.722  0.00  0.00    -0.101 C 
ATOM     30  H   UNL     1      35.631 -17.138 -25.237  0.00  0.00    -0.080 HD
ENDBRANCH  18  23
ENDBRANCH  16  17
ENDBRANCH   4  16
BRANCH   9  31
ATOM     31  C   UNL     1      31.078 -25.031 -13.494  0.00  0.00    +0.030 C 
BRANCH  31  32
ATOM     32  N   UNL     1      29.687 -25.470 -13.612  0.00  0.00    +0.390 N 
ATOM     33  H   UNL     1      29.161 -25.159 -12.794  0.00  0.00    -0.088 HD
ATOM     34  H   UNL     1      29.655 -26.488 -13.669  0.00  0.00    -0.088 HD
ATOM     35  H   UNL     1      29.274 -25.070 -14.455  0.00  0.00    -0.088 HD
ENDBRANCH  31  32
ENDBRANCH   9  31
TORSDOF 6
ENDMDL
