MODEL 1
REMARK VINA RESULT:     -11.0      0.000      0.000
REMARK  Name = 10275777
REMARK  5 active torsions:
REMARK  status: ('A' for Active; 'I' for Inactive)
REMARK    1  A    between atoms: C_1  and  N_19
REMARK    2  A    between atoms: C_2  and  C_11
REMARK    3  A    between atoms: C_5  and  O_34
REMARK    4  A    between atoms: C_20  and  C_22
REMARK    5  A    between atoms: C_23  and  C_30
REMARK                            x       y       z     vdW  Elec       q    Type
REMARK                         _______ _______ _______ _____ _____    ______ ____
ROOT
ATOM      1  C   UNL     1      36.527 -22.622 -16.852  0.00  0.00    +0.055 C 
ATOM      2  C   UNL     1      35.489 -23.307 -16.242  0.00  0.00    +0.070 C 
ATOM      3  C   UNL     1      37.843 -22.811 -16.462  0.00  0.00    +0.018 C 
ATOM      4  C   UNL     1      35.774 -24.206 -15.214  0.00  0.00    +0.043 C 
ATOM      5  C   UNL     1      37.094 -24.408 -14.810  0.00  0.00    +0.139 C 
ATOM      6  C   UNL     1      38.128 -23.710 -15.434  0.00  0.00    +0.038 C 
ENDROOT
BRANCH   2  11
ATOM      7 CL   UNL     1      27.335 -22.843 -16.015  0.00  0.00    -0.081 Cl
ATOM      8  O   UNL     1      33.844 -22.888 -17.833  0.00  0.00    -0.270 OA
ATOM      9  N   UNL     1      33.150 -23.254 -15.622  0.00  0.00    -0.266 N 
ATOM     10  N   UNL     1      31.023 -23.319 -14.589  0.00  0.00    -0.228 NA
ATOM     11  C   UNL     1      34.100 -23.122 -16.643  0.00  0.00    +0.252 C 
ATOM     12  C   UNL     1      31.740 -23.154 -15.714  0.00  0.00    +0.134 C 
ATOM     13  C   UNL     1      31.215 -22.895 -16.961  0.00  0.00    +0.035 C 
ATOM     14  C   UNL     1      29.831 -22.795 -17.063  0.00  0.00    +0.016 C 
ATOM     15  C   UNL     1      29.682 -23.216 -14.726  0.00  0.00    +0.112 C 
ATOM     16  C   UNL     1      29.043 -22.957 -15.928  0.00  0.00    +0.077 C 
ATOM     17  H   UNL     1      33.509 -23.442 -14.724  0.00  0.00    +0.157 HD
ENDBRANCH   2  11
BRANCH   1  19
ATOM     18  O   UNL     1      36.000 -23.104 -19.763  0.00  0.00    -0.270 OA
ATOM     19  N   UNL     1      36.262 -21.705 -17.898  0.00  0.00    -0.280 N 
ATOM     20  C   UNL     1      36.019 -21.973 -19.253  0.00  0.00    +0.249 C 
ATOM     21  H   UNL     1      36.246 -20.755 -17.640  0.00  0.00    +0.155 HD
BRANCH  20  22
ATOM     22  C   UNL     1      35.805 -20.811 -20.101  0.00  0.00    +0.054 C 
ATOM     23  C   UNL     1      35.399 -18.611 -21.709  0.00  0.00    +0.031 C 
ATOM     24  C   UNL     1      36.869 -19.962 -20.402  0.00  0.00    +0.005 C 
ATOM     25  C   UNL     1      34.535 -20.547 -20.613  0.00  0.00    +0.005 C 
ATOM     26  C   UNL     1      36.663 -18.848 -21.217  0.00  0.00    +0.003 C 
ATOM     27  C   UNL     1      34.329 -19.433 -21.428  0.00  0.00    +0.003 C 
BRANCH  23  30
ATOM     28  N   UNL     1      34.925 -16.172 -22.008  0.00  0.00    -0.290 N 
ATOM     29  N   UNL     1      35.255 -17.660 -23.858  0.00  0.00    -0.285 NA
ATOM     30  C   UNL     1      35.180 -17.424 -22.579  0.00  0.00    +0.123 C 
ATOM     31  C   UNL     1      34.626 -15.006 -22.834  0.00  0.00    +0.114 C 
ATOM     32  C   UNL     1      34.859 -15.945 -20.566  0.00  0.00    +0.114 C 
ATOM     33  H   UNL     1      35.122 -16.928 -24.502  0.00  0.00    +0.188 HD
ENDBRANCH  23  30
ENDBRANCH  20  22
ENDBRANCH   1  19
BRANCH   5  34
ATOM     34  O   UNL     1      37.372 -25.285 -13.808  0.00  0.00    -0.471 OA
ATOM     35  C   UNL     1      37.460 -26.665 -14.159  0.00  0.00    +0.252 C 
ENDBRANCH   5  34
TORSDOF 5
ENDMDL
MODEL 2
REMARK VINA RESULT:     -10.8      3.515      8.972
REMARK  Name = 10275777
REMARK  5 active torsions:
REMARK  status: ('A' for Active; 'I' for Inactive)
REMARK    1  A    between atoms: C_1  and  N_19
REMARK    2  A    between atoms: C_2  and  C_11
REMARK    3  A    between atoms: C_5  and  O_34
REMARK    4  A    between atoms: C_20  and  C_22
REMARK    5  A    between atoms: C_23  and  C_30
REMARK                            x       y       z     vdW  Elec       q    Type
REMARK                         _______ _______ _______ _____ _____    ______ ____
ROOT
ATOM      1  C   UNL     1      31.302 -24.090 -15.531  0.00  0.00    +0.055 C 
ATOM      2  C   UNL     1      31.166 -23.326 -16.679  0.00  0.00    +0.070 C 
ATOM      3  C   UNL     1      30.195 -24.532 -14.824  0.00  0.00    +0.018 C 
ATOM      4  C   UNL     1      29.889 -22.995 -17.132  0.00  0.00    +0.043 C 
ATOM      5  C   UNL     1      28.765 -23.432 -16.432  0.00  0.00    +0.139 C 
ATOM      6  C   UNL     1      28.918 -24.200 -15.277  0.00  0.00    +0.038 C 
ENDROOT
BRANCH   2  11
ATOM      7 CL   UNL     1      35.769 -19.604 -22.310  0.00  0.00    -0.081 Cl
ATOM      8  O   UNL     1      33.452 -23.239 -17.105  0.00  0.00    -0.270 OA
ATOM      9  N   UNL     1      32.034 -22.012 -18.516  0.00  0.00    -0.266 N 
ATOM     10  N   UNL     1      32.430 -20.640 -20.402  0.00  0.00    -0.228 NA
ATOM     11  C   UNL     1      32.319 -22.857 -17.436  0.00  0.00    +0.252 C 
ATOM     12  C   UNL     1      32.938 -21.425 -19.437  0.00  0.00    +0.134 C 
ATOM     13  C   UNL     1      34.275 -21.713 -19.266  0.00  0.00    +0.035 C 
ATOM     14  C   UNL     1      35.170 -21.143 -20.165  0.00  0.00    +0.016 C 
ATOM     15  C   UNL     1      33.330 -20.104 -21.257  0.00  0.00    +0.112 C 
ATOM     16  C   UNL     1      34.696 -20.322 -21.182  0.00  0.00    +0.077 C 
ATOM     17  H   UNL     1      31.083 -21.797 -18.654  0.00  0.00    +0.157 HD
ENDBRANCH   2  11
BRANCH   1  19
ATOM     18  O   UNL     1      32.615 -23.503 -12.901  0.00  0.00    -0.270 OA
ATOM     19  N   UNL     1      32.588 -24.439 -15.052  0.00  0.00    -0.280 N 
ATOM     20  C   UNL     1      33.166 -24.144 -13.810  0.00  0.00    +0.249 C 
ATOM     21  H   UNL     1      33.149 -24.957 -15.673  0.00  0.00    +0.155 HD
BRANCH  20  22
ATOM     22  C   UNL     1      34.527 -24.618 -13.615  0.00  0.00    +0.054 C 
ATOM     23  C   UNL     1      37.105 -25.517 -13.244  0.00  0.00    +0.031 C 
ATOM     24  C   UNL     1      35.188 -24.365 -12.413  0.00  0.00    +0.005 C 
ATOM     25  C   UNL     1      35.172 -25.325 -14.629  0.00  0.00    +0.005 C 
ATOM     26  C   UNL     1      36.493 -24.821 -12.225  0.00  0.00    +0.003 C 
ATOM     27  C   UNL     1      36.477 -25.781 -14.441  0.00  0.00    +0.003 C 
BRANCH  23  30
ATOM     28  N   UNL     1      39.483 -25.724 -13.996  0.00  0.00    -0.290 N 
ATOM     29  N   UNL     1      38.690 -26.673 -11.942  0.00  0.00    -0.285 NA
ATOM     30  C   UNL     1      38.497 -26.004 -13.043  0.00  0.00    +0.123 C 
ATOM     31  C   UNL     1      40.837 -26.256 -13.867  0.00  0.00    +0.114 C 
ATOM     32  C   UNL     1      39.229 -24.960 -15.215  0.00  0.00    +0.114 C 
ATOM     33  H   UNL     1      39.583 -27.030 -11.733  0.00  0.00    +0.188 HD
ENDBRANCH  23  30
ENDBRANCH  20  22
ENDBRANCH   1  19
BRANCH   5  34
ATOM     34  O   UNL     1      27.519 -23.109 -16.874  0.00  0.00    -0.471 OA
ATOM     35  C   UNL     1      26.691 -22.357 -15.989  0.00  0.00    +0.252 C 
ENDBRANCH   5  34
TORSDOF 5
ENDMDL
MODEL 3
REMARK VINA RESULT:     -10.8      0.672      1.174
REMARK  Name = 10275777
REMARK  5 active torsions:
REMARK  status: ('A' for Active; 'I' for Inactive)
REMARK    1  A    between atoms: C_1  and  N_19
REMARK    2  A    between atoms: C_2  and  C_11
REMARK    3  A    between atoms: C_5  and  O_34
REMARK    4  A    between atoms: C_20  and  C_22
REMARK    5  A    between atoms: C_23  and  C_30
REMARK                            x       y       z     vdW  Elec       q    Type
REMARK                         _______ _______ _______ _____ _____    ______ ____
ROOT
ATOM      1  C   UNL     1      36.474 -22.633 -16.844  0.00  0.00    +0.055 C 
ATOM      2  C   UNL     1      35.450 -23.323 -16.217  0.00  0.00    +0.070 C 
ATOM      3  C   UNL     1      37.796 -22.800 -16.462  0.00  0.00    +0.018 C 
ATOM      4  C   UNL     1      35.754 -24.203 -15.178  0.00  0.00    +0.043 C 
ATOM      5  C   UNL     1      37.080 -24.382 -14.781  0.00  0.00    +0.139 C 
ATOM      6  C   UNL     1      38.100 -23.680 -15.423  0.00  0.00    +0.038 C 
ENDROOT
BRANCH   2  11
ATOM      7 CL   UNL     1      27.300 -22.842 -15.911  0.00  0.00    -0.081 Cl
ATOM      8  O   UNL     1      33.784 -23.000 -17.808  0.00  0.00    -0.270 OA
ATOM      9  N   UNL     1      33.119 -23.232 -15.570  0.00  0.00    -0.266 N 
ATOM     10  N   UNL     1      31.006 -23.233 -14.507  0.00  0.00    -0.228 NA
ATOM     11  C   UNL     1      34.056 -23.163 -16.610  0.00  0.00    +0.252 C 
ATOM     12  C   UNL     1      31.708 -23.136 -15.649  0.00  0.00    +0.134 C 
ATOM     13  C   UNL     1      31.166 -22.953 -16.903  0.00  0.00    +0.035 C 
ATOM     14  C   UNL     1      29.782 -22.859 -16.992  0.00  0.00    +0.016 C 
ATOM     15  C   UNL     1      29.664 -23.137 -14.632  0.00  0.00    +0.112 C 
ATOM     16  C   UNL     1      29.009 -22.952 -15.840  0.00  0.00    +0.077 C 
ATOM     17  H   UNL     1      33.490 -23.365 -14.667  0.00  0.00    +0.157 HD
ENDBRANCH   2  11
BRANCH   1  19
ATOM     18  O   UNL     1      35.913 -23.166 -19.740  0.00  0.00    -0.270 OA
ATOM     19  N   UNL     1      36.189 -21.735 -17.901  0.00  0.00    -0.280 N 
ATOM     20  C   UNL     1      35.931 -22.027 -19.248  0.00  0.00    +0.249 C 
ATOM     21  H   UNL     1      36.170 -20.781 -17.659  0.00  0.00    +0.155 HD
BRANCH  20  22
ATOM     22  C   UNL     1      35.697 -20.880 -20.112  0.00  0.00    +0.054 C 
ATOM     23  C   UNL     1      35.256 -18.709 -21.750  0.00  0.00    +0.031 C 
ATOM     24  C   UNL     1      36.754 -20.034 -20.449  0.00  0.00    +0.005 C 
ATOM     25  C   UNL     1      34.417 -20.626 -20.604  0.00  0.00    +0.005 C 
ATOM     26  C   UNL     1      36.530 -18.935 -21.279  0.00  0.00    +0.003 C 
ATOM     27  C   UNL     1      34.194 -19.527 -21.434  0.00  0.00    +0.003 C 
BRANCH  23  30
ATOM     28  N   UNL     1      34.636 -17.729 -23.967  0.00  0.00    -0.290 N 
ATOM     29  N   UNL     1      35.185 -16.377 -22.065  0.00  0.00    -0.285 NA
ATOM     30  C   UNL     1      35.018 -17.537 -22.635  0.00  0.00    +0.123 C 
ATOM     31  C   UNL     1      34.473 -16.602 -24.882  0.00  0.00    +0.114 C 
ATOM     32  C   UNL     1      34.448 -19.047 -24.567  0.00  0.00    +0.114 C 
ATOM     33  H   UNL     1      35.046 -15.551 -22.581  0.00  0.00    +0.188 HD
ENDBRANCH  23  30
ENDBRANCH  20  22
ENDBRANCH   1  19
BRANCH   5  34
ATOM     34  O   UNL     1      37.377 -25.241 -13.769  0.00  0.00    -0.471 OA
ATOM     35  C   UNL     1      37.453 -26.628 -14.095  0.00  0.00    +0.252 C 
ENDBRANCH   5  34
TORSDOF 5
ENDMDL
MODEL 4
REMARK VINA RESULT:      -9.5      3.582      7.089
REMARK  Name = 10275777
REMARK  5 active torsions:
REMARK  status: ('A' for Active; 'I' for Inactive)
REMARK    1  A    between atoms: C_1  and  N_19
REMARK    2  A    between atoms: C_2  and  C_11
REMARK    3  A    between atoms: C_5  and  O_34
REMARK    4  A    between atoms: C_20  and  C_22
REMARK    5  A    between atoms: C_23  and  C_30
REMARK                            x       y       z     vdW  Elec       q    Type
REMARK                         _______ _______ _______ _____ _____    ______ ____
ROOT
ATOM      1  C   UNL     1      36.044 -25.041 -14.355  0.00  0.00    +0.055 C 
ATOM      2  C   UNL     1      37.100 -24.467 -15.044  0.00  0.00    +0.070 C 
ATOM      3  C   UNL     1      36.260 -25.924 -13.308  0.00  0.00    +0.018 C 
ATOM      4  C   UNL     1      38.408 -24.784 -14.677  0.00  0.00    +0.043 C 
ATOM      5  C   UNL     1      38.642 -25.671 -13.626  0.00  0.00    +0.139 C 
ATOM      6  C   UNL     1      37.568 -26.241 -12.942  0.00  0.00    +0.038 C 
ENDROOT
BRANCH   2  11
ATOM      7 CL   UNL     1      33.617 -20.357 -21.186  0.00  0.00    -0.081 Cl
ATOM      8  O   UNL     1      37.835 -22.826 -16.520  0.00  0.00    -0.270 OA
ATOM      9  N   UNL     1      35.608 -23.539 -16.709  0.00  0.00    -0.266 N 
ATOM     10  N   UNL     1      33.842 -22.943 -18.166  0.00  0.00    -0.228 NA
ATOM     11  C   UNL     1      36.890 -23.534 -16.143  0.00  0.00    +0.252 C 
ATOM     12  C   UNL     1      35.122 -22.768 -17.793  0.00  0.00    +0.134 C 
ATOM     13  C   UNL     1      36.010 -21.895 -18.383  0.00  0.00    +0.035 C 
ATOM     14  C   UNL     1      35.543 -21.133 -19.449  0.00  0.00    +0.016 C 
ATOM     15  C   UNL     1      33.424 -22.187 -19.205  0.00  0.00    +0.112 C 
ATOM     16  C   UNL     1      34.227 -21.277 -19.874  0.00  0.00    +0.077 C 
ATOM     17  H   UNL     1      34.961 -24.159 -16.300  0.00  0.00    +0.157 HD
ENDBRANCH   2  11
BRANCH   1  19
ATOM     18  O   UNL     1      33.622 -24.661 -12.630  0.00  0.00    -0.270 OA
ATOM     19  N   UNL     1      34.708 -24.734 -14.709  0.00  0.00    -0.280 N 
ATOM     20  C   UNL     1      33.599 -24.563 -13.867  0.00  0.00    +0.249 C 
ATOM     21  H   UNL     1      34.534 -24.625 -15.672  0.00  0.00    +0.155 HD
BRANCH  20  22
ATOM     22  C   UNL     1      32.337 -24.277 -14.531  0.00  0.00    +0.054 C 
ATOM     23  C   UNL     1      29.945 -23.735 -15.785  0.00  0.00    +0.031 C 
ATOM     24  C   UNL     1      31.237 -25.109 -14.324  0.00  0.00    +0.005 C 
ATOM     25  C   UNL     1      32.226 -23.171 -15.373  0.00  0.00    +0.005 C 
ATOM     26  C   UNL     1      30.025 -24.834 -14.959  0.00  0.00    +0.003 C 
ATOM     27  C   UNL     1      31.015 -22.896 -16.008  0.00  0.00    +0.003 C 
BRANCH  23  30
ATOM     28  N   UNL     1      27.689 -22.652 -15.825  0.00  0.00    -0.290 N 
ATOM     29  N   UNL     1      28.525 -23.962 -17.649  0.00  0.00    -0.285 NA
ATOM     30  C   UNL     1      28.652 -23.441 -16.462  0.00  0.00    +0.123 C 
ATOM     31  C   UNL     1      26.381 -22.413 -16.429  0.00  0.00    +0.114 C 
ATOM     32  C   UNL     1      27.873 -22.076 -14.495  0.00  0.00    +0.114 C 
ATOM     33  H   UNL     1      27.700 -23.816 -18.165  0.00  0.00    +0.188 HD
ENDBRANCH  23  30
ENDBRANCH  20  22
ENDBRANCH   1  19
BRANCH   5  34
ATOM     34  O   UNL     1      39.918 -25.980 -13.268  0.00  0.00    -0.471 OA
ATOM     35  C   UNL     1      40.799 -26.405 -14.307  0.00  0.00    +0.252 C 
ENDBRANCH   5  34
TORSDOF 5
ENDMDL
MODEL 5
REMARK VINA RESULT:      -9.2      3.142      7.618
REMARK  Name = 10275777
REMARK  5 active torsions:
REMARK  status: ('A' for Active; 'I' for Inactive)
REMARK    1  A    between atoms: C_1  and  N_19
REMARK    2  A    between atoms: C_2  and  C_11
REMARK    3  A    between atoms: C_5  and  O_34
REMARK    4  A    between atoms: C_20  and  C_22
REMARK    5  A    between atoms: C_23  and  C_30
REMARK                            x       y       z     vdW  Elec       q    Type
REMARK                         _______ _______ _______ _____ _____    ______ ____
ROOT
ATOM      1  C   UNL     1      34.897 -24.080 -14.486  0.00  0.00    +0.055 C 
ATOM      2  C   UNL     1      35.788 -23.826 -15.516  0.00  0.00    +0.070 C 
ATOM      3  C   UNL     1      35.327 -24.579 -13.267  0.00  0.00    +0.018 C 
ATOM      4  C   UNL     1      37.146 -24.077 -15.322  0.00  0.00    +0.043 C 
ATOM      5  C   UNL     1      37.595 -24.580 -14.101  0.00  0.00    +0.139 C 
ATOM      6  C   UNL     1      36.686 -24.831 -13.074  0.00  0.00    +0.038 C 
ENDROOT
BRANCH   2  11
ATOM      7 CL   UNL     1      35.500 -19.497 -22.439  0.00  0.00    -0.081 Cl
ATOM      8  O   UNL     1      34.271 -23.677 -17.273  0.00  0.00    -0.270 OA
ATOM      9  N   UNL     1      36.209 -22.361 -17.396  0.00  0.00    -0.266 N 
ATOM     10  N   UNL     1      37.005 -20.807 -18.992  0.00  0.00    -0.228 NA
ATOM     11  C   UNL     1      35.353 -23.297 -16.802  0.00  0.00    +0.252 C 
ATOM     12  C   UNL     1      36.041 -21.666 -18.620  0.00  0.00    +0.134 C 
ATOM     13  C   UNL     1      34.891 -21.929 -19.331  0.00  0.00    +0.035 C 
ATOM     14  C   UNL     1      34.715 -21.252 -20.533  0.00  0.00    +0.016 C 
ATOM     15  C   UNL     1      36.800 -20.166 -20.165  0.00  0.00    +0.112 C 
ATOM     16  C   UNL     1      35.683 -20.352 -20.965  0.00  0.00    +0.077 C 
ATOM     17  H   UNL     1      37.036 -22.160 -16.899  0.00  0.00    +0.157 HD
ENDBRANCH   2  11
BRANCH   1  19
ATOM     18  O   UNL     1      32.534 -25.865 -14.019  0.00  0.00    -0.270 OA
ATOM     19  N   UNL     1      33.514 -23.832 -14.659  0.00  0.00    -0.280 N 
ATOM     20  C   UNL     1      32.436 -24.698 -14.428  0.00  0.00    +0.249 C 
ATOM     21  H   UNL     1      33.278 -22.933 -14.985  0.00  0.00    +0.155 HD
BRANCH  20  22
ATOM     22  C   UNL     1      31.117 -24.163 -14.726  0.00  0.00    +0.054 C 
ATOM     23  C   UNL     1      28.617 -23.151 -15.289  0.00  0.00    +0.031 C 
ATOM     24  C   UNL     1      30.085 -25.022 -15.103  0.00  0.00    +0.005 C 
ATOM     25  C   UNL     1      30.883 -22.791 -14.635  0.00  0.00    +0.005 C 
ATOM     26  C   UNL     1      28.819 -24.509 -15.387  0.00  0.00    +0.003 C 
ATOM     27  C   UNL     1      29.617 -22.278 -14.920  0.00  0.00    +0.003 C 
BRANCH  23  30
ATOM     28  N   UNL     1      26.878 -22.385 -16.919  0.00  0.00    -0.290 N 
ATOM     29  N   UNL     1      26.522 -22.372 -14.548  0.00  0.00    -0.285 NA
ATOM     30  C   UNL     1      27.266 -22.604 -15.592  0.00  0.00    +0.123 C 
ATOM     31  C   UNL     1      25.592 -21.774 -17.244  0.00  0.00    +0.114 C 
ATOM     32  C   UNL     1      27.738 -22.668 -18.065  0.00  0.00    +0.114 C 
ATOM     33  H   UNL     1      25.615 -22.009 -14.661  0.00  0.00    +0.188 HD
ENDBRANCH  23  30
ENDBRANCH  20  22
ENDBRANCH   1  19
BRANCH   5  34
ATOM     34  O   UNL     1      38.921 -24.825 -13.912  0.00  0.00    -0.471 OA
ATOM     35  C   UNL     1      39.562 -25.683 -14.854  0.00  0.00    +0.252 C 
ENDBRANCH   5  34
TORSDOF 5
ENDMDL
MODEL 6
REMARK VINA RESULT:      -8.8      2.796      7.810
REMARK  Name = 10275777
REMARK  5 active torsions:
REMARK  status: ('A' for Active; 'I' for Inactive)
REMARK    1  A    between atoms: C_1  and  N_19
REMARK    2  A    between atoms: C_2  and  C_11
REMARK    3  A    between atoms: C_5  and  O_34
REMARK    4  A    between atoms: C_20  and  C_22
REMARK    5  A    between atoms: C_23  and  C_30
REMARK                            x       y       z     vdW  Elec       q    Type
REMARK                         _______ _______ _______ _____ _____    ______ ____
ROOT
ATOM      1  C   UNL     1      35.661 -21.423 -19.345  0.00  0.00    +0.055 C 
ATOM      2  C   UNL     1      34.322 -21.350 -19.694  0.00  0.00    +0.070 C 
ATOM      3  C   UNL     1      36.649 -20.906 -20.168  0.00  0.00    +0.018 C 
ATOM      4  C   UNL     1      33.961 -20.746 -20.898  0.00  0.00    +0.043 C 
ATOM      5  C   UNL     1      34.944 -20.220 -21.737  0.00  0.00    +0.139 C 
ATOM      6  C   UNL     1      36.288 -20.301 -21.372  0.00  0.00    +0.038 C 
ENDROOT
BRANCH   2  11
ATOM      7 CL   UNL     1      30.463 -25.321 -13.685  0.00  0.00    -0.081 Cl
ATOM      8  O   UNL     1      32.086 -21.679 -19.142  0.00  0.00    -0.270 OA
ATOM      9  N   UNL     1      33.704 -22.625 -17.730  0.00  0.00    -0.266 N 
ATOM     10  N   UNL     1      33.564 -23.935 -15.766  0.00  0.00    -0.228 NA
ATOM     11  C   UNL     1      33.270 -21.885 -18.838  0.00  0.00    +0.252 C 
ATOM     12  C   UNL     1      32.921 -23.278 -16.747  0.00  0.00    +0.134 C 
ATOM     13  C   UNL     1      31.553 -23.188 -16.881  0.00  0.00    +0.035 C 
ATOM     14  C   UNL     1      30.774 -23.827 -15.921  0.00  0.00    +0.016 C 
ATOM     15  C   UNL     1      32.775 -24.544 -14.853  0.00  0.00    +0.112 C 
ATOM     16  C   UNL     1      31.390 -24.520 -14.885  0.00  0.00    +0.077 C 
ATOM     17  H   UNL     1      34.680 -22.701 -17.621  0.00  0.00    +0.157 HD
ENDBRANCH   2  11
BRANCH   1  19
ATOM     18  O   UNL     1      37.611 -20.509 -17.260  0.00  0.00    -0.270 OA
ATOM     19  N   UNL     1      36.051 -22.031 -18.128  0.00  0.00    -0.280 N 
ATOM     20  C   UNL     1      36.971 -21.568 -17.176  0.00  0.00    +0.249 C 
ATOM     21  H   UNL     1      35.620 -22.893 -17.922  0.00  0.00    +0.155 HD
BRANCH  20  22
ATOM     22  C   UNL     1      37.186 -22.435 -16.028  0.00  0.00    +0.054 C 
ATOM     23  C   UNL     1      37.591 -24.076 -13.852  0.00  0.00    +0.031 C 
ATOM     24  C   UNL     1      36.313 -22.382 -14.941  0.00  0.00    +0.005 C 
ATOM     25  C   UNL     1      38.264 -23.319 -16.013  0.00  0.00    +0.005 C 
ATOM     26  C   UNL     1      36.518 -23.214 -13.840  0.00  0.00    +0.003 C 
ATOM     27  C   UNL     1      38.469 -24.151 -14.911  0.00  0.00    +0.003 C 
BRANCH  23  30
ATOM     28  N   UNL     1      37.498 -26.325 -12.759  0.00  0.00    -0.290 N 
ATOM     29  N   UNL     1      38.303 -24.371 -11.628  0.00  0.00    -0.285 NA
ATOM     30  C   UNL     1      37.810 -24.964 -12.678  0.00  0.00    +0.123 C 
ATOM     31  C   UNL     1      37.625 -27.205 -11.600  0.00  0.00    +0.114 C 
ATOM     32  C   UNL     1      36.955 -26.956 -13.959  0.00  0.00    +0.114 C 
ATOM     33  H   UNL     1      38.478 -24.887 -10.808  0.00  0.00    +0.188 HD
ENDBRANCH  23  30
ENDBRANCH  20  22
ENDBRANCH   1  19
BRANCH   5  34
ATOM     34  O   UNL     1      34.592 -19.630 -22.911  0.00  0.00    -0.471 OA
ATOM     35  C   UNL     1      35.296 -18.444 -23.278  0.00  0.00    +0.252 C 
ENDBRANCH   5  34
TORSDOF 5
ENDMDL
MODEL 7
REMARK VINA RESULT:      -8.6      3.859      8.596
REMARK  Name = 10275777
REMARK  5 active torsions:
REMARK  status: ('A' for Active; 'I' for Inactive)
REMARK    1  A    between atoms: C_1  and  N_19
REMARK    2  A    between atoms: C_2  and  C_11
REMARK    3  A    between atoms: C_5  and  O_34
REMARK    4  A    between atoms: C_20  and  C_22
REMARK    5  A    between atoms: C_23  and  C_30
REMARK                            x       y       z     vdW  Elec       q    Type
REMARK                         _______ _______ _______ _____ _____    ______ ____
ROOT
ATOM      1  C   UNL     1      31.213 -24.044 -15.380  0.00  0.00    +0.055 C 
ATOM      2  C   UNL     1      30.722 -23.317 -16.452  0.00  0.00    +0.070 C 
ATOM      3  C   UNL     1      30.365 -24.596 -14.434  0.00  0.00    +0.018 C 
ATOM      4  C   UNL     1      29.345 -23.134 -16.581  0.00  0.00    +0.043 C 
ATOM      5  C   UNL     1      28.478 -23.683 -15.636  0.00  0.00    +0.139 C 
ATOM      6  C   UNL     1      28.987 -24.413 -14.563  0.00  0.00    +0.038 C 
ENDROOT
BRANCH   2  11
ATOM      7 CL   UNL     1      37.425 -20.964 -20.489  0.00  0.00    -0.081 Cl
ATOM      8  O   UNL     1      31.099 -22.115 -18.408  0.00  0.00    -0.270 OA
ATOM      9  N   UNL     1      32.974 -22.910 -17.243  0.00  0.00    -0.266 N 
ATOM     10  N   UNL     1      35.302 -22.735 -17.622  0.00  0.00    -0.228 NA
ATOM     11  C   UNL     1      31.601 -22.734 -17.458  0.00  0.00    +0.252 C 
ATOM     12  C   UNL     1      34.055 -22.441 -18.029  0.00  0.00    +0.134 C 
ATOM     13  C   UNL     1      33.736 -21.713 -19.154  0.00  0.00    +0.035 C 
ATOM     14  C   UNL     1      34.790 -21.247 -19.932  0.00  0.00    +0.016 C 
ATOM     15  C   UNL     1      36.301 -22.265 -18.402  0.00  0.00    +0.112 C 
ATOM     16  C   UNL     1      36.100 -21.524 -19.556  0.00  0.00    +0.077 C 
ATOM     17  H   UNL     1      33.219 -23.427 -16.441  0.00  0.00    +0.157 HD
ENDBRANCH   2  11
BRANCH   1  19
ATOM     18  O   UNL     1      32.984 -23.619 -12.999  0.00  0.00    -0.270 OA
ATOM     19  N   UNL     1      32.607 -24.243 -15.229  0.00  0.00    -0.280 N 
ATOM     20  C   UNL     1      33.401 -24.032 -14.093  0.00  0.00    +0.249 C 
ATOM     21  H   UNL     1      33.081 -24.573 -16.027  0.00  0.00    +0.155 HD
BRANCH  20  22
ATOM     22  C   UNL     1      34.821 -24.301 -14.252  0.00  0.00    +0.054 C 
ATOM     23  C   UNL     1      37.512 -24.811 -14.556  0.00  0.00    +0.031 C 
ATOM     24  C   UNL     1      35.244 -25.368 -15.045  0.00  0.00    +0.005 C 
ATOM     25  C   UNL     1      35.761 -23.493 -13.613  0.00  0.00    +0.005 C 
ATOM     26  C   UNL     1      36.606 -25.625 -15.199  0.00  0.00    +0.003 C 
ATOM     27  C   UNL     1      37.123 -23.750 -13.767  0.00  0.00    +0.003 C 
BRANCH  23  30
ATOM     28  N   UNL     1      39.621 -25.951 -13.838  0.00  0.00    -0.290 N 
ATOM     29  N   UNL     1      39.528 -24.474 -15.724  0.00  0.00    -0.285 NA
ATOM     30  C   UNL     1      38.965 -25.086 -14.720  0.00  0.00    +0.123 C 
ATOM     31  C   UNL     1      41.061 -26.177 -13.924  0.00  0.00    +0.114 C 
ATOM     32  C   UNL     1      38.952 -26.627 -12.730  0.00  0.00    +0.114 C 
ATOM     33  H   UNL     1      40.487 -24.602 -15.903  0.00  0.00    +0.188 HD
ENDBRANCH  23  30
ENDBRANCH  20  22
ENDBRANCH   1  19
BRANCH   5  34
ATOM     34  O   UNL     1      27.134 -23.505 -15.762  0.00  0.00    -0.471 OA
ATOM     35  C   UNL     1      26.697 -22.355 -16.484  0.00  0.00    +0.252 C 
ENDBRANCH   5  34
TORSDOF 5
ENDMDL
MODEL 8
REMARK VINA RESULT:      -8.6     11.539     15.960
REMARK  Name = 10275777
REMARK  5 active torsions:
REMARK  status: ('A' for Active; 'I' for Inactive)
REMARK    1  A    between atoms: C_1  and  N_19
REMARK    2  A    between atoms: C_2  and  C_11
REMARK    3  A    between atoms: C_5  and  O_34
REMARK    4  A    between atoms: C_20  and  C_22
REMARK    5  A    between atoms: C_23  and  C_30
REMARK                            x       y       z     vdW  Elec       q    Type
REMARK                         _______ _______ _______ _____ _____    ______ ____
ROOT
ATOM      1  C   UNL     1      33.026  -7.183 -22.226  0.00  0.00    +0.055 C 
ATOM      2  C   UNL     1      32.852  -8.556 -22.188  0.00  0.00    +0.070 C 
ATOM      3  C   UNL     1      32.758  -6.391 -21.121  0.00  0.00    +0.018 C 
ATOM      4  C   UNL     1      32.396  -9.155 -21.013  0.00  0.00    +0.043 C 
ATOM      5  C   UNL     1      32.122  -8.371 -19.892  0.00  0.00    +0.139 C 
ATOM      6  C   UNL     1      32.303  -6.989 -19.946  0.00  0.00    +0.038 C 
ENDROOT
BRANCH   2  11
ATOM      7 CL   UNL     1      33.852 -15.131 -26.934  0.00  0.00    -0.081 Cl
ATOM      8  O   UNL     1      33.524  -8.878 -24.392  0.00  0.00    -0.270 OA
ATOM      9  N   UNL     1      32.953 -10.779 -23.140  0.00  0.00    -0.266 N 
ATOM     10  N   UNL     1      32.927 -13.091 -23.641  0.00  0.00    -0.228 NA
ATOM     11  C   UNL     1      33.133  -9.404 -23.339  0.00  0.00    +0.252 C 
ATOM     12  C   UNL     1      33.168 -11.837 -24.059  0.00  0.00    +0.134 C 
ATOM     13  C   UNL     1      33.615 -11.488 -25.315  0.00  0.00    +0.035 C 
ATOM     14  C   UNL     1      33.830 -12.519 -26.224  0.00  0.00    +0.016 C 
ATOM     15  C   UNL     1      33.148 -14.066 -24.550  0.00  0.00    +0.112 C 
ATOM     16  C   UNL     1      33.595 -13.835 -25.842  0.00  0.00    +0.077 C 
ATOM     17  H   UNL     1      32.636 -11.046 -22.247  0.00  0.00    +0.157 HD
ENDBRANCH   2  11
BRANCH   1  19
ATOM     18  O   UNL     1      31.735  -5.087 -23.937  0.00  0.00    -0.270 OA
ATOM     19  N   UNL     1      33.489  -6.554 -23.407  0.00  0.00    -0.280 N 
ATOM     20  C   UNL     1      32.851  -5.573 -24.180  0.00  0.00    +0.249 C 
ATOM     21  H   UNL     1      34.374  -6.842 -23.728  0.00  0.00    +0.155 HD
BRANCH  20  22
ATOM     22  C   UNL     1      33.569  -5.134 -25.366  0.00  0.00    +0.054 C 
ATOM     23  C   UNL     1      34.929  -4.300 -27.613  0.00  0.00    +0.031 C 
ATOM     24  C   UNL     1      32.921  -4.357 -26.326  0.00  0.00    +0.005 C 
ATOM     25  C   UNL     1      34.906  -5.489 -25.544  0.00  0.00    +0.005 C 
ATOM     26  C   UNL     1      33.610  -3.935 -27.463  0.00  0.00    +0.003 C 
ATOM     27  C   UNL     1      35.595  -5.066 -26.681  0.00  0.00    +0.003 C 
BRANCH  23  30
ATOM     28  N   UNL     1      36.388  -2.652 -28.803  0.00  0.00    -0.290 N 
ATOM     29  N   UNL     1      35.573  -4.648 -29.850  0.00  0.00    -0.285 NA
ATOM     30  C   UNL     1      35.664  -3.849 -28.825  0.00  0.00    +0.123 C 
ATOM     31  C   UNL     1      37.052  -2.143 -30.000  0.00  0.00    +0.114 C 
ATOM     32  C   UNL     1      36.475  -1.787 -27.630  0.00  0.00    +0.114 C 
ATOM     33  H   UNL     1      36.030  -4.424 -30.692  0.00  0.00    +0.188 HD
ENDBRANCH  23  30
ENDBRANCH  20  22
ENDBRANCH   1  19
BRANCH   5  34
ATOM     34  O   UNL     1      31.677  -8.955 -18.746  0.00  0.00    -0.471 OA
ATOM     35  C   UNL     1      31.697 -10.381 -18.694  0.00  0.00    +0.252 C 
ENDBRANCH   5  34
TORSDOF 5
ENDMDL
MODEL 9
REMARK VINA RESULT:      -8.3      1.961      2.666
REMARK  Name = 10275777
REMARK  5 active torsions:
REMARK  status: ('A' for Active; 'I' for Inactive)
REMARK    1  A    between atoms: C_1  and  N_19
REMARK    2  A    between atoms: C_2  and  C_11
REMARK    3  A    between atoms: C_5  and  O_34
REMARK    4  A    between atoms: C_20  and  C_22
REMARK    5  A    between atoms: C_23  and  C_30
REMARK                            x       y       z     vdW  Elec       q    Type
REMARK                         _______ _______ _______ _____ _____    ______ ____
ROOT
ATOM      1  C   UNL     1      35.818 -23.648 -14.764  0.00  0.00    +0.055 C 
ATOM      2  C   UNL     1      34.659 -23.837 -14.031  0.00  0.00    +0.070 C 
ATOM      3  C   UNL     1      37.036 -24.148 -14.330  0.00  0.00    +0.018 C 
ATOM      4  C   UNL     1      34.717 -24.544 -12.830  0.00  0.00    +0.043 C 
ATOM      5  C   UNL     1      35.935 -25.054 -12.379  0.00  0.00    +0.139 C 
ATOM      6  C   UNL     1      37.094 -24.855 -13.129  0.00  0.00    +0.038 C 
ENDROOT
BRANCH   2  11
ATOM      7 CL   UNL     1      27.041 -23.442 -16.957  0.00  0.00    -0.081 Cl
ATOM      8  O   UNL     1      33.182 -22.096 -14.480  0.00  0.00    -0.270 OA
ATOM      9  N   UNL     1      32.441 -24.283 -14.891  0.00  0.00    -0.266 N 
ATOM     10  N   UNL     1      30.414 -25.168 -15.731  0.00  0.00    -0.228 NA
ATOM     11  C   UNL     1      33.370 -23.321 -14.475  0.00  0.00    +0.252 C 
ATOM     12  C   UNL     1      31.130 -24.083 -15.391  0.00  0.00    +0.134 C 
ATOM     13  C   UNL     1      30.695 -22.779 -15.491  0.00  0.00    +0.035 C 
ATOM     14  C   UNL     1      29.410 -22.571 -15.981  0.00  0.00    +0.016 C 
ATOM     15  C   UNL     1      29.171 -24.927 -16.204  0.00  0.00    +0.112 C 
ATOM     16  C   UNL     1      28.627 -23.660 -16.347  0.00  0.00    +0.077 C 
ATOM     17  H   UNL     1      32.736 -25.221 -14.828  0.00  0.00    +0.157 HD
ENDBRANCH   2  11
BRANCH   1  19
ATOM     18  O   UNL     1      34.306 -24.207 -17.292  0.00  0.00    -0.270 OA
ATOM     19  N   UNL     1      35.783 -22.934 -15.986  0.00  0.00    -0.280 N 
ATOM     20  C   UNL     1      35.059 -23.230 -17.150  0.00  0.00    +0.249 C 
ATOM     21  H   UNL     1      36.341 -22.123 -16.024  0.00  0.00    +0.155 HD
BRANCH  20  22
ATOM     22  C   UNL     1      35.249 -22.317 -18.265  0.00  0.00    +0.054 C 
ATOM     23  C   UNL     1      35.611 -20.588 -20.380  0.00  0.00    +0.031 C 
ATOM     24  C   UNL     1      36.518 -21.807 -18.541  0.00  0.00    +0.005 C 
ATOM     25  C   UNL     1      34.163 -21.951 -19.061  0.00  0.00    +0.005 C 
ATOM     26  C   UNL     1      36.701 -20.932 -19.612  0.00  0.00    +0.003 C 
ATOM     27  C   UNL     1      34.346 -21.076 -20.132  0.00  0.00    +0.003 C 
BRANCH  23  30
ATOM     28  N   UNL     1      34.733 -19.338 -22.362  0.00  0.00    -0.290 N 
ATOM     29  N   UNL     1      37.015 -19.185 -21.646  0.00  0.00    -0.285 NA
ATOM     30  C   UNL     1      35.806 -19.655 -21.523  0.00  0.00    +0.123 C 
ATOM     31  C   UNL     1      34.911 -18.490 -23.538  0.00  0.00    +0.114 C 
ATOM     32  C   UNL     1      33.387 -19.878 -22.185  0.00  0.00    +0.114 C 
ATOM     33  H   UNL     1      37.229 -18.561 -22.376  0.00  0.00    +0.188 HD
ENDBRANCH  23  30
ENDBRANCH  20  22
ENDBRANCH   1  19
BRANCH   5  34
ATOM     34  O   UNL     1      35.991 -25.744 -11.208  0.00  0.00    -0.471 OA
ATOM     35  C   UNL     1      35.656 -25.032 -10.018  0.00  0.00    +0.252 C 
ENDBRANCH   5  34
TORSDOF 5
ENDMDL
