MODEL 1
REMARK VINA RESULT:     -11.1      0.000      0.000
REMARK  Name = 5289411
REMARK  6 active torsions:
REMARK  status: ('A' for Active; 'I' for Inactive)
REMARK    1  A    between atoms: N_3  and  C_9
REMARK    2  A    between atoms: C_4  and  O_25
REMARK    3  A    between atoms: C_5  and  N_24
REMARK    4  A    between atoms: C_12  and  C_17
REMARK    5  A    between atoms: O_25  and  C_26
REMARK    6  A    between atoms: C_26  and  C_27
REMARK                            x       y       z     vdW  Elec       q    Type
REMARK                         _______ _______ _______ _____ _____    ______ ____
ROOT
ATOM      1  N   UNL     1      35.341 -23.868 -14.105  0.00  0.00    -0.293 NA
ATOM      2  N   UNL     1      37.678 -23.856 -13.518  0.00  0.00    -0.316 NA
ATOM      3  N   UNL     1      36.958 -23.085 -15.614  0.00  0.00    -0.238 N 
ATOM      4  C   UNL     1      35.078 -24.388 -12.889  0.00  0.00    +0.292 C 
ATOM      5  C   UNL     1      36.045 -24.668 -11.947  0.00  0.00    +0.261 C 
ATOM      6  C   UNL     1      37.342 -24.378 -12.319  0.00  0.00    +0.196 C 
ATOM      7  C   UNL     1      36.644 -23.630 -14.350  0.00  0.00    +0.207 C 
ATOM      8  H   UNL     1      37.922 -22.929 -15.749  0.00  0.00    +0.166 HD
ATOM      9  N   UNL     1      38.394 -24.636 -11.405  0.00  0.00    -0.334 N 
ATOM     10  H   UNL     1      39.325 -24.435 -11.655  0.00  0.00    +0.144 HD
ATOM     11  H   UNL     1      38.194 -25.016 -10.519  0.00  0.00    +0.144 HD
ENDROOT
BRANCH   3  12
ATOM     12  C   UNL     1      36.166 -22.722 -16.718  0.00  0.00    +0.058 C 
ATOM     13  C   UNL     1      36.722 -21.987 -17.768  0.00  0.00    +0.015 C 
ATOM     14  C   UNL     1      34.821 -23.092 -16.768  0.00  0.00    +0.015 C 
ATOM     15  C   UNL     1      34.592 -21.996 -18.908  0.00  0.00    +0.053 C 
ATOM     16  C   UNL     1      35.935 -21.625 -18.862  0.00  0.00    +0.006 C 
ATOM     17  C   UNL     1      34.034 -22.730 -17.861  0.00  0.00    +0.006 C 
BRANCH  15  20
ATOM     18  O   UNL     1      32.634 -22.091 -20.214  0.00  0.00    -0.270 OA
ATOM     19  N   UNL     1      34.296 -20.689 -20.943  0.00  0.00    -0.325 N 
ATOM     20  C   UNL     1      33.772 -21.617 -20.048  0.00  0.00    +0.243 C 
ATOM     21  H   UNL     1      33.769 -20.409 -21.726  0.00  0.00    +0.145 HD
ATOM     22  H   UNL     1      35.193 -20.313 -20.792  0.00  0.00    +0.145 HD
ENDBRANCH  15  20
ENDBRANCH   3  12
BRANCH   5  24
ATOM     23  O   UNL     1      36.042 -24.472  -9.767  0.00  0.00    -0.099 OA
ATOM     24  N   UNL     1      35.726 -25.199 -10.721  0.00  0.00    -0.030 NA
ENDBRANCH   5  24
BRANCH   4  25
ATOM     25  O   UNL     1      33.755 -24.638 -12.622  0.00  0.00    -0.453 OA
BRANCH  25  26
ATOM     26  C   UNL     1      32.818 -23.665 -13.043  0.00  0.00    +0.208 C 
BRANCH  26  27
ATOM     27  C   UNL     1      32.004 -24.243 -14.199  0.00  0.00    +0.044 C 
ATOM     28  C   UNL     1      30.864 -25.123 -13.671  0.00  0.00    +0.004 C 
ATOM     29  C   UNL     1      31.459 -23.122 -15.093  0.00  0.00    +0.004 C 
ATOM     30  C   UNL     1      30.002 -25.671 -14.807  0.00  0.00    +0.000 C 
ATOM     31  C   UNL     1      30.597 -23.672 -16.226  0.00  0.00    +0.000 C 
ATOM     32  C   UNL     1      29.470 -24.553 -15.698  0.00  0.00    +0.000 C 
ENDBRANCH  26  27
ENDBRANCH  25  26
ENDBRANCH   4  25
TORSDOF 6
ENDMDL
MODEL 2
REMARK VINA RESULT:     -11.0      3.070      6.981
REMARK  Name = 5289411
REMARK  6 active torsions:
REMARK  status: ('A' for Active; 'I' for Inactive)
REMARK    1  A    between atoms: N_3  and  C_9
REMARK    2  A    between atoms: C_4  and  O_25
REMARK    3  A    between atoms: C_5  and  N_24
REMARK    4  A    between atoms: C_12  and  C_17
REMARK    5  A    between atoms: O_25  and  C_26
REMARK    6  A    between atoms: C_26  and  C_27
REMARK                            x       y       z     vdW  Elec       q    Type
REMARK                         _______ _______ _______ _____ _____    ______ ____
ROOT
ATOM      1  N   UNL     1      34.023 -24.060 -15.918  0.00  0.00    -0.293 NA
ATOM      2  N   UNL     1      32.499 -24.154 -14.054  0.00  0.00    -0.316 NA
ATOM      3  N   UNL     1      34.710 -24.910 -13.843  0.00  0.00    -0.238 N 
ATOM      4  C   UNL     1      33.028 -23.524 -16.655  0.00  0.00    +0.292 C 
ATOM      5  C   UNL     1      31.761 -23.277 -16.171  0.00  0.00    +0.261 C 
ATOM      6  C   UNL     1      31.551 -23.615 -14.849  0.00  0.00    +0.196 C 
ATOM      7  C   UNL     1      33.694 -24.347 -14.644  0.00  0.00    +0.207 C 
ATOM      8  H   UNL     1      34.424 -25.104 -12.920  0.00  0.00    +0.166 HD
ATOM      9  N   UNL     1      30.273 -23.390 -14.277  0.00  0.00    -0.334 N 
ATOM     10  H   UNL     1      30.107 -23.626 -13.336  0.00  0.00    +0.144 HD
ATOM     11  H   UNL     1      29.553 -22.998 -14.821  0.00  0.00    +0.144 HD
ENDROOT
BRANCH   3  12
ATOM     12  C   UNL     1      36.050 -25.249 -14.102  0.00  0.00    +0.058 C 
ATOM     13  C   UNL     1      37.082 -24.421 -13.653  0.00  0.00    +0.015 C 
ATOM     14  C   UNL     1      36.354 -26.412 -14.812  0.00  0.00    +0.015 C 
ATOM     15  C   UNL     1      38.711 -25.919 -14.622  0.00  0.00    +0.053 C 
ATOM     16  C   UNL     1      38.411 -24.757 -13.913  0.00  0.00    +0.006 C 
ATOM     17  C   UNL     1      37.683 -26.748 -15.072  0.00  0.00    +0.006 C 
BRANCH  15  20
ATOM     18  O   UNL     1      40.618 -26.041 -16.000  0.00  0.00    -0.270 OA
ATOM     19  N   UNL     1      40.834 -26.847 -13.864  0.00  0.00    -0.325 N 
ATOM     20  C   UNL     1      40.097 -26.267 -14.893  0.00  0.00    +0.243 C 
ATOM     21  H   UNL     1      41.774 -27.095 -14.012  0.00  0.00    +0.145 HD
ATOM     22  H   UNL     1      40.413 -27.008 -12.989  0.00  0.00    +0.145 HD
ENDBRANCH  15  20
ENDBRANCH   3  12
BRANCH   5  24
ATOM     23  O   UNL     1      29.754 -23.420 -17.032  0.00  0.00    -0.099 OA
ATOM     24  N   UNL     1      30.781 -22.729 -16.962  0.00  0.00    -0.030 NA
ENDBRANCH   5  24
BRANCH   4  25
ATOM     25  O   UNL     1      33.345 -23.226 -17.957  0.00  0.00    -0.453 OA
BRANCH  25  26
ATOM     26  C   UNL     1      34.689 -22.875 -18.228  0.00  0.00    +0.208 C 
BRANCH  26  27
ATOM     27  C   UNL     1      34.735 -22.116 -19.553  0.00  0.00    +0.044 C 
ATOM     28  C   UNL     1      33.477 -21.254 -19.725  0.00  0.00    +0.004 C 
ATOM     29  C   UNL     1      36.002 -21.256 -19.642  0.00  0.00    +0.004 C 
ATOM     30  C   UNL     1      33.523 -20.443 -21.019  0.00  0.00    +0.000 C 
ATOM     31  C   UNL     1      36.044 -20.445 -20.935  0.00  0.00    +0.000 C 
ATOM     32  C   UNL     1      34.788 -19.597 -21.107  0.00  0.00    +0.000 C 
ENDBRANCH  26  27
ENDBRANCH  25  26
ENDBRANCH   4  25
TORSDOF 6
ENDMDL
MODEL 3
REMARK VINA RESULT:     -11.0      2.445      5.219
REMARK  Name = 5289411
REMARK  6 active torsions:
REMARK  status: ('A' for Active; 'I' for Inactive)
REMARK    1  A    between atoms: N_3  and  C_9
REMARK    2  A    between atoms: C_4  and  O_25
REMARK    3  A    between atoms: C_5  and  N_24
REMARK    4  A    between atoms: C_12  and  C_17
REMARK    5  A    between atoms: O_25  and  C_26
REMARK    6  A    between atoms: C_26  and  C_27
REMARK                            x       y       z     vdW  Elec       q    Type
REMARK                         _______ _______ _______ _____ _____    ______ ____
ROOT
ATOM      1  N   UNL     1      34.671 -24.088 -14.555  0.00  0.00    -0.293 NA
ATOM      2  N   UNL     1      34.939 -24.334 -12.172  0.00  0.00    -0.316 NA
ATOM      3  N   UNL     1      32.806 -24.313 -13.149  0.00  0.00    -0.238 N 
ATOM      4  C   UNL     1      36.014 -24.023 -14.660  0.00  0.00    +0.292 C 
ATOM      5  C   UNL     1      36.874 -24.104 -13.586  0.00  0.00    +0.261 C 
ATOM      6  C   UNL     1      36.275 -24.261 -12.352  0.00  0.00    +0.196 C 
ATOM      7  C   UNL     1      34.207 -24.241 -13.299  0.00  0.00    +0.207 C 
ATOM      8  H   UNL     1      32.513 -24.424 -12.215  0.00  0.00    +0.166 HD
ATOM      9  N   UNL     1      37.092 -24.352 -11.198  0.00  0.00    -0.334 N 
ATOM     10  H   UNL     1      36.680 -24.464 -10.310  0.00  0.00    +0.144 HD
ATOM     11  H   UNL     1      38.071 -24.305 -11.283  0.00  0.00    +0.144 HD
ENDROOT
BRANCH   3  12
ATOM     12  C   UNL     1      31.745 -24.257 -14.071  0.00  0.00    +0.058 C 
ATOM     13  C   UNL     1      31.633 -23.174 -14.946  0.00  0.00    +0.015 C 
ATOM     14  C   UNL     1      30.798 -25.282 -14.114  0.00  0.00    +0.015 C 
ATOM     15  C   UNL     1      29.636 -24.144 -15.899  0.00  0.00    +0.053 C 
ATOM     16  C   UNL     1      30.580 -23.118 -15.860  0.00  0.00    +0.006 C 
ATOM     17  C   UNL     1      29.745 -25.227 -15.027  0.00  0.00    +0.006 C 
BRANCH  15  20
ATOM     18  O   UNL     1      27.987 -25.117 -17.270  0.00  0.00    -0.270 OA
ATOM     19  N   UNL     1      28.107 -22.827 -17.266  0.00  0.00    -0.325 N 
ATOM     20  C   UNL     1      28.538 -24.084 -16.851  0.00  0.00    +0.243 C 
ATOM     21  H   UNL     1      27.366 -22.748 -17.908  0.00  0.00    +0.145 HD
ATOM     22  H   UNL     1      28.544 -22.018 -16.915  0.00  0.00    +0.145 HD
ENDBRANCH  15  20
ENDBRANCH   3  12
BRANCH   5  24
ATOM     23  O   UNL     1      38.836 -25.048 -13.363  0.00  0.00    -0.099 OA
ATOM     24  N   UNL     1      38.237 -24.032 -13.745  0.00  0.00    -0.030 NA
ENDBRANCH   5  24
BRANCH   4  25
ATOM     25  O   UNL     1      36.504 -23.867 -15.933  0.00  0.00    -0.453 OA
BRANCH  25  26
ATOM     26  C   UNL     1      36.517 -22.554 -16.461  0.00  0.00    +0.208 C 
BRANCH  26  27
ATOM     27  C   UNL     1      35.933 -22.592 -17.871  0.00  0.00    +0.044 C 
ATOM     28  C   UNL     1      34.402 -22.497 -17.825  0.00  0.00    +0.004 C 
ATOM     29  C   UNL     1      36.523 -21.470 -18.734  0.00  0.00    +0.004 C 
ATOM     30  C   UNL     1      33.795 -22.480 -19.227  0.00  0.00    +0.000 C 
ATOM     31  C   UNL     1      35.914 -21.454 -20.134  0.00  0.00    +0.000 C 
ATOM     32  C   UNL     1      34.392 -21.368 -20.083  0.00  0.00    +0.000 C 
ENDBRANCH  26  27
ENDBRANCH  25  26
ENDBRANCH   4  25
TORSDOF 6
ENDMDL
MODEL 4
REMARK VINA RESULT:     -10.4      2.512      5.191
REMARK  Name = 5289411
REMARK  6 active torsions:
REMARK  status: ('A' for Active; 'I' for Inactive)
REMARK    1  A    between atoms: N_3  and  C_9
REMARK    2  A    between atoms: C_4  and  O_25
REMARK    3  A    between atoms: C_5  and  N_24
REMARK    4  A    between atoms: C_12  and  C_17
REMARK    5  A    between atoms: O_25  and  C_26
REMARK    6  A    between atoms: C_26  and  C_27
REMARK                            x       y       z     vdW  Elec       q    Type
REMARK                         _______ _______ _______ _____ _____    ______ ____
ROOT
ATOM      1  N   UNL     1      34.291 -22.775 -16.667  0.00  0.00    -0.293 NA
ATOM      2  N   UNL     1      32.125 -23.819 -16.513  0.00  0.00    -0.316 NA
ATOM      3  N   UNL     1      32.730 -22.573 -18.407  0.00  0.00    -0.238 N 
ATOM      4  C   UNL     1      34.576 -23.276 -15.447  0.00  0.00    +0.292 C 
ATOM      5  C   UNL     1      33.702 -24.045 -14.709  0.00  0.00    +0.261 C 
ATOM      6  C   UNL     1      32.477 -24.288 -15.297  0.00  0.00    +0.196 C 
ATOM      7  C   UNL     1      33.065 -23.081 -17.133  0.00  0.00    +0.207 C 
ATOM      8  H   UNL     1      31.825 -22.821 -18.706  0.00  0.00    +0.166 HD
ATOM      9  N   UNL     1      31.523 -25.071 -14.600  0.00  0.00    -0.334 N 
ATOM     10  H   UNL     1      30.645 -25.253 -15.006  0.00  0.00    +0.144 HD
ATOM     11  H   UNL     1      31.739 -25.433 -13.711  0.00  0.00    +0.144 HD
ENDROOT
BRANCH   3  12
ATOM     12  C   UNL     1      33.436 -21.784 -19.332  0.00  0.00    +0.058 C 
ATOM     13  C   UNL     1      32.745 -20.926 -20.192  0.00  0.00    +0.015 C 
ATOM     14  C   UNL     1      34.829 -21.856 -19.398  0.00  0.00    +0.015 C 
ATOM     15  C   UNL     1      34.837 -20.219 -21.174  0.00  0.00    +0.053 C 
ATOM     16  C   UNL     1      33.446 -20.145 -21.112  0.00  0.00    +0.006 C 
ATOM     17  C   UNL     1      35.529 -21.075 -20.317  0.00  0.00    +0.006 C 
BRANCH  15  20
ATOM     18  O   UNL     1      35.229 -19.356 -23.330  0.00  0.00    -0.270 OA
ATOM     19  N   UNL     1      36.646 -18.663 -21.667  0.00  0.00    -0.325 N 
ATOM     20  C   UNL     1      35.566 -19.405 -22.134  0.00  0.00    +0.243 C 
ATOM     21  H   UNL     1      37.162 -18.101 -22.288  0.00  0.00    +0.145 HD
ATOM     22  H   UNL     1      36.894 -18.701 -20.715  0.00  0.00    +0.145 HD
ENDBRANCH  15  20
ENDBRANCH   3  12
BRANCH   5  24
ATOM     23  O   UNL     1      33.600 -23.852 -12.531  0.00  0.00    -0.099 OA
ATOM     24  N   UNL     1      34.040 -24.532 -13.469  0.00  0.00    -0.030 NA
ENDBRANCH   5  24
BRANCH   4  25
ATOM     25  O   UNL     1      35.822 -22.974 -14.956  0.00  0.00    -0.453 OA
BRANCH  25  26
ATOM     26  C   UNL     1      36.935 -23.503 -15.653  0.00  0.00    +0.208 C 
BRANCH  26  27
ATOM     27  C   UNL     1      37.616 -24.541 -14.763  0.00  0.00    +0.044 C 
ATOM     28  C   UNL     1      37.571 -24.106 -13.292  0.00  0.00    +0.004 C 
ATOM     29  C   UNL     1      36.968 -25.919 -14.945  0.00  0.00    +0.004 C 
ATOM     30  C   UNL     1      38.199 -25.154 -12.375  0.00  0.00    +0.000 C 
ATOM     31  C   UNL     1      37.597 -26.964 -14.026  0.00  0.00    +0.000 C 
ATOM     32  C   UNL     1      37.558 -26.524 -12.566  0.00  0.00    +0.000 C 
ENDBRANCH  26  27
ENDBRANCH  25  26
ENDBRANCH   4  25
TORSDOF 6
ENDMDL
MODEL 5
REMARK VINA RESULT:      -9.8      3.345      7.968
REMARK  Name = 5289411
REMARK  6 active torsions:
REMARK  status: ('A' for Active; 'I' for Inactive)
REMARK    1  A    between atoms: N_3  and  C_9
REMARK    2  A    between atoms: C_4  and  O_25
REMARK    3  A    between atoms: C_5  and  N_24
REMARK    4  A    between atoms: C_12  and  C_17
REMARK    5  A    between atoms: O_25  and  C_26
REMARK    6  A    between atoms: C_26  and  C_27
REMARK                            x       y       z     vdW  Elec       q    Type
REMARK                         _______ _______ _______ _____ _____    ______ ____
ROOT
ATOM      1  N   UNL     1      35.001 -23.401 -17.531  0.00  0.00    -0.293 NA
ATOM      2  N   UNL     1      32.908 -23.472 -16.338  0.00  0.00    -0.316 NA
ATOM      3  N   UNL     1      34.883 -24.272 -15.356  0.00  0.00    -0.238 N 
ATOM      4  C   UNL     1      34.345 -22.843 -18.569  0.00  0.00    +0.292 C 
ATOM      5  C   UNL     1      32.993 -22.574 -18.570  0.00  0.00    +0.261 C 
ATOM      6  C   UNL     1      32.317 -22.913 -17.415  0.00  0.00    +0.196 C 
ATOM      7  C   UNL     1      34.232 -23.686 -16.463  0.00  0.00    +0.207 C 
ATOM      8  H   UNL     1      34.282 -24.464 -14.599  0.00  0.00    +0.166 HD
ATOM      9  N   UNL     1      30.923 -22.666 -17.337  0.00  0.00    -0.334 N 
ATOM     10  H   UNL     1      30.426 -22.903 -16.521  0.00  0.00    +0.144 HD
ATOM     11  H   UNL     1      30.452 -22.259 -18.099  0.00  0.00    +0.144 HD
ENDROOT
BRANCH   3  12
ATOM     12  C   UNL     1      36.221 -24.634 -15.121  0.00  0.00    +0.058 C 
ATOM     13  C   UNL     1      36.577 -25.982 -15.031  0.00  0.00    +0.015 C 
ATOM     14  C   UNL     1      37.199 -23.648 -14.974  0.00  0.00    +0.015 C 
ATOM     15  C   UNL     1      38.879 -25.354 -14.650  0.00  0.00    +0.053 C 
ATOM     16  C   UNL     1      37.905 -26.341 -14.796  0.00  0.00    +0.006 C 
ATOM     17  C   UNL     1      38.527 -24.007 -14.739  0.00  0.00    +0.006 C 
BRANCH  15  20
ATOM     18  O   UNL     1      41.150 -24.871 -14.253  0.00  0.00    -0.270 OA
ATOM     19  N   UNL     1      40.562 -27.086 -14.323  0.00  0.00    -0.325 N 
ATOM     20  C   UNL     1      40.262 -25.729 -14.404  0.00  0.00    +0.243 C 
ATOM     21  H   UNL     1      41.487 -27.377 -14.157  0.00  0.00    +0.145 HD
ATOM     22  H   UNL     1      39.847 -27.754 -14.431  0.00  0.00    +0.145 HD
ENDBRANCH  15  20
ENDBRANCH   3  12
BRANCH   5  24
ATOM     23  O   UNL     1      32.107 -20.803 -19.502  0.00  0.00    -0.099 OA
ATOM     24  N   UNL     1      32.371 -22.004 -19.654  0.00  0.00    -0.030 NA
ENDBRANCH   5  24
BRANCH   4  25
ATOM     25  O   UNL     1      35.113 -22.546 -19.668  0.00  0.00    -0.453 OA
BRANCH  25  26
ATOM     26  C   UNL     1      36.135 -21.581 -19.497  0.00  0.00    +0.208 C 
BRANCH  26  27
ATOM     27  C   UNL     1      35.775 -20.343 -20.317  0.00  0.00    +0.044 C 
ATOM     28  C   UNL     1      37.044 -19.619 -20.787  0.00  0.00    +0.004 C 
ATOM     29  C   UNL     1      34.888 -20.721 -21.509  0.00  0.00    +0.004 C 
ATOM     30  C   UNL     1      36.711 -18.406 -21.655  0.00  0.00    +0.000 C 
ATOM     31  C   UNL     1      34.558 -19.508 -22.375  0.00  0.00    +0.000 C 
ATOM     32  C   UNL     1      35.821 -18.786 -22.834  0.00  0.00    +0.000 C 
ENDBRANCH  26  27
ENDBRANCH  25  26
ENDBRANCH   4  25
TORSDOF 6
ENDMDL
MODEL 6
REMARK VINA RESULT:      -9.7      3.233      7.440
REMARK  Name = 5289411
REMARK  6 active torsions:
REMARK  status: ('A' for Active; 'I' for Inactive)
REMARK    1  A    between atoms: N_3  and  C_9
REMARK    2  A    between atoms: C_4  and  O_25
REMARK    3  A    between atoms: C_5  and  N_24
REMARK    4  A    between atoms: C_12  and  C_17
REMARK    5  A    between atoms: O_25  and  C_26
REMARK    6  A    between atoms: C_26  and  C_27
REMARK                            x       y       z     vdW  Elec       q    Type
REMARK                         _______ _______ _______ _____ _____    ______ ____
ROOT
ATOM      1  N   UNL     1      34.586 -22.213 -18.332  0.00  0.00    -0.293 NA
ATOM      2  N   UNL     1      33.502 -21.050 -20.143  0.00  0.00    -0.316 NA
ATOM      3  N   UNL     1      32.247 -22.150 -18.494  0.00  0.00    -0.238 N 
ATOM      4  C   UNL     1      35.772 -21.847 -18.859  0.00  0.00    +0.292 C 
ATOM      5  C   UNL     1      35.905 -21.096 -20.007  0.00  0.00    +0.261 C 
ATOM      6  C   UNL     1      34.723 -20.721 -20.614  0.00  0.00    +0.196 C 
ATOM      7  C   UNL     1      33.507 -21.786 -19.015  0.00  0.00    +0.207 C 
ATOM      8  H   UNL     1      31.487 -21.817 -19.026  0.00  0.00    +0.166 HD
ATOM      9  N   UNL     1      34.775 -19.946 -21.800  0.00  0.00    -0.334 N 
ATOM     10  H   UNL     1      33.941 -19.670 -22.245  0.00  0.00    +0.144 HD
ATOM     11  H   UNL     1      35.645 -19.683 -22.178  0.00  0.00    +0.144 HD
ENDROOT
BRANCH   3  12
ATOM     12  C   UNL     1      31.862 -22.893 -17.363  0.00  0.00    +0.058 C 
ATOM     13  C   UNL     1      30.513 -22.995 -17.016  0.00  0.00    +0.015 C 
ATOM     14  C   UNL     1      32.828 -23.531 -16.582  0.00  0.00    +0.015 C 
ATOM     15  C   UNL     1      31.100 -24.367 -15.116  0.00  0.00    +0.053 C 
ATOM     16  C   UNL     1      30.133 -23.731 -15.894  0.00  0.00    +0.006 C 
ATOM     17  C   UNL     1      32.448 -24.267 -15.459  0.00  0.00    +0.006 C 
BRANCH  15  20
ATOM     18  O   UNL     1      31.407 -25.163 -12.921  0.00  0.00    -0.270 OA
ATOM     19  N   UNL     1      29.494 -25.820 -14.000  0.00  0.00    -0.325 N 
ATOM     20  C   UNL     1      30.703 -25.133 -13.945  0.00  0.00    +0.243 C 
ATOM     21  H   UNL     1      29.193 -26.348 -13.226  0.00  0.00    +0.145 HD
ATOM     22  H   UNL     1      28.940 -25.776 -14.812  0.00  0.00    +0.145 HD
ENDBRANCH  15  20
ENDBRANCH   3  12
BRANCH   5  24
ATOM     23  O   UNL     1      37.369 -19.533 -20.457  0.00  0.00    -0.099 OA
ATOM     24  N   UNL     1      37.137 -20.750 -20.505  0.00  0.00    -0.030 NA
ENDBRANCH   5  24
BRANCH   4  25
ATOM     25  O   UNL     1      36.884 -22.274 -18.176  0.00  0.00    -0.453 OA
BRANCH  25  26
ATOM     26  C   UNL     1      36.970 -21.930 -16.806  0.00  0.00    +0.208 C 
BRANCH  26  27
ATOM     27  C   UNL     1      36.846 -23.207 -15.977  0.00  0.00    +0.044 C 
ATOM     28  C   UNL     1      38.231 -23.705 -15.542  0.00  0.00    +0.004 C 
ATOM     29  C   UNL     1      35.941 -22.977 -14.759  0.00  0.00    +0.004 C 
ATOM     30  C   UNL     1      38.131 -24.953 -14.665  0.00  0.00    +0.000 C 
ATOM     31  C   UNL     1      35.845 -24.225 -13.884  0.00  0.00    +0.000 C 
ATOM     32  C   UNL     1      37.223 -24.722 -13.462  0.00  0.00    +0.000 C 
ENDBRANCH  26  27
ENDBRANCH  25  26
ENDBRANCH   4  25
TORSDOF 6
ENDMDL
MODEL 7
REMARK VINA RESULT:      -9.3      8.198     12.456
REMARK  Name = 5289411
REMARK  6 active torsions:
REMARK  status: ('A' for Active; 'I' for Inactive)
REMARK    1  A    between atoms: N_3  and  C_9
REMARK    2  A    between atoms: C_4  and  O_25
REMARK    3  A    between atoms: C_5  and  N_24
REMARK    4  A    between atoms: C_12  and  C_17
REMARK    5  A    between atoms: O_25  and  C_26
REMARK    6  A    between atoms: C_26  and  C_27
REMARK                            x       y       z     vdW  Elec       q    Type
REMARK                         _______ _______ _______ _____ _____    ______ ____
ROOT
ATOM      1  N   UNL     1      34.311 -16.545 -24.447  0.00  0.00    -0.293 NA
ATOM      2  N   UNL     1      32.647 -17.531 -25.886  0.00  0.00    -0.316 NA
ATOM      3  N   UNL     1      32.768 -15.205 -25.599  0.00  0.00    -0.238 N 
ATOM      4  C   UNL     1      34.760 -17.789 -24.180  0.00  0.00    +0.292 C 
ATOM      5  C   UNL     1      34.215 -18.935 -24.717  0.00  0.00    +0.261 C 
ATOM      6  C   UNL     1      33.149 -18.744 -25.573  0.00  0.00    +0.196 C 
ATOM      7  C   UNL     1      33.266 -16.490 -25.296  0.00  0.00    +0.207 C 
ATOM      8  H   UNL     1      32.005 -15.213 -26.222  0.00  0.00    +0.166 HD
ATOM      9  N   UNL     1      32.533 -19.875 -26.167  0.00  0.00    -0.334 N 
ATOM     10  H   UNL     1      31.771 -19.755 -26.780  0.00  0.00    +0.144 HD
ATOM     11  H   UNL     1      32.867 -20.778 -25.968  0.00  0.00    +0.144 HD
ENDROOT
BRANCH   3  12
ATOM     12  C   UNL     1      33.147 -13.915 -25.186  0.00  0.00    +0.058 C 
ATOM     13  C   UNL     1      33.158 -13.588 -23.828  0.00  0.00    +0.015 C 
ATOM     14  C   UNL     1      33.512 -12.955 -26.133  0.00  0.00    +0.015 C 
ATOM     15  C   UNL     1      33.896 -11.351 -24.368  0.00  0.00    +0.053 C 
ATOM     16  C   UNL     1      33.532 -12.307 -23.420  0.00  0.00    +0.006 C 
ATOM     17  C   UNL     1      33.886 -11.675 -25.725  0.00  0.00    +0.006 C 
BRANCH  15  20
ATOM     18  O   UNL     1      35.470  -9.642 -23.986  0.00  0.00    -0.270 OA
ATOM     19  N   UNL     1      33.282  -9.160 -23.497  0.00  0.00    -0.325 N 
ATOM     20  C   UNL     1      34.285 -10.016 -23.942  0.00  0.00    +0.243 C 
ATOM     21  H   UNL     1      33.508  -8.249 -23.201  0.00  0.00    +0.145 HD
ATOM     22  H   UNL     1      32.347  -9.465 -23.480  0.00  0.00    +0.145 HD
ENDBRANCH  15  20
ENDBRANCH   3  12
BRANCH   5  24
ATOM     23  O   UNL     1      35.014 -20.851 -25.411  0.00  0.00    -0.099 OA
ATOM     24  N   UNL     1      34.709 -20.180 -24.414  0.00  0.00    -0.030 NA
ENDBRANCH   5  24
BRANCH   4  25
ATOM     25  O   UNL     1      35.825 -17.864 -23.316  0.00  0.00    -0.453 OA
BRANCH  25  26
ATOM     26  C   UNL     1      35.529 -17.939 -21.934  0.00  0.00    +0.208 C 
BRANCH  26  27
ATOM     27  C   UNL     1      35.553 -19.407 -21.512  0.00  0.00    +0.044 C 
ATOM     28  C   UNL     1      36.719 -19.674 -20.551  0.00  0.00    +0.004 C 
ATOM     29  C   UNL     1      34.217 -19.809 -20.875  0.00  0.00    +0.004 C 
ATOM     30  C   UNL     1      36.733 -21.125 -20.072  0.00  0.00    +0.000 C 
ATOM     31  C   UNL     1      34.234 -21.259 -20.395  0.00  0.00    +0.000 C 
ATOM     32  C   UNL     1      35.400 -21.523 -19.447  0.00  0.00    +0.000 C 
ENDBRANCH  26  27
ENDBRANCH  25  26
ENDBRANCH   4  25
TORSDOF 6
ENDMDL
MODEL 8
REMARK VINA RESULT:      -9.2      2.962      5.421
REMARK  Name = 5289411
REMARK  6 active torsions:
REMARK  status: ('A' for Active; 'I' for Inactive)
REMARK    1  A    between atoms: N_3  and  C_9
REMARK    2  A    between atoms: C_4  and  O_25
REMARK    3  A    between atoms: C_5  and  N_24
REMARK    4  A    between atoms: C_12  and  C_17
REMARK    5  A    between atoms: O_25  and  C_26
REMARK    6  A    between atoms: C_26  and  C_27
REMARK                            x       y       z     vdW  Elec       q    Type
REMARK                         _______ _______ _______ _____ _____    ______ ____
ROOT
ATOM      1  N   UNL     1      33.333 -22.880 -16.633  0.00  0.00    -0.293 NA
ATOM      2  N   UNL     1      31.043 -23.550 -16.972  0.00  0.00    -0.316 NA
ATOM      3  N   UNL     1      32.214 -22.375 -18.632  0.00  0.00    -0.238 N 
ATOM      4  C   UNL     1      33.279 -23.452 -15.413  0.00  0.00    +0.292 C 
ATOM      5  C   UNL     1      32.161 -24.083 -14.908  0.00  0.00    +0.261 C 
ATOM      6  C   UNL     1      31.061 -24.102 -15.741  0.00  0.00    +0.196 C 
ATOM      7  C   UNL     1      32.196 -22.964 -17.349  0.00  0.00    +0.207 C 
ATOM      8  H   UNL     1      31.362 -22.460 -19.119  0.00  0.00    +0.166 HD
ATOM      9  N   UNL     1      29.872 -24.733 -15.294  0.00  0.00    -0.334 N 
ATOM     10  H   UNL     1      29.078 -24.755 -15.876  0.00  0.00    +0.144 HD
ATOM     11  H   UNL     1      29.841 -25.149 -14.403  0.00  0.00    +0.144 HD
ENDROOT
BRANCH   3  12
ATOM     12  C   UNL     1      33.210 -21.691 -19.351  0.00  0.00    +0.058 C 
ATOM     13  C   UNL     1      34.557 -22.006 -19.157  0.00  0.00    +0.015 C 
ATOM     14  C   UNL     1      32.857 -20.692 -20.261  0.00  0.00    +0.015 C 
ATOM     15  C   UNL     1      35.188 -20.329 -20.778  0.00  0.00    +0.053 C 
ATOM     16  C   UNL     1      35.545 -21.326 -19.870  0.00  0.00    +0.006 C 
ATOM     17  C   UNL     1      33.844 -20.012 -20.974  0.00  0.00    +0.006 C 
BRANCH  15  20
ATOM     18  O   UNL     1      35.994 -19.142 -22.646  0.00  0.00    -0.270 OA
ATOM     19  N   UNL     1      37.466 -19.475 -20.920  0.00  0.00    -0.325 N 
ATOM     20  C   UNL     1      36.219 -19.620 -21.520  0.00  0.00    +0.243 C 
ATOM     21  H   UNL     1      38.188 -19.001 -21.392  0.00  0.00    +0.145 HD
ATOM     22  H   UNL     1      37.626 -19.847 -20.022  0.00  0.00    +0.145 HD
ENDBRANCH  15  20
ENDBRANCH   3  12
BRANCH   5  24
ATOM     23  O   UNL     1      31.903 -25.865 -13.664  0.00  0.00    -0.099 OA
ATOM     24  N   UNL     1      32.156 -24.651 -13.658  0.00  0.00    -0.030 NA
ENDBRANCH   5  24
BRANCH   4  25
ATOM     25  O   UNL     1      34.429 -23.376 -14.667  0.00  0.00    -0.453 OA
BRANCH  25  26
ATOM     26  C   UNL     1      35.308 -24.484 -14.722  0.00  0.00    +0.208 C 
BRANCH  26  27
ATOM     27  C   UNL     1      36.140 -24.508 -13.442  0.00  0.00    +0.044 C 
ATOM     28  C   UNL     1      37.065 -23.285 -13.376  0.00  0.00    +0.004 C 
ATOM     29  C   UNL     1      35.233 -24.573 -12.207  0.00  0.00    +0.004 C 
ATOM     30  C   UNL     1      37.871 -23.258 -12.079  0.00  0.00    +0.000 C 
ATOM     31  C   UNL     1      36.041 -24.544 -10.911  0.00  0.00    +0.000 C 
ATOM     32  C   UNL     1      36.966 -23.332 -10.854  0.00  0.00    +0.000 C 
ENDBRANCH  26  27
ENDBRANCH  25  26
ENDBRANCH   4  25
TORSDOF 6
ENDMDL
MODEL 9
REMARK VINA RESULT:      -9.1     14.329     18.132
REMARK  Name = 5289411
REMARK  6 active torsions:
REMARK  status: ('A' for Active; 'I' for Inactive)
REMARK    1  A    between atoms: N_3  and  C_9
REMARK    2  A    between atoms: C_4  and  O_25
REMARK    3  A    between atoms: C_5  and  N_24
REMARK    4  A    between atoms: C_12  and  C_17
REMARK    5  A    between atoms: O_25  and  C_26
REMARK    6  A    between atoms: C_26  and  C_27
REMARK                            x       y       z     vdW  Elec       q    Type
REMARK                         _______ _______ _______ _____ _____    ______ ____
ROOT
ATOM      1  N   UNL     1      32.840  -8.125 -23.419  0.00  0.00    -0.293 NA
ATOM      2  N   UNL     1      32.359  -7.132 -21.277  0.00  0.00    -0.316 NA
ATOM      3  N   UNL     1      32.957  -5.802 -23.115  0.00  0.00    -0.238 N 
ATOM      4  C   UNL     1      32.593  -9.333 -22.872  0.00  0.00    +0.292 C 
ATOM      5  C   UNL     1      32.230  -9.520 -21.555  0.00  0.00    +0.261 C 
ATOM      6  C   UNL     1      32.127  -8.372 -20.796  0.00  0.00    +0.196 C 
ATOM      7  C   UNL     1      32.707  -7.083 -22.577  0.00  0.00    +0.207 C 
ATOM      8  H   UNL     1      32.848  -5.071 -22.463  0.00  0.00    +0.166 HD
ATOM      9  N   UNL     1      31.757  -8.481 -19.431  0.00  0.00    -0.334 N 
ATOM     10  H   UNL     1      31.679  -7.671 -18.876  0.00  0.00    +0.144 HD
ATOM     11  H   UNL     1      31.579  -9.366 -19.040  0.00  0.00    +0.144 HD
ENDROOT
BRANCH   3  12
ATOM     12  C   UNL     1      33.332  -5.364 -24.398  0.00  0.00    +0.058 C 
ATOM     13  C   UNL     1      32.465  -4.567 -25.148  0.00  0.00    +0.015 C 
ATOM     14  C   UNL     1      34.572  -5.728 -24.928  0.00  0.00    +0.015 C 
ATOM     15  C   UNL     1      34.075  -4.499 -26.948  0.00  0.00    +0.053 C 
ATOM     16  C   UNL     1      32.837  -4.135 -26.421  0.00  0.00    +0.006 C 
ATOM     17  C   UNL     1      34.944  -5.296 -26.201  0.00  0.00    +0.006 C 
BRANCH  15  20
ATOM     18  O   UNL     1      35.561  -4.356 -28.770  0.00  0.00    -0.270 OA
ATOM     19  N   UNL     1      33.550  -3.276 -28.989  0.00  0.00    -0.325 N 
ATOM     20  C   UNL     1      34.461  -4.049 -28.276  0.00  0.00    +0.243 C 
ATOM     21  H   UNL     1      33.777  -2.954 -29.890  0.00  0.00    +0.145 HD
ATOM     22  H   UNL     1      32.678  -3.051 -28.590  0.00  0.00    +0.145 HD
ENDBRANCH  15  20
ENDBRANCH   3  12
BRANCH   5  24
ATOM     23  O   UNL     1      30.785 -11.055 -20.967  0.00  0.00    -0.099 OA
ATOM     24  N   UNL     1      31.990 -10.772 -21.044  0.00  0.00    -0.030 NA
ENDBRANCH   5  24
BRANCH   4  25
ATOM     25  O   UNL     1      32.725 -10.407 -23.716  0.00  0.00    -0.453 OA
BRANCH  25  26
ATOM     26  C   UNL     1      33.984 -10.587 -24.338  0.00  0.00    +0.208 C 
BRANCH  26  27
ATOM     27  C   UNL     1      34.136 -12.060 -24.709  0.00  0.00    +0.044 C 
ATOM     28  C   UNL     1      33.650 -12.959 -23.564  0.00  0.00    +0.004 C 
ATOM     29  C   UNL     1      33.381 -12.374 -26.007  0.00  0.00    +0.004 C 
ATOM     30  C   UNL     1      33.743 -14.439 -23.931  0.00  0.00    +0.000 C 
ATOM     31  C   UNL     1      33.473 -13.854 -26.371  0.00  0.00    +0.000 C 
ATOM     32  C   UNL     1      32.998 -14.744 -25.227  0.00  0.00    +0.000 C 
ENDBRANCH  26  27
ENDBRANCH  25  26
ENDBRANCH   4  25
TORSDOF 6
ENDMDL
