MODEL 1
REMARK VINA RESULT:     -11.5      0.000      0.000
REMARK  Name = 11224409
REMARK  8 active torsions:
REMARK  status: ('A' for Active; 'I' for Inactive)
REMARK    1  A    between atoms: C_2  and  N_10
REMARK    2  A    between atoms: C_5  and  C_20
REMARK    3  A    between atoms: C_11  and  C_14
REMARK    4  A    between atoms: C_14  and  N_16
REMARK    5  A    between atoms: C_21  and  C_26
REMARK    6  A    between atoms: C_26  and  N_27
REMARK    7  A    between atoms: N_27  and  C_30
REMARK    8  A    between atoms: C_30  and  C_34
REMARK                            x       y       z     vdW  Elec       q    Type
REMARK                         _______ _______ _______ _____ _____    ______ ____
ROOT
ATOM      1  F   UNL     1      31.645 -13.040 -21.507  0.00  0.00    -0.204 F 
ATOM      2  C   UNL     1      32.323  -9.589 -22.426  0.00  0.00    +0.059 C 
ATOM      3  C   UNL     1      31.784 -10.698 -21.772  0.00  0.00    +0.045 C 
ATOM      4  C   UNL     1      33.251  -9.769 -23.453  0.00  0.00    +0.015 C 
ATOM      5  C   UNL     1      33.099 -12.163 -23.171  0.00  0.00    +0.028 C 
ATOM      6  C   UNL     1      32.172 -11.984 -22.145  0.00  0.00    +0.141 C 
ATOM      7  C   UNL     1      33.639 -11.056 -23.825  0.00  0.00    +0.004 C 
ENDROOT
BRANCH   2  10
ATOM      8  O   UNL     1      31.527  -6.410 -20.839  0.00  0.00    -0.434 OA
ATOM      9  O   UNL     1      32.449  -8.167 -19.740  0.00  0.00    -0.226 OA
ATOM     10  N   UNL     1      31.927  -8.276 -22.045  0.00  0.00    -0.221 N 
ATOM     11  C   UNL     1      31.301  -6.053 -22.209  0.00  0.00    +0.210 C 
ATOM     12  C   UNL     1      31.241  -7.380 -22.937  0.00  0.00    +0.147 C 
ATOM     13  C   UNL     1      32.028  -7.692 -20.785  0.00  0.00    +0.409 C 
BRANCH  11  14
ATOM     14  C   UNL     1      32.442  -5.162 -22.680  0.00  0.00    +0.135 C 
BRANCH  14  16
ATOM     15  O   UNL     1      34.564  -5.786 -24.562  0.00  0.00    -0.275 OA
ATOM     16  N   UNL     1      32.419  -4.999 -24.104  0.00  0.00    -0.301 N 
ATOM     17  C   UNL     1      33.487  -5.326 -24.933  0.00  0.00    +0.223 C 
ATOM     18  C   UNL     1      33.188  -5.079 -26.387  0.00  0.00    +0.095 C 
ATOM     19  H   UNL     1      31.603  -4.635 -24.517  0.00  0.00    +0.150 HD
ENDBRANCH  14  16
ENDBRANCH  11  14
ENDBRANCH   2  10
BRANCH   5  20
ATOM     20  C   UNL     1      33.505 -13.496 -23.562  0.00  0.00    +0.002 C 
ATOM     21  C   UNL     1      34.288 -16.065 -24.316  0.00  0.00    -0.044 C 
ATOM     22  C   UNL     1      33.055 -14.037 -24.766  0.00  0.00    -0.000 C 
ATOM     23  C   UNL     1      34.347 -14.240 -22.735  0.00  0.00    -0.000 C 
ATOM     24  C   UNL     1      33.447 -15.322 -25.144  0.00  0.00    -0.006 C 
ATOM     25  C   UNL     1      34.738 -15.525 -23.111  0.00  0.00    -0.006 C 
BRANCH  21  26
ATOM     26  C   UNL     1      34.707 -17.438 -24.720  0.00  0.00    -0.054 C 
BRANCH  26  27
ATOM     27  N   UNL     1      35.566 -18.077 -23.721  0.00  0.00    +0.390 N 
ATOM     28  H   UNL     1      35.925 -17.365 -23.084  0.00  0.00    -0.083 HD
ATOM     29  H   UNL     1      36.336 -18.543 -24.200  0.00  0.00    -0.083 HD
BRANCH  27  30
ATOM     30  C   UNL     1      34.821 -19.066 -22.960  0.00  0.00    -0.031 C 
BRANCH  30  34
ATOM     31  N   UNL     1      35.126 -20.518 -20.979  0.00  0.00    -0.170 NA
ATOM     32  N   UNL     1      36.058 -20.547 -20.014  0.00  0.00    -0.157 N 
ATOM     33  N   UNL     1      37.054 -19.646 -20.057  0.00  0.00    -0.162 NA
ATOM     34  C   UNL     1      35.562 -19.497 -21.722  0.00  0.00    +0.077 C 
ATOM     35  C   UNL     1      36.733 -18.967 -21.161  0.00  0.00    +0.133 C 
ATOM     36  H   UNL     1      36.014 -21.213 -19.290  0.00  0.00    +0.197 HD
ENDBRANCH  30  34
ENDBRANCH  27  30
ENDBRANCH  26  27
ENDBRANCH  21  26
ENDBRANCH   5  20
TORSDOF 8
ENDMDL
MODEL 2
REMARK VINA RESULT:     -11.2      6.820     12.980
REMARK  Name = 11224409
REMARK  8 active torsions:
REMARK  status: ('A' for Active; 'I' for Inactive)
REMARK    1  A    between atoms: C_2  and  N_10
REMARK    2  A    between atoms: C_5  and  C_20
REMARK    3  A    between atoms: C_11  and  C_14
REMARK    4  A    between atoms: C_14  and  N_16
REMARK    5  A    between atoms: C_21  and  C_26
REMARK    6  A    between atoms: C_26  and  N_27
REMARK    7  A    between atoms: N_27  and  C_30
REMARK    8  A    between atoms: C_30  and  C_34
REMARK                            x       y       z     vdW  Elec       q    Type
REMARK                         _______ _______ _______ _____ _____    ______ ____
ROOT
ATOM      1  F   UNL     1      32.369 -20.258 -21.115  0.00  0.00    -0.204 F 
ATOM      2  C   UNL     1      34.858 -21.839 -18.991  0.00  0.00    +0.059 C 
ATOM      3  C   UNL     1      33.622 -21.469 -19.523  0.00  0.00    +0.045 C 
ATOM      4  C   UNL     1      36.035 -21.343 -19.553  0.00  0.00    +0.015 C 
ATOM      5  C   UNL     1      34.741 -20.109 -21.177  0.00  0.00    +0.028 C 
ATOM      6  C   UNL     1      33.564 -20.604 -20.615  0.00  0.00    +0.141 C 
ATOM      7  C   UNL     1      35.977 -20.479 -20.646  0.00  0.00    +0.004 C 
ENDROOT
BRANCH   2  10
ATOM      8  O   UNL     1      35.614 -23.814 -16.027  0.00  0.00    -0.434 OA
ATOM      9  O   UNL     1      37.016 -22.252 -16.887  0.00  0.00    -0.226 OA
ATOM     10  N   UNL     1      34.918 -22.721 -17.875  0.00  0.00    -0.221 N 
ATOM     11  C   UNL     1      34.242 -24.185 -16.214  0.00  0.00    +0.210 C 
ATOM     12  C   UNL     1      33.916 -23.721 -17.618  0.00  0.00    +0.147 C 
ATOM     13  C   UNL     1      35.947 -22.843 -16.944  0.00  0.00    +0.409 C 
BRANCH  11  14
ATOM     14  C   UNL     1      33.399 -23.502 -15.146  0.00  0.00    +0.135 C 
BRANCH  14  16
ATOM     15  O   UNL     1      32.127 -25.171 -13.139  0.00  0.00    -0.275 OA
ATOM     16  N   UNL     1      32.054 -23.998 -15.151  0.00  0.00    -0.301 N 
ATOM     17  C   UNL     1      31.525 -24.797 -14.143  0.00  0.00    +0.223 C 
ATOM     18  C   UNL     1      30.083 -25.157 -14.385  0.00  0.00    +0.095 C 
ATOM     19  H   UNL     1      31.474 -23.762 -15.911  0.00  0.00    +0.150 HD
ENDBRANCH  14  16
ENDBRANCH  11  14
ENDBRANCH   2  10
BRANCH   5  20
ATOM     20  C   UNL     1      34.685 -19.211 -22.311  0.00  0.00    +0.002 C 
ATOM     21  C   UNL     1      34.575 -17.481 -24.495  0.00  0.00    -0.044 C 
ATOM     22  C   UNL     1      34.193 -19.664 -23.534  0.00  0.00    -0.000 C 
ATOM     23  C   UNL     1      35.122 -17.893 -22.179  0.00  0.00    -0.000 C 
ATOM     24  C   UNL     1      34.137 -18.798 -24.627  0.00  0.00    -0.006 C 
ATOM     25  C   UNL     1      35.068 -17.028 -23.271  0.00  0.00    -0.006 C 
BRANCH  21  26
ATOM     26  C   UNL     1      34.515 -16.555 -25.663  0.00  0.00    -0.054 C 
BRANCH  26  27
ATOM     27  N   UNL     1      33.226 -15.869 -25.767  0.00  0.00    +0.390 N 
ATOM     28  H   UNL     1      32.764 -15.885 -24.857  0.00  0.00    -0.083 HD
ATOM     29  H   UNL     1      32.654 -16.348 -26.462  0.00  0.00    -0.083 HD
BRANCH  27  30
ATOM     30  C   UNL     1      33.411 -14.488 -26.183  0.00  0.00    -0.031 C 
BRANCH  30  34
ATOM     31  N   UNL     1      33.015 -13.952 -23.800  0.00  0.00    -0.170 NA
ATOM     32  N   UNL     1      33.167 -12.823 -23.090  0.00  0.00    -0.157 N 
ATOM     33  N   UNL     1      33.616 -11.725 -23.720  0.00  0.00    -0.162 NA
ATOM     34  C   UNL     1      33.406 -13.543 -25.011  0.00  0.00    +0.077 C 
ATOM     35  C   UNL     1      33.770 -12.191 -24.962  0.00  0.00    +0.133 C 
ATOM     36  H   UNL     1      32.953 -12.800 -22.129  0.00  0.00    +0.197 HD
ENDBRANCH  30  34
ENDBRANCH  27  30
ENDBRANCH  26  27
ENDBRANCH  21  26
ENDBRANCH   5  20
TORSDOF 8
ENDMDL
MODEL 3
REMARK VINA RESULT:     -11.2      6.417     10.314
REMARK  Name = 11224409
REMARK  8 active torsions:
REMARK  status: ('A' for Active; 'I' for Inactive)
REMARK    1  A    between atoms: C_2  and  N_10
REMARK    2  A    between atoms: C_5  and  C_20
REMARK    3  A    between atoms: C_11  and  C_14
REMARK    4  A    between atoms: C_14  and  N_16
REMARK    5  A    between atoms: C_21  and  C_26
REMARK    6  A    between atoms: C_26  and  N_27
REMARK    7  A    between atoms: N_27  and  C_30
REMARK    8  A    between atoms: C_30  and  C_34
REMARK                            x       y       z     vdW  Elec       q    Type
REMARK                         _______ _______ _______ _____ _____    ______ ____
ROOT
ATOM      1  F   UNL     1      32.673 -21.010 -20.285  0.00  0.00    -0.204 F 
ATOM      2  C   UNL     1      34.866 -19.275 -22.607  0.00  0.00    +0.059 C 
ATOM      3  C   UNL     1      33.707 -19.768 -22.006  0.00  0.00    +0.045 C 
ATOM      4  C   UNL     1      36.114 -19.558 -22.051  0.00  0.00    +0.015 C 
ATOM      5  C   UNL     1      35.044 -20.826 -20.295  0.00  0.00    +0.028 C 
ATOM      6  C   UNL     1      33.796 -20.544 -20.850  0.00  0.00    +0.141 C 
ATOM      7  C   UNL     1      36.203 -20.333 -20.894  0.00  0.00    +0.004 C 
ENDROOT
BRANCH   2  10
ATOM      8  O   UNL     1      34.447 -17.829 -25.922  0.00  0.00    -0.434 OA
ATOM      9  O   UNL     1      34.094 -20.020 -25.454  0.00  0.00    -0.226 OA
ATOM     10  N   UNL     1      34.775 -18.484 -23.787  0.00  0.00    -0.221 N 
ATOM     11  C   UNL     1      34.632 -16.627 -25.161  0.00  0.00    +0.210 C 
ATOM     12  C   UNL     1      35.179 -17.105 -23.833  0.00  0.00    +0.147 C 
ATOM     13  C   UNL     1      34.401 -18.903 -25.062  0.00  0.00    +0.409 C 
BRANCH  11  14
ATOM     14  C   UNL     1      33.292 -15.914 -25.037  0.00  0.00    +0.135 C 
BRANCH  14  16
ATOM     15  O   UNL     1      33.436 -14.208 -22.691  0.00  0.00    -0.275 OA
ATOM     16  N   UNL     1      33.464 -14.491 -25.003  0.00  0.00    -0.301 N 
ATOM     17  C   UNL     1      33.522 -13.751 -23.827  0.00  0.00    +0.223 C 
ATOM     18  C   UNL     1      33.732 -12.281 -24.078  0.00  0.00    +0.095 C 
ATOM     19  H   UNL     1      33.545 -14.012 -25.860  0.00  0.00    +0.150 HD
ENDBRANCH  14  16
ENDBRANCH  11  14
ENDBRANCH   2  10
BRANCH   5  20
ATOM     20  C   UNL     1      35.141 -21.631 -19.096  0.00  0.00    +0.002 C 
ATOM     21  C   UNL     1      35.330 -23.183 -16.786  0.00  0.00    -0.044 C 
ATOM     22  C   UNL     1      34.044 -22.376 -18.665  0.00  0.00    -0.000 C 
ATOM     23  C   UNL     1      36.333 -21.662 -18.371  0.00  0.00    -0.000 C 
ATOM     24  C   UNL     1      34.138 -23.153 -17.510  0.00  0.00    -0.006 C 
ATOM     25  C   UNL     1      36.428 -22.438 -17.216  0.00  0.00    -0.006 C 
BRANCH  21  26
ATOM     26  C   UNL     1      35.430 -24.014 -15.551  0.00  0.00    -0.054 C 
BRANCH  26  27
ATOM     27  N   UNL     1      35.497 -23.201 -14.335  0.00  0.00    +0.390 N 
ATOM     28  H   UNL     1      34.716 -23.446 -13.726  0.00  0.00    -0.083 HD
ATOM     29  H   UNL     1      35.446 -22.217 -14.596  0.00  0.00    -0.083 HD
BRANCH  27  30
ATOM     30  C   UNL     1      36.746 -23.435 -13.629  0.00  0.00    -0.031 C 
BRANCH  30  34
ATOM     31  N   UNL     1      37.238 -23.127 -11.224  0.00  0.00    -0.170 NA
ATOM     32  N   UNL     1      36.717 -23.677 -10.116  0.00  0.00    -0.157 N 
ATOM     33  N   UNL     1      35.733 -24.581 -10.251  0.00  0.00    -0.162 NA
ATOM     34  C   UNL     1      36.518 -23.735 -12.171  0.00  0.00    +0.077 C 
ATOM     35  C   UNL     1      35.604 -24.618 -11.581  0.00  0.00    +0.133 C 
ATOM     36  H   UNL     1      37.049 -23.424  -9.224  0.00  0.00    +0.197 HD
ENDBRANCH  30  34
ENDBRANCH  27  30
ENDBRANCH  26  27
ENDBRANCH  21  26
ENDBRANCH   5  20
TORSDOF 8
ENDMDL
MODEL 4
REMARK VINA RESULT:     -11.1      6.126     10.108
REMARK  Name = 11224409
REMARK  8 active torsions:
REMARK  status: ('A' for Active; 'I' for Inactive)
REMARK    1  A    between atoms: C_2  and  N_10
REMARK    2  A    between atoms: C_5  and  C_20
REMARK    3  A    between atoms: C_11  and  C_14
REMARK    4  A    between atoms: C_14  and  N_16
REMARK    5  A    between atoms: C_21  and  C_26
REMARK    6  A    between atoms: C_26  and  N_27
REMARK    7  A    between atoms: N_27  and  C_30
REMARK    8  A    between atoms: C_30  and  C_34
REMARK                            x       y       z     vdW  Elec       q    Type
REMARK                         _______ _______ _______ _____ _____    ______ ____
ROOT
ATOM      1  F   UNL     1      32.673 -21.082 -20.361  0.00  0.00    -0.204 F 
ATOM      2  C   UNL     1      34.850 -19.227 -22.604  0.00  0.00    +0.059 C 
ATOM      3  C   UNL     1      33.698 -19.776 -22.040  0.00  0.00    +0.045 C 
ATOM      4  C   UNL     1      36.094 -19.465 -22.019  0.00  0.00    +0.015 C 
ATOM      5  C   UNL     1      35.034 -20.799 -20.307  0.00  0.00    +0.028 C 
ATOM      6  C   UNL     1      33.790 -20.562 -20.891  0.00  0.00    +0.141 C 
ATOM      7  C   UNL     1      36.186 -20.250 -20.870  0.00  0.00    +0.004 C 
ENDROOT
BRANCH   2  10
ATOM      8  O   UNL     1      34.419 -17.750 -25.904  0.00  0.00    -0.434 OA
ATOM      9  O   UNL     1      34.062 -19.945 -25.454  0.00  0.00    -0.226 OA
ATOM     10  N   UNL     1      34.755 -18.426 -23.777  0.00  0.00    -0.221 N 
ATOM     11  C   UNL     1      34.611 -16.556 -25.134  0.00  0.00    +0.210 C 
ATOM     12  C   UNL     1      35.164 -17.047 -23.813  0.00  0.00    +0.147 C 
ATOM     13  C   UNL     1      34.374 -18.832 -25.053  0.00  0.00    +0.409 C 
BRANCH  11  14
ATOM     14  C   UNL     1      33.275 -15.840 -24.997  0.00  0.00    +0.135 C 
BRANCH  14  16
ATOM     15  O   UNL     1      33.437 -14.178 -22.622  0.00  0.00    -0.275 OA
ATOM     16  N   UNL     1      33.452 -14.419 -24.939  0.00  0.00    -0.301 N 
ATOM     17  C   UNL     1      33.519 -13.700 -23.750  0.00  0.00    +0.223 C 
ATOM     18  C   UNL     1      33.734 -12.227 -23.976  0.00  0.00    +0.095 C 
ATOM     19  H   UNL     1      33.530 -13.925 -25.787  0.00  0.00    +0.150 HD
ENDBRANCH  14  16
ENDBRANCH  11  14
ENDBRANCH   2  10
BRANCH   5  20
ATOM     20  C   UNL     1      35.134 -21.614 -19.115  0.00  0.00    +0.002 C 
ATOM     21  C   UNL     1      35.328 -23.183 -16.817  0.00  0.00    -0.044 C 
ATOM     22  C   UNL     1      36.340 -21.686 -18.419  0.00  0.00    -0.000 C 
ATOM     23  C   UNL     1      34.024 -22.328 -18.662  0.00  0.00    -0.000 C 
ATOM     24  C   UNL     1      36.437 -22.470 -17.269  0.00  0.00    -0.006 C 
ATOM     25  C   UNL     1      34.121 -23.113 -17.513  0.00  0.00    -0.006 C 
BRANCH  21  26
ATOM     26  C   UNL     1      35.431 -24.021 -15.587  0.00  0.00    -0.054 C 
BRANCH  26  27
ATOM     27  N   UNL     1      36.816 -24.193 -15.144  0.00  0.00    +0.390 N 
ATOM     28  H   UNL     1      36.928 -23.765 -14.225  0.00  0.00    -0.083 HD
ATOM     29  H   UNL     1      37.434 -23.745 -15.820  0.00  0.00    -0.083 HD
BRANCH  27  30
ATOM     30  C   UNL     1      37.157 -25.603 -15.059  0.00  0.00    -0.031 C 
BRANCH  30  34
ATOM     31  N   UNL     1      39.103 -26.986 -14.404  0.00  0.00    -0.170 NA
ATOM     32  N   UNL     1      40.419 -26.725 -14.347  0.00  0.00    -0.157 N 
ATOM     33  N   UNL     1      40.846 -25.500 -14.694  0.00  0.00    -0.162 NA
ATOM     34  C   UNL     1      38.632 -25.811 -14.834  0.00  0.00    +0.077 C 
ATOM     35  C   UNL     1      39.690 -24.909 -15.009  0.00  0.00    +0.133 C 
ATOM     36  H   UNL     1      41.056 -27.417 -14.055  0.00  0.00    +0.197 HD
ENDBRANCH  30  34
ENDBRANCH  27  30
ENDBRANCH  26  27
ENDBRANCH  21  26
ENDBRANCH   5  20
TORSDOF 8
ENDMDL
MODEL 5
REMARK VINA RESULT:     -11.1      6.221     10.216
REMARK  Name = 11224409
REMARK  8 active torsions:
REMARK  status: ('A' for Active; 'I' for Inactive)
REMARK    1  A    between atoms: C_2  and  N_10
REMARK    2  A    between atoms: C_5  and  C_20
REMARK    3  A    between atoms: C_11  and  C_14
REMARK    4  A    between atoms: C_14  and  N_16
REMARK    5  A    between atoms: C_21  and  C_26
REMARK    6  A    between atoms: C_26  and  N_27
REMARK    7  A    between atoms: N_27  and  C_30
REMARK    8  A    between atoms: C_30  and  C_34
REMARK                            x       y       z     vdW  Elec       q    Type
REMARK                         _______ _______ _______ _____ _____    ______ ____
ROOT
ATOM      1  F   UNL     1      36.989 -20.907 -20.244  0.00  0.00    -0.204 F 
ATOM      2  C   UNL     1      34.635 -19.367 -22.546  0.00  0.00    +0.059 C 
ATOM      3  C   UNL     1      35.838 -19.751 -21.951  0.00  0.00    +0.045 C 
ATOM      4  C   UNL     1      33.422 -19.778 -21.994  0.00  0.00    +0.015 C 
ATOM      5  C   UNL     1      34.612 -20.956 -20.253  0.00  0.00    +0.028 C 
ATOM      6  C   UNL     1      35.826 -20.546 -20.804  0.00  0.00    +0.141 C 
ATOM      7  C   UNL     1      33.410 -20.573 -20.848  0.00  0.00    +0.004 C 
ENDROOT
BRANCH   2  10
ATOM      8  O   UNL     1      34.502 -17.862 -25.859  0.00  0.00    -0.434 OA
ATOM      9  O   UNL     1      34.095 -20.058 -25.459  0.00  0.00    -0.226 OA
ATOM     10  N   UNL     1      34.648 -18.556 -23.716  0.00  0.00    -0.221 N 
ATOM     11  C   UNL     1      34.633 -16.675 -25.065  0.00  0.00    +0.210 C 
ATOM     12  C   UNL     1      35.066 -17.180 -23.705  0.00  0.00    +0.147 C 
ATOM     13  C   UNL     1      34.377 -18.950 -25.024  0.00  0.00    +0.409 C 
BRANCH  11  14
ATOM     14  C   UNL     1      33.294 -15.952 -25.039  0.00  0.00    +0.135 C 
BRANCH  14  16
ATOM     15  O   UNL     1      33.427 -14.198 -22.728  0.00  0.00    -0.275 OA
ATOM     16  N   UNL     1      33.473 -14.530 -25.034  0.00  0.00    -0.301 N 
ATOM     17  C   UNL     1      33.525 -13.765 -23.873  0.00  0.00    +0.223 C 
ATOM     18  C   UNL     1      33.745 -12.302 -24.153  0.00  0.00    +0.095 C 
ATOM     19  H   UNL     1      33.563 -14.069 -25.900  0.00  0.00    +0.150 HD
ENDBRANCH  14  16
ENDBRANCH  11  14
ENDBRANCH   2  10
BRANCH   5  20
ATOM     20  C   UNL     1      34.595 -21.781 -19.064  0.00  0.00    +0.002 C 
ATOM     21  C   UNL     1      34.561 -23.367 -16.770  0.00  0.00    -0.044 C 
ATOM     22  C   UNL     1      35.760 -21.952 -18.318  0.00  0.00    -0.000 C 
ATOM     23  C   UNL     1      33.412 -22.402 -18.662  0.00  0.00    -0.000 C 
ATOM     24  C   UNL     1      35.743 -22.745 -17.170  0.00  0.00    -0.006 C 
ATOM     25  C   UNL     1      33.395 -23.196 -17.516  0.00  0.00    -0.006 C 
BRANCH  21  26
ATOM     26  C   UNL     1      34.543 -24.215 -15.543  0.00  0.00    -0.054 C 
BRANCH  26  27
ATOM     27  N   UNL     1      35.453 -23.718 -14.508  0.00  0.00    +0.390 N 
ATOM     28  H   UNL     1      34.971 -23.015 -13.949  0.00  0.00    -0.083 HD
ATOM     29  H   UNL     1      36.272 -23.311 -14.959  0.00  0.00    -0.083 HD
BRANCH  27  30
ATOM     30  C   UNL     1      35.886 -24.803 -13.642  0.00  0.00    -0.031 C 
BRANCH  30  34
ATOM     31  N   UNL     1      38.083 -24.842 -14.781  0.00  0.00    -0.170 NA
ATOM     32  N   UNL     1      38.911 -25.844 -15.116  0.00  0.00    -0.157 N 
ATOM     33  N   UNL     1      38.551 -27.102 -14.810  0.00  0.00    -0.162 NA
ATOM     34  C   UNL     1      37.089 -25.519 -14.199  0.00  0.00    +0.077 C 
ATOM     35  C   UNL     1      37.373 -26.891 -14.217  0.00  0.00    +0.133 C 
ATOM     36  H   UNL     1      39.762 -25.662 -15.576  0.00  0.00    +0.197 HD
ENDBRANCH  30  34
ENDBRANCH  27  30
ENDBRANCH  26  27
ENDBRANCH  21  26
ENDBRANCH   5  20
TORSDOF 8
ENDMDL
MODEL 6
REMARK VINA RESULT:     -10.9      8.537     14.805
REMARK  Name = 11224409
REMARK  8 active torsions:
REMARK  status: ('A' for Active; 'I' for Inactive)
REMARK    1  A    between atoms: C_2  and  N_10
REMARK    2  A    between atoms: C_5  and  C_20
REMARK    3  A    between atoms: C_11  and  C_14
REMARK    4  A    between atoms: C_14  and  N_16
REMARK    5  A    between atoms: C_21  and  C_26
REMARK    6  A    between atoms: C_26  and  N_27
REMARK    7  A    between atoms: N_27  and  C_30
REMARK    8  A    between atoms: C_30  and  C_34
REMARK                            x       y       z     vdW  Elec       q    Type
REMARK                         _______ _______ _______ _____ _____    ______ ____
ROOT
ATOM      1  F   UNL     1      37.211 -21.223 -18.132  0.00  0.00    -0.204 F 
ATOM      2  C   UNL     1      35.671 -23.710 -15.974  0.00  0.00    +0.059 C 
ATOM      3  C   UNL     1      36.606 -22.816 -16.498  0.00  0.00    +0.045 C 
ATOM      4  C   UNL     1      34.430 -23.862 -16.594  0.00  0.00    +0.015 C 
ATOM      5  C   UNL     1      35.061 -22.231 -18.260  0.00  0.00    +0.028 C 
ATOM      6  C   UNL     1      36.301 -22.078 -17.641  0.00  0.00    +0.141 C 
ATOM      7  C   UNL     1      34.125 -23.123 -17.736  0.00  0.00    +0.004 C 
ENDROOT
BRANCH   2  10
ATOM      8  O   UNL     1      36.523 -26.159 -13.419  0.00  0.00    -0.434 OA
ATOM      9  O   UNL     1      36.336 -26.657 -15.625  0.00  0.00    -0.226 OA
ATOM     10  N   UNL     1      35.983 -24.464 -14.809  0.00  0.00    -0.221 N 
ATOM     11  C   UNL     1      36.602 -24.962 -12.634  0.00  0.00    +0.210 C 
ATOM     12  C   UNL     1      35.915 -23.913 -13.482  0.00  0.00    +0.147 C 
ATOM     13  C   UNL     1      36.288 -25.821 -14.733  0.00  0.00    +0.409 C 
BRANCH  11  14
ATOM     14  C   UNL     1      38.066 -24.649 -12.361  0.00  0.00    +0.135 C 
BRANCH  14  16
ATOM     15  O   UNL     1      39.448 -24.436 -14.906  0.00  0.00    -0.275 OA
ATOM     16  N   UNL     1      38.926 -25.621 -12.969  0.00  0.00    -0.301 N 
ATOM     17  C   UNL     1      39.550 -25.435 -14.198  0.00  0.00    +0.223 C 
ATOM     18  C   UNL     1      40.417 -26.602 -14.590  0.00  0.00    +0.095 C 
ATOM     19  H   UNL     1      39.083 -26.468 -12.490  0.00  0.00    +0.150 HD
ENDBRANCH  14  16
ENDBRANCH  11  14
ENDBRANCH   2  10
BRANCH   5  20
ATOM     20  C   UNL     1      34.740 -21.466 -19.446  0.00  0.00    +0.002 C 
ATOM     21  C   UNL     1      34.121 -19.994 -21.733  0.00  0.00    -0.044 C 
ATOM     22  C   UNL     1      35.762 -20.932 -20.229  0.00  0.00    -0.000 C 
ATOM     23  C   UNL     1      33.407 -21.264 -19.807  0.00  0.00    -0.000 C 
ATOM     24  C   UNL     1      35.453 -20.196 -21.373  0.00  0.00    -0.006 C 
ATOM     25  C   UNL     1      33.097 -20.527 -20.950  0.00  0.00    -0.006 C 
BRANCH  21  26
ATOM     26  C   UNL     1      33.791 -19.207 -22.957  0.00  0.00    -0.054 C 
BRANCH  26  27
ATOM     27  N   UNL     1      34.945 -18.472 -23.476  0.00  0.00    +0.390 N 
ATOM     28  H   UNL     1      35.783 -19.043 -23.367  0.00  0.00    -0.083 HD
ATOM     29  H   UNL     1      35.041 -17.601 -22.954  0.00  0.00    -0.083 HD
BRANCH  27  30
ATOM     30  C   UNL     1      34.762 -18.155 -24.883  0.00  0.00    -0.031 C 
BRANCH  30  34
ATOM     31  N   UNL     1      33.381 -16.557 -26.173  0.00  0.00    -0.170 NA
ATOM     32  N   UNL     1      32.990 -15.297 -25.928  0.00  0.00    -0.157 N 
ATOM     33  N   UNL     1      33.381 -14.715 -24.782  0.00  0.00    -0.162 NA
ATOM     34  C   UNL     1      34.097 -16.818 -25.075  0.00  0.00    +0.077 C 
ATOM     35  C   UNL     1      34.097 -15.699 -24.231  0.00  0.00    +0.133 C 
ATOM     36  H   UNL     1      32.429 -14.809 -26.574  0.00  0.00    +0.197 HD
ENDBRANCH  30  34
ENDBRANCH  27  30
ENDBRANCH  26  27
ENDBRANCH  21  26
ENDBRANCH   5  20
TORSDOF 8
ENDMDL
MODEL 7
REMARK VINA RESULT:     -10.8      1.428      1.869
REMARK  Name = 11224409
REMARK  8 active torsions:
REMARK  status: ('A' for Active; 'I' for Inactive)
REMARK    1  A    between atoms: C_2  and  N_10
REMARK    2  A    between atoms: C_5  and  C_20
REMARK    3  A    between atoms: C_11  and  C_14
REMARK    4  A    between atoms: C_14  and  N_16
REMARK    5  A    between atoms: C_21  and  C_26
REMARK    6  A    between atoms: C_26  and  N_27
REMARK    7  A    between atoms: N_27  and  C_30
REMARK    8  A    between atoms: C_30  and  C_34
REMARK                            x       y       z     vdW  Elec       q    Type
REMARK                         _______ _______ _______ _____ _____    ______ ____
ROOT
ATOM      1  F   UNL     1      31.983 -13.129 -21.884  0.00  0.00    -0.204 F 
ATOM      2  C   UNL     1      33.026  -9.861 -23.087  0.00  0.00    +0.059 C 
ATOM      3  C   UNL     1      32.371 -10.846 -22.347  0.00  0.00    +0.045 C 
ATOM      4  C   UNL     1      33.930 -10.225 -24.085  0.00  0.00    +0.015 C 
ATOM      5  C   UNL     1      33.524 -12.557 -23.603  0.00  0.00    +0.028 C 
ATOM      6  C   UNL     1      32.620 -12.194 -22.605  0.00  0.00    +0.141 C 
ATOM      7  C   UNL     1      34.180 -11.573 -24.343  0.00  0.00    +0.004 C 
ENDROOT
BRANCH   2  10
ATOM      8  O   UNL     1      33.041  -6.270 -22.487  0.00  0.00    -0.434 OA
ATOM      9  O   UNL     1      34.910  -7.479 -22.924  0.00  0.00    -0.226 OA
ATOM     10  N   UNL     1      32.771  -8.486 -22.824  0.00  0.00    -0.221 N 
ATOM     11  C   UNL     1      31.626  -6.489 -22.571  0.00  0.00    +0.210 C 
ATOM     12  C   UNL     1      31.472  -7.991 -22.452  0.00  0.00    +0.147 C 
ATOM     13  C   UNL     1      33.696  -7.446 -22.776  0.00  0.00    +0.409 C 
BRANCH  11  14
ATOM     14  C   UNL     1      31.121  -5.937 -23.896  0.00  0.00    +0.135 C 
BRANCH  14  16
ATOM     15  O   UNL     1      30.219  -3.430 -22.742  0.00  0.00    -0.275 OA
ATOM     16  N   UNL     1      31.644  -4.626 -24.145  0.00  0.00    -0.301 N 
ATOM     17  C   UNL     1      31.148  -3.473 -23.544  0.00  0.00    +0.223 C 
ATOM     18  C   UNL     1      31.895  -2.235 -23.962  0.00  0.00    +0.095 C 
ATOM     19  H   UNL     1      32.396  -4.536 -24.775  0.00  0.00    +0.150 HD
ENDBRANCH  14  16
ENDBRANCH  11  14
ENDBRANCH   2  10
BRANCH   5  20
ATOM     20  C   UNL     1      33.785 -13.955 -23.874  0.00  0.00    +0.002 C 
ATOM     21  C   UNL     1      34.292 -16.647 -24.398  0.00  0.00    -0.044 C 
ATOM     22  C   UNL     1      33.250 -14.556 -25.013  0.00  0.00    -0.000 C 
ATOM     23  C   UNL     1      34.575 -14.700 -22.997  0.00  0.00    -0.000 C 
ATOM     24  C   UNL     1      33.504 -15.902 -25.275  0.00  0.00    -0.006 C 
ATOM     25  C   UNL     1      34.827 -16.046 -23.259  0.00  0.00    -0.006 C 
BRANCH  21  26
ATOM     26  C   UNL     1      34.563 -18.086 -24.680  0.00  0.00    -0.054 C 
BRANCH  26  27
ATOM     27  N   UNL     1      35.415 -18.704 -23.661  0.00  0.00    +0.390 N 
ATOM     28  H   UNL     1      35.963 -17.978 -23.199  0.00  0.00    -0.083 HD
ATOM     29  H   UNL     1      36.031 -19.378 -24.114  0.00  0.00    -0.083 HD
BRANCH  27  30
ATOM     30  C   UNL     1      34.609 -19.398 -22.670  0.00  0.00    -0.031 C 
BRANCH  30  34
ATOM     31  N   UNL     1      36.509 -19.119 -21.109  0.00  0.00    -0.170 NA
ATOM     32  N   UNL     1      36.907 -19.817 -20.034  0.00  0.00    -0.157 N 
ATOM     33  N   UNL     1      36.190 -20.892 -19.667  0.00  0.00    -0.162 NA
ATOM     34  C   UNL     1      35.425 -19.810 -21.473  0.00  0.00    +0.077 C 
ATOM     35  C   UNL     1      35.232 -20.888 -20.598  0.00  0.00    +0.133 C 
ATOM     36  H   UNL     1      37.706 -19.548 -19.527  0.00  0.00    +0.197 HD
ENDBRANCH  30  34
ENDBRANCH  27  30
ENDBRANCH  26  27
ENDBRANCH  21  26
ENDBRANCH   5  20
TORSDOF 8
ENDMDL
MODEL 8
REMARK VINA RESULT:     -10.8      1.242      1.573
REMARK  Name = 11224409
REMARK  8 active torsions:
REMARK  status: ('A' for Active; 'I' for Inactive)
REMARK    1  A    between atoms: C_2  and  N_10
REMARK    2  A    between atoms: C_5  and  C_20
REMARK    3  A    between atoms: C_11  and  C_14
REMARK    4  A    between atoms: C_14  and  N_16
REMARK    5  A    between atoms: C_21  and  C_26
REMARK    6  A    between atoms: C_26  and  N_27
REMARK    7  A    between atoms: N_27  and  C_30
REMARK    8  A    between atoms: C_30  and  C_34
REMARK                            x       y       z     vdW  Elec       q    Type
REMARK                         _______ _______ _______ _____ _____    ______ ____
ROOT
ATOM      1  F   UNL     1      31.993 -13.624 -21.408  0.00  0.00    -0.204 F 
ATOM      2  C   UNL     1      32.533 -10.331 -22.849  0.00  0.00    +0.059 C 
ATOM      3  C   UNL     1      32.032 -11.348 -22.035  0.00  0.00    +0.045 C 
ATOM      4  C   UNL     1      33.486 -10.625 -23.824  0.00  0.00    +0.015 C 
ATOM      5  C   UNL     1      33.436 -12.951 -23.174  0.00  0.00    +0.028 C 
ATOM      6  C   UNL     1      32.484 -12.658 -22.198  0.00  0.00    +0.141 C 
ATOM      7  C   UNL     1      33.938 -11.934 -23.987  0.00  0.00    +0.004 C 
ENDROOT
BRANCH   2  10
ATOM      8  O   UNL     1      31.420  -7.038 -21.764  0.00  0.00    -0.434 OA
ATOM      9  O   UNL     1      32.042  -8.688 -20.336  0.00  0.00    -0.226 OA
ATOM     10  N   UNL     1      32.072  -8.995 -22.682  0.00  0.00    -0.221 N 
ATOM     11  C   UNL     1      31.524  -6.800 -23.174  0.00  0.00    +0.210 C 
ATOM     12  C   UNL     1      31.622  -8.183 -23.782  0.00  0.00    +0.147 C 
ATOM     13  C   UNL     1      31.882  -8.306 -21.487  0.00  0.00    +0.409 C 
BRANCH  11  14
ATOM     14  C   UNL     1      32.752  -5.940 -23.438  0.00  0.00    +0.135 C 
BRANCH  14  16
ATOM     15  O   UNL     1      34.956  -5.449 -25.263  0.00  0.00    -0.275 OA
ATOM     16  N   UNL     1      32.690  -5.333 -24.735  0.00  0.00    -0.301 N 
ATOM     17  C   UNL     1      33.803  -5.135 -25.546  0.00  0.00    +0.223 C 
ATOM     18  C   UNL     1      33.453  -4.500 -26.865  0.00  0.00    +0.095 C 
ATOM     19  H   UNL     1      31.811  -5.039 -25.069  0.00  0.00    +0.150 HD
ENDBRANCH  14  16
ENDBRANCH  11  14
ENDBRANCH   2  10
BRANCH   5  20
ATOM     20  C   UNL     1      33.908 -14.308 -23.347  0.00  0.00    +0.002 C 
ATOM     21  C   UNL     1      34.818 -16.923 -23.681  0.00  0.00    -0.044 C 
ATOM     22  C   UNL     1      33.585 -15.016 -24.504  0.00  0.00    -0.000 C 
ATOM     23  C   UNL     1      34.686 -14.908 -22.356  0.00  0.00    -0.000 C 
ATOM     24  C   UNL     1      34.041 -16.324 -24.671  0.00  0.00    -0.006 C 
ATOM     25  C   UNL     1      35.141 -16.215 -22.523  0.00  0.00    -0.006 C 
BRANCH  21  26
ATOM     26  C   UNL     1      35.305 -18.321 -23.860  0.00  0.00    -0.054 C 
BRANCH  26  27
ATOM     27  N   UNL     1      34.547 -19.284 -23.060  0.00  0.00    +0.390 N 
ATOM     28  H   UNL     1      34.722 -20.225 -23.413  0.00  0.00    -0.083 HD
ATOM     29  H   UNL     1      33.555 -19.060 -23.130  0.00  0.00    -0.083 HD
BRANCH  27  30
ATOM     30  C   UNL     1      34.943 -19.217 -21.663  0.00  0.00    -0.031 C 
BRANCH  30  34
ATOM     31  N   UNL     1      35.001 -21.079 -20.034  0.00  0.00    -0.170 NA
ATOM     32  N   UNL     1      34.039 -21.859 -19.518  0.00  0.00    -0.157 N 
ATOM     33  N   UNL     1      32.770 -21.656 -19.909  0.00  0.00    -0.162 NA
ATOM     34  C   UNL     1      34.283 -20.291 -20.840  0.00  0.00    +0.077 C 
ATOM     35  C   UNL     1      32.928 -20.642 -20.764  0.00  0.00    +0.133 C 
ATOM     36  H   UNL     1      34.258 -22.566 -18.868  0.00  0.00    +0.197 HD
ENDBRANCH  30  34
ENDBRANCH  27  30
ENDBRANCH  26  27
ENDBRANCH  21  26
ENDBRANCH   5  20
TORSDOF 8
ENDMDL
MODEL 9
REMARK VINA RESULT:     -10.6      6.289     10.180
REMARK  Name = 11224409
REMARK  8 active torsions:
REMARK  status: ('A' for Active; 'I' for Inactive)
REMARK    1  A    between atoms: C_2  and  N_10
REMARK    2  A    between atoms: C_5  and  C_20
REMARK    3  A    between atoms: C_11  and  C_14
REMARK    4  A    between atoms: C_14  and  N_16
REMARK    5  A    between atoms: C_21  and  C_26
REMARK    6  A    between atoms: C_26  and  N_27
REMARK    7  A    between atoms: N_27  and  C_30
REMARK    8  A    between atoms: C_30  and  C_34
REMARK                            x       y       z     vdW  Elec       q    Type
REMARK                         _______ _______ _______ _____ _____    ______ ____
ROOT
ATOM      1  F   UNL     1      37.028 -20.819 -20.231  0.00  0.00    -0.204 F 
ATOM      2  C   UNL     1      34.669 -19.299 -22.541  0.00  0.00    +0.059 C 
ATOM      3  C   UNL     1      35.872 -19.665 -21.935  0.00  0.00    +0.045 C 
ATOM      4  C   UNL     1      33.459 -19.745 -22.011  0.00  0.00    +0.015 C 
ATOM      5  C   UNL     1      34.653 -20.922 -20.272  0.00  0.00    +0.028 C 
ATOM      6  C   UNL     1      35.864 -20.476 -20.801  0.00  0.00    +0.141 C 
ATOM      7  C   UNL     1      33.450 -20.557 -20.876  0.00  0.00    +0.004 C 
ENDROOT
BRANCH   2  10
ATOM      8  O   UNL     1      34.501 -17.740 -25.827  0.00  0.00    -0.434 OA
ATOM      9  O   UNL     1      34.032 -19.927 -25.448  0.00  0.00    -0.226 OA
ATOM     10  N   UNL     1      34.679 -18.471 -23.698  0.00  0.00    -0.221 N 
ATOM     11  C   UNL     1      34.691 -16.570 -25.020  0.00  0.00    +0.210 C 
ATOM     12  C   UNL     1      35.142 -17.109 -23.679  0.00  0.00    +0.147 C 
ATOM     13  C   UNL     1      34.361 -18.835 -25.005  0.00  0.00    +0.409 C 
BRANCH  11  14
ATOM     14  C   UNL     1      33.377 -15.804 -24.948  0.00  0.00    +0.135 C 
BRANCH  14  16
ATOM     15  O   UNL     1      33.346 -13.109 -26.030  0.00  0.00    -0.275 OA
ATOM     16  N   UNL     1      33.533 -14.574 -24.228  0.00  0.00    -0.301 N 
ATOM     17  C   UNL     1      33.504 -13.321 -24.830  0.00  0.00    +0.223 C 
ATOM     18  C   UNL     1      33.668 -12.199 -23.840  0.00  0.00    +0.095 C 
ATOM     19  H   UNL     1      33.668 -14.620 -23.253  0.00  0.00    +0.150 HD
ENDBRANCH  14  16
ENDBRANCH  11  14
ENDBRANCH   2  10
BRANCH   5  20
ATOM     20  C   UNL     1      34.639 -21.764 -19.094  0.00  0.00    +0.002 C 
ATOM     21  C   UNL     1      34.612 -23.384 -16.824  0.00  0.00    -0.044 C 
ATOM     22  C   UNL     1      35.804 -21.937 -18.347  0.00  0.00    -0.000 C 
ATOM     23  C   UNL     1      33.460 -22.401 -18.706  0.00  0.00    -0.000 C 
ATOM     24  C   UNL     1      35.790 -22.747 -17.212  0.00  0.00    -0.006 C 
ATOM     25  C   UNL     1      33.447 -23.212 -17.572  0.00  0.00    -0.006 C 
BRANCH  21  26
ATOM     26  C   UNL     1      34.598 -24.250 -15.610  0.00  0.00    -0.054 C 
BRANCH  26  27
ATOM     27  N   UNL     1      34.482 -23.475 -14.373  0.00  0.00    +0.390 N 
ATOM     28  H   UNL     1      34.119 -22.547 -14.592  0.00  0.00    -0.083 HD
ATOM     29  H   UNL     1      35.404 -23.402 -13.945  0.00  0.00    -0.083 HD
BRANCH  27  30
ATOM     30  C   UNL     1      33.582 -24.131 -13.438  0.00  0.00    -0.031 C 
BRANCH  30  34
ATOM     31  N   UNL     1      31.537 -23.015 -14.273  0.00  0.00    -0.170 NA
ATOM     32  N   UNL     1      30.341 -23.488 -14.656  0.00  0.00    -0.157 N 
ATOM     33  N   UNL     1      30.130 -24.814 -14.608  0.00  0.00    -0.162 NA
ATOM     34  C   UNL     1      32.164 -24.149 -13.944  0.00  0.00    +0.077 C 
ATOM     35  C   UNL     1      31.309 -25.241 -14.147  0.00  0.00    +0.133 C 
ATOM     36  H   UNL     1      29.633 -22.877 -14.966  0.00  0.00    +0.197 HD
ENDBRANCH  30  34
ENDBRANCH  27  30
ENDBRANCH  26  27
ENDBRANCH  21  26
ENDBRANCH   5  20
TORSDOF 8
ENDMDL
