MODEL 1
REMARK VINA RESULT:     -11.1      0.000      0.000
REMARK  Name = 18376177
REMARK  11 active torsions:
REMARK  status: ('A' for Active; 'I' for Inactive)
REMARK    1  A    between atoms: N_1  and  S_2
REMARK    2  A    between atoms: N_1  and  C_11
REMARK    3  A    between atoms: N_1  and  C_23
REMARK    4  A    between atoms: S_2  and  C_6
REMARK    5  A    between atoms: C_11  and  C_12
REMARK    6  A    between atoms: C_15  and  N_18
REMARK    7  A    between atoms: C_23  and  C_24
REMARK    8  A    between atoms: C_27  and  O_30
REMARK    9  A    between atoms: O_30  and  C_31
REMARK   10  A    between atoms: C_31  and  C_33
REMARK   11  A    between atoms: C_33  and  O_34
REMARK                            x       y       z     vdW  Elec       q    Type
REMARK                         _______ _______ _______ _____ _____    ______ ____
ROOT
ATOM      1  N   UNL     1      33.339 -23.432 -15.380  0.00  0.00    -0.147 NA
ENDROOT
BRANCH   1   2
ATOM      2  S   UNL     1      32.121 -24.193 -14.428  0.00  0.00    +0.065 S 
ATOM      3  O   UNL     1      31.898 -23.421 -13.220  0.00  0.00    -0.153 OA
ATOM      4  O   UNL     1      32.404 -25.613 -14.325  0.00  0.00    -0.153 OA
BRANCH   2   6
ATOM      5  N   UNL     1      29.385 -22.677 -16.980  0.00  0.00    -0.241 NA
ATOM      6  C   UNL     1      30.676 -24.019 -15.437  0.00  0.00    +0.141 C 
ATOM      7  C   UNL     1      29.719 -25.025 -15.500  0.00  0.00    +0.023 C 
ATOM      8  C   UNL     1      30.463 -22.874 -16.190  0.00  0.00    +0.119 C 
ATOM      9  C   UNL     1      28.595 -24.860 -16.301  0.00  0.00    +0.022 C 
ATOM     10  C   UNL     1      28.476 -23.678 -17.015  0.00  0.00    +0.099 C 
ENDBRANCH   2   6
ENDBRANCH   1   2
BRANCH   1  11
ATOM     11  C   UNL     1      33.733 -24.084 -16.655  0.00  0.00    +0.122 C 
BRANCH  11  12
ATOM     12  C   UNL     1      34.102 -23.086 -17.716  0.00  0.00    -0.004 C 
ATOM     13  C   UNL     1      33.110 -22.522 -18.517  0.00  0.00    -0.002 C 
ATOM     14  C   UNL     1      35.436 -22.723 -17.899  0.00  0.00    -0.002 C 
ATOM     15  C   UNL     1      34.787 -21.235 -19.688  0.00  0.00    +0.074 C 
ATOM     16  C   UNL     1      33.453 -21.596 -19.504  0.00  0.00    +0.016 C 
ATOM     17  C   UNL     1      35.779 -21.798 -18.885  0.00  0.00    +0.016 C 
BRANCH  15  18
ATOM     18  N   UNL     1      35.126 -20.316 -20.664  0.00  0.00    -0.189 N 
ATOM     19  N   UNL     1      36.307 -19.675 -20.615  0.00  0.00    -0.172 NA
ATOM     20  C   UNL     1      34.355 -19.970 -21.734  0.00  0.00    +0.091 C 
ATOM     21  C   UNL     1      35.080 -19.037 -22.433  0.00  0.00    +0.040 C 
ATOM     22  C   UNL     1      36.272 -18.894 -21.699  0.00  0.00    +0.120 C 
ENDBRANCH  15  18
ENDBRANCH  11  12
ENDBRANCH   1  11
BRANCH   1  23
ATOM     23  C   UNL     1      34.507 -22.846 -14.673  0.00  0.00    +0.123 C 
BRANCH  23  24
ATOM     24  C   UNL     1      35.369 -23.896 -14.031  0.00  0.00    -0.001 C 
ATOM     25  C   UNL     1      36.281 -24.617 -14.802  0.00  0.00    +0.034 C 
ATOM     26  C   UNL     1      35.257 -24.151 -12.664  0.00  0.00    -0.003 C 
ATOM     27  C   UNL     1      37.081 -25.591 -14.206  0.00  0.00    +0.139 C 
ATOM     28  C   UNL     1      36.056 -25.126 -12.068  0.00  0.00    +0.003 C 
ATOM     29  C   UNL     1      36.969 -25.846 -12.839  0.00  0.00    +0.037 C 
BRANCH  27  30
ATOM     30  O   UNL     1      37.970 -26.296 -14.958  0.00  0.00    -0.464 OA
BRANCH  30  31
ATOM     31  C   UNL     1      39.203 -26.659 -14.338  0.00  0.00    +0.314 C 
BRANCH  31  33
ATOM     32  O   UNL     1      40.937 -24.957 -14.301  0.00  0.00    -0.246 OA
ATOM     33  C   UNL     1      40.320 -25.825 -14.900  0.00  0.00    +0.359 C 
BRANCH  33  34
ATOM     34  O   UNL     1      40.559 -26.171 -16.190  0.00  0.00    -0.478 OA
ATOM     35  H   UNL     1      40.365 -25.569 -16.881  0.00  0.00    +0.295 HD
ENDBRANCH  33  34
ENDBRANCH  31  33
ENDBRANCH  30  31
ENDBRANCH  27  30
ENDBRANCH  23  24
ENDBRANCH   1  23
TORSDOF 11
ENDMDL
MODEL 2
REMARK VINA RESULT:      -9.6      3.301      7.521
REMARK  Name = 18376177
REMARK  11 active torsions:
REMARK  status: ('A' for Active; 'I' for Inactive)
REMARK    1  A    between atoms: N_1  and  S_2
REMARK    2  A    between atoms: N_1  and  C_11
REMARK    3  A    between atoms: N_1  and  C_23
REMARK    4  A    between atoms: S_2  and  C_6
REMARK    5  A    between atoms: C_11  and  C_12
REMARK    6  A    between atoms: C_15  and  N_18
REMARK    7  A    between atoms: C_23  and  C_24
REMARK    8  A    between atoms: C_27  and  O_30
REMARK    9  A    between atoms: O_30  and  C_31
REMARK   10  A    between atoms: C_31  and  C_33
REMARK   11  A    between atoms: C_33  and  O_34
REMARK                            x       y       z     vdW  Elec       q    Type
REMARK                         _______ _______ _______ _____ _____    ______ ____
ROOT
ATOM      1  N   UNL     1      35.051 -24.376 -13.305  0.00  0.00    -0.147 NA
ENDROOT
BRANCH   1   2
ATOM      2  S   UNL     1      36.472 -24.271 -12.333  0.00  0.00    +0.065 S 
ATOM      3  O   UNL     1      36.253 -24.969 -11.080  0.00  0.00    -0.153 OA
ATOM      4  O   UNL     1      36.943 -22.899 -12.313  0.00  0.00    -0.153 OA
BRANCH   2   6
ATOM      5  N   UNL     1      38.213 -27.286 -14.377  0.00  0.00    -0.241 NA
ATOM      6  C   UNL     1      37.646 -25.216 -13.263  0.00  0.00    +0.141 C 
ATOM      7  C   UNL     1      38.881 -24.681 -13.610  0.00  0.00    +0.023 C 
ATOM      8  C   UNL     1      37.363 -26.511 -13.667  0.00  0.00    +0.119 C 
ATOM      9  C   UNL     1      39.783 -25.447 -14.341  0.00  0.00    +0.022 C 
ATOM     10  C   UNL     1      39.404 -26.732 -14.697  0.00  0.00    +0.099 C 
ENDBRANCH   2   6
ENDBRANCH   1   2
BRANCH   1  11
ATOM     11  C   UNL     1      33.778 -24.743 -12.635  0.00  0.00    +0.122 C 
BRANCH  11  12
ATOM     12  C   UNL     1      32.576 -24.403 -13.472  0.00  0.00    -0.004 C 
ATOM     13  C   UNL     1      31.702 -25.411 -13.877  0.00  0.00    -0.002 C 
ATOM     14  C   UNL     1      32.335 -23.081 -13.843  0.00  0.00    -0.002 C 
ATOM     15  C   UNL     1      30.347 -23.774 -15.027  0.00  0.00    +0.074 C 
ATOM     16  C   UNL     1      30.587 -25.097 -14.655  0.00  0.00    +0.016 C 
ATOM     17  C   UNL     1      31.221 -22.766 -14.620  0.00  0.00    +0.016 C 
BRANCH  15  18
ATOM     18  N   UNL     1      29.241 -23.463 -15.796  0.00  0.00    -0.189 N 
ATOM     19  N   UNL     1      28.453 -22.424 -15.466  0.00  0.00    -0.172 NA
ATOM     20  C   UNL     1      28.839 -24.126 -16.918  0.00  0.00    +0.091 C 
ATOM     21  C   UNL     1      27.708 -23.478 -17.352  0.00  0.00    +0.040 C 
ATOM     22  C   UNL     1      27.518 -22.440 -16.421  0.00  0.00    +0.120 C 
ENDBRANCH  15  18
ENDBRANCH  11  12
ENDBRANCH   1  11
BRANCH   1  23
ATOM     23  C   UNL     1      35.174 -25.003 -14.646  0.00  0.00    +0.123 C 
BRANCH  23  24
ATOM     24  C   UNL     1      35.389 -23.987 -15.732  0.00  0.00    -0.001 C 
ATOM     25  C   UNL     1      34.362 -23.697 -16.630  0.00  0.00    +0.034 C 
ATOM     26  C   UNL     1      36.616 -23.333 -15.842  0.00  0.00    -0.003 C 
ATOM     27  C   UNL     1      34.561 -22.754 -17.638  0.00  0.00    +0.139 C 
ATOM     28  C   UNL     1      36.816 -22.390 -16.850  0.00  0.00    +0.003 C 
ATOM     29  C   UNL     1      35.788 -22.100 -17.748  0.00  0.00    +0.037 C 
BRANCH  27  30
ATOM     30  O   UNL     1      33.560 -22.473 -18.516  0.00  0.00    -0.464 OA
BRANCH  30  31
ATOM     31  C   UNL     1      33.925 -22.295 -19.884  0.00  0.00    +0.314 C 
BRANCH  31  33
ATOM     32  O   UNL     1      32.298 -20.576 -20.428  0.00  0.00    -0.246 OA
ATOM     33  C   UNL     1      33.460 -20.950 -20.364  0.00  0.00    +0.359 C 
BRANCH  33  34
ATOM     34  O   UNL     1      34.523 -20.188 -20.724  0.00  0.00    -0.478 OA
ATOM     35  H   UNL     1      34.959 -20.346 -21.538  0.00  0.00    +0.295 HD
ENDBRANCH  33  34
ENDBRANCH  31  33
ENDBRANCH  30  31
ENDBRANCH  27  30
ENDBRANCH  23  24
ENDBRANCH   1  23
TORSDOF 11
ENDMDL
MODEL 3
REMARK VINA RESULT:      -9.5      3.250      7.456
REMARK  Name = 18376177
REMARK  11 active torsions:
REMARK  status: ('A' for Active; 'I' for Inactive)
REMARK    1  A    between atoms: N_1  and  S_2
REMARK    2  A    between atoms: N_1  and  C_11
REMARK    3  A    between atoms: N_1  and  C_23
REMARK    4  A    between atoms: S_2  and  C_6
REMARK    5  A    between atoms: C_11  and  C_12
REMARK    6  A    between atoms: C_15  and  N_18
REMARK    7  A    between atoms: C_23  and  C_24
REMARK    8  A    between atoms: C_27  and  O_30
REMARK    9  A    between atoms: O_30  and  C_31
REMARK   10  A    between atoms: C_31  and  C_33
REMARK   11  A    between atoms: C_33  and  O_34
REMARK                            x       y       z     vdW  Elec       q    Type
REMARK                         _______ _______ _______ _____ _____    ______ ____
ROOT
ATOM      1  N   UNL     1      34.735 -23.903 -14.507  0.00  0.00    -0.147 NA
ENDROOT
BRANCH   1   2
ATOM      2  S   UNL     1      36.147 -23.486 -13.611  0.00  0.00    +0.065 S 
ATOM      3  O   UNL     1      35.852 -23.540 -12.191  0.00  0.00    -0.153 OA
ATOM      4  O   UNL     1      36.738 -22.284 -14.171  0.00  0.00    -0.153 OA
BRANCH   2   6
ATOM      5  N   UNL     1      37.736 -27.190 -13.821  0.00  0.00    -0.241 NA
ATOM      6  C   UNL     1      37.245 -24.828 -13.971  0.00  0.00    +0.141 C 
ATOM      7  C   UNL     1      38.435 -24.616 -14.657  0.00  0.00    +0.023 C 
ATOM      8  C   UNL     1      36.944 -26.123 -13.579  0.00  0.00    +0.119 C 
ATOM      9  C   UNL     1      39.277 -25.689 -14.926  0.00  0.00    +0.022 C 
ATOM     10  C   UNL     1      38.885 -26.945 -14.491  0.00  0.00    +0.099 C 
ENDBRANCH   2   6
ENDBRANCH   1   2
BRANCH   1  11
ATOM     11  C   UNL     1      33.593 -24.499 -13.768  0.00  0.00    +0.122 C 
BRANCH  11  12
ATOM     12  C   UNL     1      32.267 -24.105 -14.355  0.00  0.00    -0.004 C 
ATOM     13  C   UNL     1      31.871 -22.769 -14.348  0.00  0.00    -0.002 C 
ATOM     14  C   UNL     1      31.432 -25.078 -14.906  0.00  0.00    -0.002 C 
ATOM     15  C   UNL     1      29.803 -23.376 -15.442  0.00  0.00    +0.074 C 
ATOM     16  C   UNL     1      30.638 -22.404 -14.892  0.00  0.00    +0.016 C 
ATOM     17  C   UNL     1      30.201 -24.713 -15.449  0.00  0.00    +0.016 C 
BRANCH  15  18
ATOM     18  N   UNL     1      28.583 -23.013 -15.982  0.00  0.00    -0.189 N 
ATOM     19  N   UNL     1      28.400 -23.020 -17.314  0.00  0.00    -0.172 NA
ATOM     20  C   UNL     1      27.481 -22.632 -15.275  0.00  0.00    +0.091 C 
ATOM     21  C   UNL     1      26.509 -22.369 -16.209  0.00  0.00    +0.040 C 
ATOM     22  C   UNL     1      27.130 -22.624 -17.446  0.00  0.00    +0.120 C 
ENDBRANCH  15  18
ENDBRANCH  11  12
ENDBRANCH   1  11
BRANCH   1  23
ATOM     23  C   UNL     1      34.922 -24.533 -15.840  0.00  0.00    +0.123 C 
BRANCH  23  24
ATOM     24  C   UNL     1      34.642 -23.577 -16.965  0.00  0.00    -0.001 C 
ATOM     25  C   UNL     1      35.678 -22.821 -17.513  0.00  0.00    +0.034 C 
ATOM     26  C   UNL     1      33.345 -23.447 -17.464  0.00  0.00    -0.003 C 
ATOM     27  C   UNL     1      35.418 -21.934 -18.557  0.00  0.00    +0.139 C 
ATOM     28  C   UNL     1      33.085 -22.560 -18.508  0.00  0.00    +0.003 C 
ATOM     29  C   UNL     1      34.122 -21.804 -19.055  0.00  0.00    +0.037 C 
BRANCH  27  30
ATOM     30  O   UNL     1      36.429 -21.194 -19.089  0.00  0.00    -0.464 OA
BRANCH  30  31
ATOM     31  C   UNL     1      36.375 -20.933 -20.491  0.00  0.00    +0.314 C 
BRANCH  31  33
ATOM     32  O   UNL     1      37.938 -19.146 -21.007  0.00  0.00    -0.246 OA
ATOM     33  C   UNL     1      36.800 -19.517 -20.762  0.00  0.00    +0.359 C 
BRANCH  33  34
ATOM     34  O   UNL     1      35.730 -18.687 -20.696  0.00  0.00    -0.478 OA
ATOM     35  H   UNL     1      35.402 -18.408 -19.864  0.00  0.00    +0.295 HD
ENDBRANCH  33  34
ENDBRANCH  31  33
ENDBRANCH  30  31
ENDBRANCH  27  30
ENDBRANCH  23  24
ENDBRANCH   1  23
TORSDOF 11
ENDMDL
MODEL 4
REMARK VINA RESULT:      -8.8      3.451      6.765
REMARK  Name = 18376177
REMARK  11 active torsions:
REMARK  status: ('A' for Active; 'I' for Inactive)
REMARK    1  A    between atoms: N_1  and  S_2
REMARK    2  A    between atoms: N_1  and  C_11
REMARK    3  A    between atoms: N_1  and  C_23
REMARK    4  A    between atoms: S_2  and  C_6
REMARK    5  A    between atoms: C_11  and  C_12
REMARK    6  A    between atoms: C_15  and  N_18
REMARK    7  A    between atoms: C_23  and  C_24
REMARK    8  A    between atoms: C_27  and  O_30
REMARK    9  A    between atoms: O_30  and  C_31
REMARK   10  A    between atoms: C_31  and  C_33
REMARK   11  A    between atoms: C_33  and  O_34
REMARK                            x       y       z     vdW  Elec       q    Type
REMARK                         _______ _______ _______ _____ _____    ______ ____
ROOT
ATOM      1  N   UNL     1      32.299 -23.607 -16.004  0.00  0.00    -0.147 NA
ENDROOT
BRANCH   1   2
ATOM      2  S   UNL     1      31.134 -24.429 -15.034  0.00  0.00    +0.065 S 
ATOM      3  O   UNL     1      31.189 -23.918 -13.677  0.00  0.00    -0.153 OA
ATOM      4  O   UNL     1      31.237 -25.858 -15.264  0.00  0.00    -0.153 OA
BRANCH   2   6
ATOM      5  N   UNL     1      27.815 -24.263 -17.326  0.00  0.00    -0.241 NA
ATOM      6  C   UNL     1      29.599 -23.893 -15.737  0.00  0.00    +0.141 C 
ATOM      7  C   UNL     1      28.973 -22.735 -15.291  0.00  0.00    +0.023 C 
ATOM      8  C   UNL     1      28.985 -24.615 -16.747  0.00  0.00    +0.119 C 
ATOM      9  C   UNL     1      27.768 -22.339 -15.861  0.00  0.00    +0.022 C 
ATOM     10  C   UNL     1      27.235 -23.131 -16.867  0.00  0.00    +0.099 C 
ENDBRANCH   2   6
ENDBRANCH   1   2
BRANCH   1  11
ATOM     11  C   UNL     1      33.256 -22.701 -15.321  0.00  0.00    +0.122 C 
BRANCH  11  12
ATOM     12  C   UNL     1      34.604 -23.337 -15.126  0.00  0.00    -0.004 C 
ATOM     13  C   UNL     1      35.754 -22.549 -15.132  0.00  0.00    -0.002 C 
ATOM     14  C   UNL     1      34.704 -24.716 -14.941  0.00  0.00    -0.002 C 
ATOM     15  C   UNL     1      37.105 -24.519 -14.768  0.00  0.00    +0.074 C 
ATOM     16  C   UNL     1      37.005 -23.140 -14.952  0.00  0.00    +0.016 C 
ATOM     17  C   UNL     1      35.954 -25.307 -14.761  0.00  0.00    +0.016 C 
BRANCH  15  18
ATOM     18  N   UNL     1      38.345 -25.104 -14.588  0.00  0.00    -0.189 N 
ATOM     19  N   UNL     1      39.409 -24.674 -15.289  0.00  0.00    -0.172 NA
ATOM     20  C   UNL     1      38.628 -26.124 -13.728  0.00  0.00    +0.091 C 
ATOM     21  C   UNL     1      39.969 -26.380 -13.878  0.00  0.00    +0.040 C 
ATOM     22  C   UNL     1      40.398 -25.459 -14.850  0.00  0.00    +0.120 C 
ENDBRANCH  15  18
ENDBRANCH  11  12
ENDBRANCH   1  11
BRANCH   1  23
ATOM     23  C   UNL     1      31.850 -23.058 -17.310  0.00  0.00    +0.123 C 
BRANCH  23  24
ATOM     24  C   UNL     1      33.002 -22.612 -18.166  0.00  0.00    -0.001 C 
ATOM     25  C   UNL     1      32.826 -21.588 -19.096  0.00  0.00    +0.034 C 
ATOM     26  C   UNL     1      34.249 -23.223 -18.030  0.00  0.00    -0.003 C 
ATOM     27  C   UNL     1      33.895 -21.175 -19.890  0.00  0.00    +0.139 C 
ATOM     28  C   UNL     1      35.318 -22.810 -18.825  0.00  0.00    +0.003 C 
ATOM     29  C   UNL     1      35.141 -21.785 -19.755  0.00  0.00    +0.037 C 
BRANCH  27  30
ATOM     30  O   UNL     1      33.721 -20.178 -20.800  0.00  0.00    -0.464 OA
BRANCH  30  31
ATOM     31  C   UNL     1      34.768 -19.973 -21.749  0.00  0.00    +0.314 C 
BRANCH  31  33
ATOM     32  O   UNL     1      36.087 -18.337 -20.530  0.00  0.00    -0.246 OA
ATOM     33  C   UNL     1      35.420 -18.641 -21.508  0.00  0.00    +0.359 C 
BRANCH  33  34
ATOM     34  O   UNL     1      35.166 -17.802 -22.543  0.00  0.00    -0.478 OA
ATOM     35  H   UNL     1      34.669 -17.020 -22.402  0.00  0.00    +0.295 HD
ENDBRANCH  33  34
ENDBRANCH  31  33
ENDBRANCH  30  31
ENDBRANCH  27  30
ENDBRANCH  23  24
ENDBRANCH   1  23
TORSDOF 11
ENDMDL
MODEL 5
REMARK VINA RESULT:      -8.7      2.480      6.588
REMARK  Name = 18376177
REMARK  11 active torsions:
REMARK  status: ('A' for Active; 'I' for Inactive)
REMARK    1  A    between atoms: N_1  and  S_2
REMARK    2  A    between atoms: N_1  and  C_11
REMARK    3  A    between atoms: N_1  and  C_23
REMARK    4  A    between atoms: S_2  and  C_6
REMARK    5  A    between atoms: C_11  and  C_12
REMARK    6  A    between atoms: C_15  and  N_18
REMARK    7  A    between atoms: C_23  and  C_24
REMARK    8  A    between atoms: C_27  and  O_30
REMARK    9  A    between atoms: O_30  and  C_31
REMARK   10  A    between atoms: C_31  and  C_33
REMARK   11  A    between atoms: C_33  and  O_34
REMARK                            x       y       z     vdW  Elec       q    Type
REMARK                         _______ _______ _______ _____ _____    ______ ____
ROOT
ATOM      1  N   UNL     1      36.057 -24.447 -15.777  0.00  0.00    -0.147 NA
ENDROOT
BRANCH   1   2
ATOM      2  S   UNL     1      37.489 -24.970 -14.973  0.00  0.00    +0.065 S 
ATOM      3  O   UNL     1      38.593 -24.102 -15.337  0.00  0.00    -0.153 OA
ATOM      4  O   UNL     1      37.631 -26.407 -15.125  0.00  0.00    -0.153 OA
BRANCH   2   6
ATOM      5  N   UNL     1      36.320 -25.492 -11.145  0.00  0.00    -0.241 NA
ATOM      6  C   UNL     1      37.113 -24.658 -13.271  0.00  0.00    +0.141 C 
ATOM      7  C   UNL     1      37.296 -23.396 -12.717  0.00  0.00    +0.023 C 
ATOM      8  C   UNL     1      36.627 -25.663 -12.450  0.00  0.00    +0.119 C 
ATOM      9  C   UNL     1      36.993 -23.181 -11.377  0.00  0.00    +0.022 C 
ATOM     10  C   UNL     1      36.512 -24.252 -10.640  0.00  0.00    +0.099 C 
ENDBRANCH   2   6
ENDBRANCH   1   2
BRANCH   1  11
ATOM     11  C   UNL     1      35.695 -23.010 -15.686  0.00  0.00    +0.122 C 
BRANCH  11  12
ATOM     12  C   UNL     1      35.710 -22.332 -17.027  0.00  0.00    -0.004 C 
ATOM     13  C   UNL     1      36.846 -21.641 -17.446  0.00  0.00    -0.002 C 
ATOM     14  C   UNL     1      34.587 -22.393 -17.852  0.00  0.00    -0.002 C 
ATOM     15  C   UNL     1      35.737 -21.071 -19.515  0.00  0.00    +0.074 C 
ATOM     16  C   UNL     1      36.860 -21.010 -18.691  0.00  0.00    +0.016 C 
ATOM     17  C   UNL     1      34.600 -21.763 -19.096  0.00  0.00    +0.016 C 
BRANCH  15  18
ATOM     18  N   UNL     1      35.751 -20.447 -20.749  0.00  0.00    -0.189 N 
ATOM     19  N   UNL     1      34.678 -20.510 -21.556  0.00  0.00    -0.172 NA
ATOM     20  C   UNL     1      36.790 -19.732 -21.268  0.00  0.00    +0.091 C 
ATOM     21  C   UNL     1      36.368 -19.297 -22.500  0.00  0.00    +0.040 C 
ATOM     22  C   UNL     1      35.062 -19.805 -22.625  0.00  0.00    +0.120 C 
ENDBRANCH  15  18
ENDBRANCH  11  12
ENDBRANCH   1  11
BRANCH   1  23
ATOM     23  C   UNL     1      34.861 -25.326 -15.706  0.00  0.00    +0.123 C 
BRANCH  23  24
ATOM     24  C   UNL     1      33.654 -24.603 -15.177  0.00  0.00    -0.001 C 
ATOM     25  C   UNL     1      32.622 -24.242 -16.043  0.00  0.00    +0.034 C 
ATOM     26  C   UNL     1      33.566 -24.292 -13.819  0.00  0.00    -0.003 C 
ATOM     27  C   UNL     1      31.502 -23.571 -15.552  0.00  0.00    +0.139 C 
ATOM     28  C   UNL     1      32.447 -23.622 -13.329  0.00  0.00    +0.003 C 
ATOM     29  C   UNL     1      31.414 -23.261 -14.195  0.00  0.00    +0.037 C 
BRANCH  27  30
ATOM     30  O   UNL     1      30.496 -23.217 -16.397  0.00  0.00    -0.464 OA
BRANCH  30  31
ATOM     31  C   UNL     1      29.187 -23.105 -15.839  0.00  0.00    +0.314 C 
BRANCH  31  33
ATOM     32  O   UNL     1      27.838 -24.198 -17.538  0.00  0.00    -0.246 OA
ATOM     33  C   UNL     1      28.159 -23.186 -16.933  0.00  0.00    +0.359 C 
BRANCH  33  34
ATOM     34  O   UNL     1      27.624 -21.961 -17.163  0.00  0.00    -0.478 OA
ATOM     35  H   UNL     1      27.584 -21.329 -16.473  0.00  0.00    +0.295 HD
ENDBRANCH  33  34
ENDBRANCH  31  33
ENDBRANCH  30  31
ENDBRANCH  27  30
ENDBRANCH  23  24
ENDBRANCH   1  23
TORSDOF 11
ENDMDL
