MODEL 1
REMARK VINA RESULT:     -12.0      0.000      0.000
REMARK  Name = 16040294
REMARK  4 active torsions:
REMARK  status: ('A' for Active; 'I' for Inactive)
REMARK    1  A    between atoms: N_6  and  C_21
REMARK    2  A    between atoms: C_7  and  C_30
REMARK    3  A    between atoms: C_24  and  C_27
REMARK    4  A    between atoms: C_27  and  C_29
REMARK                            x       y       z     vdW  Elec       q    Type
REMARK                         _______ _______ _______ _____ _____    ______ ____
ROOT
ATOM      1  N   UNL     1      31.183 -23.725 -16.578  0.00  0.00    -0.239 N 
ATOM      2  N   UNL     1      32.503 -23.680 -16.330  0.00  0.00    -0.166 NA
ATOM      3  N   UNL     1      33.689 -23.492 -14.253  0.00  0.00    -0.271 N 
ATOM      4  N   UNL     1      35.389 -22.981 -15.799  0.00  0.00    -0.312 NA
ATOM      5  N   UNL     1      37.694 -23.478 -15.301  0.00  0.00    -0.332 NA
ATOM      6  N   UNL     1      37.085 -22.476 -17.333  0.00  0.00    -0.238 N 
ATOM      7  C   UNL     1      30.409 -23.650 -15.457  0.00  0.00    +0.045 C 
ATOM      8  C   UNL     1      31.284 -23.549 -14.403  0.00  0.00    +0.048 C 
ATOM      9  C   UNL     1      32.520 -23.576 -15.025  0.00  0.00    +0.152 C 
ATOM     10  C   UNL     1      35.065 -23.495 -14.597  0.00  0.00    +0.201 C 
ATOM     11  C   UNL     1      35.991 -24.015 -13.699  0.00  0.00    +0.072 C 
ATOM     12  C   UNL     1      37.335 -23.984 -14.108  0.00  0.00    +0.131 C 
ATOM     13  C   UNL     1      36.701 -23.004 -16.082  0.00  0.00    +0.204 C 
ATOM     14  C   UNL     1      35.629 -24.546 -12.449  0.00  0.00    +0.006 C 
ATOM     15  C   UNL     1      38.292 -24.495 -13.235  0.00  0.00    +0.086 C 
ATOM     16  C   UNL     1      36.606 -25.050 -11.597  0.00  0.00    -0.004 C 
ATOM     17  C   UNL     1      37.939 -25.025 -11.990  0.00  0.00    -0.019 C 
ATOM     18  H   UNL     1      30.809 -23.805 -17.486  0.00  0.00    +0.174 HD
ATOM     19  H   UNL     1      33.522 -23.418 -13.286  0.00  0.00    +0.156 HD
ATOM     20  H   UNL     1      38.054 -22.515 -17.498  0.00  0.00    +0.166 HD
ENDROOT
BRANCH   6  21
ATOM     21  C   UNL     1      36.353 -21.905 -18.391  0.00  0.00    +0.058 C 
ATOM     22  C   UNL     1      35.001 -22.215 -18.555  0.00  0.00    +0.015 C 
ATOM     23  C   UNL     1      36.975 -21.025 -19.279  0.00  0.00    +0.015 C 
ATOM     24  C   UNL     1      34.900 -20.770 -20.488  0.00  0.00    -0.007 C 
ATOM     25  C   UNL     1      34.276 -21.648 -19.603  0.00  0.00    -0.002 C 
ATOM     26  C   UNL     1      36.250 -20.459 -20.326  0.00  0.00    -0.002 C 
BRANCH  24  27
ATOM     27  C   UNL     1      34.125 -20.165 -21.609  0.00  0.00    +0.132 C 
BRANCH  27  29
ATOM     28  N   UNL     1      35.604 -18.648 -23.174  0.00  0.00    -0.196 NA
ATOM     29  C   UNL     1      34.957 -19.317 -22.482  0.00  0.00    +0.078 C 
ENDBRANCH  27  29
ENDBRANCH  24  27
ENDBRANCH   6  21
BRANCH   7  30
ATOM     30  C   UNL     1      28.887 -23.675 -15.398  0.00  0.00    +0.037 C 
ATOM     31  C   UNL     1      28.101 -23.648 -16.685  0.00  0.00    +0.006 C 
ATOM     32  C   UNL     1      28.116 -22.441 -15.793  0.00  0.00    +0.006 C 
ENDBRANCH   7  30
TORSDOF 4
ENDMDL
MODEL 2
REMARK VINA RESULT:     -11.2      2.048      7.402
REMARK  Name = 16040294
REMARK  4 active torsions:
REMARK  status: ('A' for Active; 'I' for Inactive)
REMARK    1  A    between atoms: N_6  and  C_21
REMARK    2  A    between atoms: C_7  and  C_30
REMARK    3  A    between atoms: C_24  and  C_27
REMARK    4  A    between atoms: C_27  and  C_29
REMARK                            x       y       z     vdW  Elec       q    Type
REMARK                         _______ _______ _______ _____ _____    ______ ____
ROOT
ATOM      1  N   UNL     1      35.159 -22.568 -19.629  0.00  0.00    -0.239 N 
ATOM      2  N   UNL     1      34.468 -23.082 -18.598  0.00  0.00    -0.166 NA
ATOM      3  N   UNL     1      32.372 -22.411 -17.643  0.00  0.00    -0.271 N 
ATOM      4  N   UNL     1      33.213 -23.822 -15.957  0.00  0.00    -0.312 NA
ATOM      5  N   UNL     1      31.716 -25.057 -14.528  0.00  0.00    -0.332 NA
ATOM      6  N   UNL     1      34.042 -25.230 -14.278  0.00  0.00    -0.238 N 
ATOM      7  C   UNL     1      34.558 -21.492 -20.215  0.00  0.00    +0.045 C 
ATOM      8  C   UNL     1      33.392 -21.289 -19.517  0.00  0.00    +0.048 C 
ATOM      9  C   UNL     1      33.424 -22.293 -18.564  0.00  0.00    +0.152 C 
ATOM     10  C   UNL     1      32.130 -23.316 -16.578  0.00  0.00    +0.201 C 
ATOM     11  C   UNL     1      30.819 -23.629 -16.234  0.00  0.00    +0.072 C 
ATOM     12  C   UNL     1      30.658 -24.532 -15.170  0.00  0.00    +0.131 C 
ATOM     13  C   UNL     1      32.936 -24.674 -14.956  0.00  0.00    +0.204 C 
ATOM     14  C   UNL     1      29.705 -23.086 -16.897  0.00  0.00    +0.006 C 
ATOM     15  C   UNL     1      29.359 -24.869 -14.795  0.00  0.00    +0.086 C 
ATOM     16  C   UNL     1      28.419 -23.441 -16.501  0.00  0.00    -0.004 C 
ATOM     17  C   UNL     1      28.246 -24.334 -15.450  0.00  0.00    -0.019 C 
ATOM     18  H   UNL     1      36.021 -22.934 -19.935  0.00  0.00    +0.174 HD
ATOM     19  H   UNL     1      31.666 -21.736 -17.757  0.00  0.00    +0.156 HD
ATOM     20  H   UNL     1      33.793 -25.848 -13.555  0.00  0.00    +0.166 HD
ENDROOT
BRANCH   6  21
ATOM     21  C   UNL     1      35.432 -25.073 -14.435  0.00  0.00    +0.058 C 
ATOM     22  C   UNL     1      36.050 -23.877 -14.061  0.00  0.00    +0.015 C 
ATOM     23  C   UNL     1      36.199 -26.113 -14.965  0.00  0.00    +0.015 C 
ATOM     24  C   UNL     1      38.190 -24.763 -14.746  0.00  0.00    -0.007 C 
ATOM     25  C   UNL     1      37.427 -23.722 -14.217  0.00  0.00    -0.002 C 
ATOM     26  C   UNL     1      37.576 -25.958 -15.120  0.00  0.00    -0.002 C 
BRANCH  24  27
ATOM     27  C   UNL     1      39.663 -24.597 -14.913  0.00  0.00    +0.132 C 
BRANCH  27  29
ATOM     28  N   UNL     1      40.986 -26.854 -14.603  0.00  0.00    -0.196 NA
ATOM     29  C   UNL     1      40.399 -25.862 -14.736  0.00  0.00    +0.078 C 
ENDBRANCH  27  29
ENDBRANCH  24  27
ENDBRANCH   6  21
BRANCH   7  30
ATOM     30  C   UNL     1      35.080 -20.689 -21.399  0.00  0.00    +0.037 C 
ATOM     31  C   UNL     1      36.000 -19.522 -21.146  0.00  0.00    +0.006 C 
ATOM     32  C   UNL     1      34.592 -19.277 -21.602  0.00  0.00    +0.006 C 
ENDBRANCH   7  30
TORSDOF 4
ENDMDL
MODEL 3
REMARK VINA RESULT:     -10.2      1.486      5.851
REMARK  Name = 16040294
REMARK  4 active torsions:
REMARK  status: ('A' for Active; 'I' for Inactive)
REMARK    1  A    between atoms: N_6  and  C_21
REMARK    2  A    between atoms: C_7  and  C_30
REMARK    3  A    between atoms: C_24  and  C_27
REMARK    4  A    between atoms: C_27  and  C_29
REMARK                            x       y       z     vdW  Elec       q    Type
REMARK                         _______ _______ _______ _____ _____    ______ ____
ROOT
ATOM      1  N   UNL     1      37.289 -23.235 -15.249  0.00  0.00    -0.239 N 
ATOM      2  N   UNL     1      35.992 -23.194 -15.597  0.00  0.00    -0.166 NA
ATOM      3  N   UNL     1      34.233 -24.782 -15.225  0.00  0.00    -0.271 N 
ATOM      4  N   UNL     1      33.266 -23.404 -16.869  0.00  0.00    -0.312 NA
ATOM      5  N   UNL     1      30.878 -23.094 -16.965  0.00  0.00    -0.332 NA
ATOM      6  N   UNL     1      32.296 -22.033 -18.503  0.00  0.00    -0.238 N 
ATOM      7  C   UNL     1      37.645 -24.368 -14.577  0.00  0.00    +0.045 C 
ATOM      8  C   UNL     1      36.500 -25.120 -14.480  0.00  0.00    +0.048 C 
ATOM      9  C   UNL     1      35.559 -24.334 -15.121  0.00  0.00    +0.152 C 
ATOM     10  C   UNL     1      33.073 -24.212 -15.810  0.00  0.00    +0.201 C 
ATOM     11  C   UNL     1      31.824 -24.507 -15.274  0.00  0.00    +0.072 C 
ATOM     12  C   UNL     1      30.722 -23.906 -15.905  0.00  0.00    +0.131 C 
ATOM     13  C   UNL     1      32.141 -22.887 -17.390  0.00  0.00    +0.204 C 
ATOM     14  C   UNL     1      31.649 -25.355 -14.166  0.00  0.00    +0.006 C 
ATOM     15  C   UNL     1      29.454 -24.179 -15.397  0.00  0.00    +0.086 C 
ATOM     16  C   UNL     1      30.370 -25.610 -13.680  0.00  0.00    -0.004 C 
ATOM     17  C   UNL     1      29.272 -25.021 -14.296  0.00  0.00    -0.019 C 
ATOM     18  H   UNL     1      37.925 -22.512 -15.459  0.00  0.00    +0.174 HD
ATOM     19  H   UNL     1      34.077 -25.662 -14.813  0.00  0.00    +0.156 HD
ATOM     20  H   UNL     1      31.447 -21.676 -18.849  0.00  0.00    +0.166 HD
ENDROOT
BRANCH   6  21
ATOM     21  C   UNL     1      33.428 -21.590 -19.213  0.00  0.00    +0.058 C 
ATOM     22  C   UNL     1      34.701 -22.040 -18.854  0.00  0.00    +0.015 C 
ATOM     23  C   UNL     1      33.283 -20.701 -20.279  0.00  0.00    +0.015 C 
ATOM     24  C   UNL     1      35.674 -20.714 -20.623  0.00  0.00    -0.007 C 
ATOM     25  C   UNL     1      35.822 -21.602 -19.557  0.00  0.00    -0.002 C 
ATOM     26  C   UNL     1      34.404 -20.263 -20.983  0.00  0.00    -0.002 C 
BRANCH  24  27
ATOM     27  C   UNL     1      36.873 -20.245 -21.375  0.00  0.00    +0.132 C 
BRANCH  27  29
ATOM     28  N   UNL     1      36.531 -17.855 -22.429  0.00  0.00    -0.196 NA
ATOM     29  C   UNL     1      36.686 -18.906 -21.963  0.00  0.00    +0.078 C 
ENDBRANCH  27  29
ENDBRANCH  24  27
ENDBRANCH   6  21
BRANCH   7  30
ATOM     30  C   UNL     1      39.030 -24.716 -14.048  0.00  0.00    +0.037 C 
ATOM     31  C   UNL     1      40.016 -25.399 -14.961  0.00  0.00    +0.006 C 
ATOM     32  C   UNL     1      39.392 -26.163 -13.831  0.00  0.00    +0.006 C 
ENDBRANCH   7  30
TORSDOF 4
ENDMDL
MODEL 4
REMARK VINA RESULT:      -9.8      1.758      6.366
REMARK  Name = 16040294
REMARK  4 active torsions:
REMARK  status: ('A' for Active; 'I' for Inactive)
REMARK    1  A    between atoms: N_6  and  C_21
REMARK    2  A    between atoms: C_7  and  C_30
REMARK    3  A    between atoms: C_24  and  C_27
REMARK    4  A    between atoms: C_27  and  C_29
REMARK                            x       y       z     vdW  Elec       q    Type
REMARK                         _______ _______ _______ _____ _____    ______ ____
ROOT
ATOM      1  N   UNL     1      33.425 -21.447 -18.977  0.00  0.00    -0.239 N 
ATOM      2  N   UNL     1      33.405 -22.056 -17.779  0.00  0.00    -0.166 NA
ATOM      3  N   UNL     1      35.016 -23.498 -16.739  0.00  0.00    -0.271 N 
ATOM      4  N   UNL     1      33.122 -23.884 -15.397  0.00  0.00    -0.312 NA
ATOM      5  N   UNL     1      33.362 -24.491 -13.077  0.00  0.00    -0.332 NA
ATOM      6  N   UNL     1      31.241 -24.269 -14.054  0.00  0.00    -0.238 N 
ATOM      7  C   UNL     1      34.551 -21.702 -19.705  0.00  0.00    +0.045 C 
ATOM      8  C   UNL     1      35.318 -22.536 -18.929  0.00  0.00    +0.048 C 
ATOM      9  C   UNL     1      34.548 -22.692 -17.790  0.00  0.00    +0.152 C 
ATOM     10  C   UNL     1      34.465 -23.840 -15.478  0.00  0.00    +0.201 C 
ATOM     11  C   UNL     1      35.318 -24.106 -14.412  0.00  0.00    +0.072 C 
ATOM     12  C   UNL     1      34.701 -24.438 -13.194  0.00  0.00    +0.131 C 
ATOM     13  C   UNL     1      32.645 -24.211 -14.185  0.00  0.00    +0.204 C 
ATOM     14  C   UNL     1      36.718 -24.054 -14.522  0.00  0.00    +0.006 C 
ATOM     15  C   UNL     1      35.522 -24.712 -12.103  0.00  0.00    +0.086 C 
ATOM     16  C   UNL     1      37.514 -24.333 -13.415  0.00  0.00    -0.004 C 
ATOM     17  C   UNL     1      36.916 -24.662 -12.205  0.00  0.00    -0.019 C 
ATOM     18  H   UNL     1      32.696 -20.870 -19.299  0.00  0.00    +0.174 HD
ATOM     19  H   UNL     1      35.896 -23.903 -16.911  0.00  0.00    +0.156 HD
ATOM     20  H   UNL     1      30.938 -24.511 -13.150  0.00  0.00    +0.166 HD
ENDROOT
BRANCH   6  21
ATOM     21  C   UNL     1      30.191 -24.048 -14.964  0.00  0.00    +0.058 C 
ATOM     22  C   UNL     1      29.598 -22.787 -15.057  0.00  0.00    +0.015 C 
ATOM     23  C   UNL     1      29.738 -25.088 -15.779  0.00  0.00    +0.015 C 
ATOM     24  C   UNL     1      28.108 -23.608 -16.772  0.00  0.00    -0.007 C 
ATOM     25  C   UNL     1      28.557 -22.568 -15.959  0.00  0.00    -0.002 C 
ATOM     26  C   UNL     1      28.698 -24.869 -16.681  0.00  0.00    -0.002 C 
BRANCH  24  27
ATOM     27  C   UNL     1      26.994 -23.374 -17.736  0.00  0.00    +0.132 C 
BRANCH  27  29
ATOM     28  N   UNL     1      26.197 -20.865 -17.787  0.00  0.00    -0.196 NA
ATOM     29  C   UNL     1      26.552 -21.969 -17.761  0.00  0.00    +0.078 C 
ENDBRANCH  27  29
ENDBRANCH  24  27
ENDBRANCH   6  21
BRANCH   7  30
ATOM     30  C   UNL     1      34.878 -21.167 -21.093  0.00  0.00    +0.037 C 
ATOM     31  C   UNL     1      35.733 -19.932 -21.222  0.00  0.00    +0.006 C 
ATOM     32  C   UNL     1      34.268 -19.863 -21.540  0.00  0.00    +0.006 C 
ENDBRANCH   7  30
TORSDOF 4
ENDMDL
