MODEL 1
REMARK VINA RESULT:     -12.7      0.000      0.000
REMARK  Name = 24882195
REMARK  2 active torsions:
REMARK  status: ('A' for Active; 'I' for Inactive)
REMARK    1  A    between atoms: C_5  and  N_15
REMARK    2  A    between atoms: N_15  and  C_21
REMARK                            x       y       z     vdW  Elec       q    Type
REMARK                         _______ _______ _______ _____ _____    ______ ____
ROOT
ATOM      1  C   UNL     1      34.676 -22.836 -17.576  0.00  0.00    +0.001 C 
ATOM      2  C   UNL     1      33.286 -22.710 -17.790  0.00  0.00    +0.000 C 
ATOM      3  C   UNL     1      35.104 -21.424 -19.532  0.00  0.00    +0.000 C 
ATOM      4  C   UNL     1      33.714 -21.297 -19.746  0.00  0.00    +0.000 C 
ATOM      5  C   UNL     1      34.240 -24.239 -15.636  0.00  0.00    +0.049 C 
ATOM      6  C   UNL     1      35.566 -22.191 -18.451  0.00  0.00    +0.000 C 
ATOM      7  C   UNL     1      35.137 -23.604 -16.495  0.00  0.00    +0.015 C 
ATOM      8  C   UNL     1      32.822 -21.943 -18.872  0.00  0.00    +0.000 C 
ATOM      9  C   UNL     1      32.395 -23.355 -16.916  0.00  0.00    +0.001 C 
ATOM     10  C   UNL     1      32.870 -24.115 -15.845  0.00  0.00    +0.015 C 
ATOM     11  C   UNL     1      35.994 -20.779 -20.407  0.00  0.00    +0.000 C 
ATOM     12  C   UNL     1      33.251 -20.530 -20.827  0.00  0.00    +0.000 C 
ATOM     13  C   UNL     1      35.519 -20.020 -21.476  0.00  0.00    +0.000 C 
ATOM     14  C   UNL     1      34.149 -19.895 -21.686  0.00  0.00    +0.000 C 
ENDROOT
BRANCH   5  15
ATOM     15  N   UNL     1      34.721 -25.006 -14.554  0.00  0.00    -0.299 N 
ATOM     16  H   UNL     1      34.055 -25.573 -14.103  0.00  0.00    +0.153 HD
BRANCH  15  21
ATOM     17  N   UNL     1      36.145 -24.774 -12.694  0.00  0.00    -0.106 N 
ATOM     18  N   UNL     1      38.521 -25.126 -12.785  0.00  0.00    -0.340 NA
ATOM     19  N   UNL     1      35.209 -24.432 -11.770  0.00  0.00    -0.139 NA
ATOM     20  N   UNL     1      37.270 -24.496 -10.805  0.00  0.00    -0.145 NA
ATOM     21  C   UNL     1      35.975 -25.065 -14.054  0.00  0.00    +0.138 C 
ATOM     22  C   UNL     1      37.060 -25.382 -14.777  0.00  0.00    +0.061 C 
ATOM     23  C   UNL     1      37.400 -24.808 -12.079  0.00  0.00    +0.174 C 
ATOM     24  C   UNL     1      38.364 -25.395 -14.047  0.00  0.00    +0.125 C 
ATOM     25  C   UNL     1      39.591 -25.749 -14.848  0.00  0.00    +0.068 C 
ATOM     26  C   UNL     1      35.937 -24.280 -10.670  0.00  0.00    +0.230 C 
ENDBRANCH  15  21
ENDBRANCH   5  15
TORSDOF 2
ENDMDL
MODEL 2
REMARK VINA RESULT:     -12.6      1.275      2.239
REMARK  Name = 24882195
REMARK  2 active torsions:
REMARK  status: ('A' for Active; 'I' for Inactive)
REMARK    1  A    between atoms: C_5  and  N_15
REMARK    2  A    between atoms: N_15  and  C_21
REMARK                            x       y       z     vdW  Elec       q    Type
REMARK                         _______ _______ _______ _____ _____    ______ ____
ROOT
ATOM      1  C   UNL     1      34.698 -22.488 -17.991  0.00  0.00    +0.001 C 
ATOM      2  C   UNL     1      33.341 -22.313 -18.341  0.00  0.00    +0.000 C 
ATOM      3  C   UNL     1      35.368 -21.109 -19.903  0.00  0.00    +0.000 C 
ATOM      4  C   UNL     1      34.011 -20.934 -20.253  0.00  0.00    +0.000 C 
ATOM      5  C   UNL     1      34.023 -23.856 -16.095  0.00  0.00    +0.049 C 
ATOM      6  C   UNL     1      35.694 -21.884 -18.777  0.00  0.00    +0.000 C 
ATOM      7  C   UNL     1      35.023 -23.262 -16.866  0.00  0.00    +0.015 C 
ATOM      8  C   UNL     1      33.015 -21.539 -19.467  0.00  0.00    +0.000 C 
ATOM      9  C   UNL     1      32.346 -22.917 -17.555  0.00  0.00    +0.001 C 
ATOM     10  C   UNL     1      32.685 -23.683 -16.439  0.00  0.00    +0.015 C 
ATOM     11  C   UNL     1      36.362 -20.506 -20.690  0.00  0.00    +0.000 C 
ATOM     12  C   UNL     1      33.685 -20.160 -21.379  0.00  0.00    +0.000 C 
ATOM     13  C   UNL     1      36.023 -19.740 -21.805  0.00  0.00    +0.000 C 
ATOM     14  C   UNL     1      34.687 -19.567 -22.149  0.00  0.00    +0.000 C 
ENDROOT
BRANCH   5  15
ATOM     15  N   UNL     1      34.367 -24.630 -14.967  0.00  0.00    -0.299 N 
ATOM     16  H   UNL     1      33.646 -25.191 -14.599  0.00  0.00    +0.153 HD
BRANCH  15  21
ATOM     17  N   UNL     1      36.419 -25.745 -14.679  0.00  0.00    -0.106 N 
ATOM     18  N   UNL     1      38.101 -25.054 -13.107  0.00  0.00    -0.340 NA
ATOM     19  N   UNL     1      36.242 -26.727 -15.603  0.00  0.00    -0.139 NA
ATOM     20  N   UNL     1      38.270 -26.961 -14.596  0.00  0.00    -0.145 NA
ATOM     21  C   UNL     1      35.553 -24.703 -14.325  0.00  0.00    +0.138 C 
ATOM     22  C   UNL     1      35.948 -23.843 -13.374  0.00  0.00    +0.061 C 
ATOM     23  C   UNL     1      37.669 -25.909 -14.076  0.00  0.00    +0.174 C 
ATOM     24  C   UNL     1      37.297 -24.086 -12.778  0.00  0.00    +0.125 C 
ATOM     25  C   UNL     1      37.753 -23.128 -11.707  0.00  0.00    +0.068 C 
ATOM     26  C   UNL     1      37.374 -27.416 -15.507  0.00  0.00    +0.230 C 
ENDBRANCH  15  21
ENDBRANCH   5  15
TORSDOF 2
ENDMDL
MODEL 3
REMARK VINA RESULT:     -12.1      5.760      9.931
REMARK  Name = 24882195
REMARK  2 active torsions:
REMARK  status: ('A' for Active; 'I' for Inactive)
REMARK    1  A    between atoms: C_5  and  N_15
REMARK    2  A    between atoms: N_15  and  C_21
REMARK                            x       y       z     vdW  Elec       q    Type
REMARK                         _______ _______ _______ _____ _____    ______ ____
ROOT
ATOM      1  C   UNL     1      35.388 -21.448 -19.209  0.00  0.00    +0.001 C 
ATOM      2  C   UNL     1      33.996 -21.683 -19.247  0.00  0.00    +0.000 C 
ATOM      3  C   UNL     1      35.567 -22.832 -17.195  0.00  0.00    +0.000 C 
ATOM      4  C   UNL     1      34.175 -23.068 -17.233  0.00  0.00    +0.000 C 
ATOM      5  C   UNL     1      35.200 -20.074 -21.209  0.00  0.00    +0.049 C 
ATOM      6  C   UNL     1      36.155 -22.025 -18.183  0.00  0.00    +0.000 C 
ATOM      7  C   UNL     1      35.975 -20.640 -20.196  0.00  0.00    +0.015 C 
ATOM      8  C   UNL     1      33.407 -22.490 -18.259  0.00  0.00    +0.000 C 
ATOM      9  C   UNL     1      33.229 -21.106 -20.272  0.00  0.00    +0.001 C 
ATOM     10  C   UNL     1      33.828 -20.306 -21.247  0.00  0.00    +0.015 C 
ATOM     11  C   UNL     1      36.333 -23.409 -16.169  0.00  0.00    +0.000 C 
ATOM     12  C   UNL     1      33.587 -23.875 -16.245  0.00  0.00    +0.000 C 
ATOM     13  C   UNL     1      35.734 -24.209 -15.195  0.00  0.00    +0.000 C 
ATOM     14  C   UNL     1      34.363 -24.441 -15.234  0.00  0.00    +0.000 C 
ENDROOT
BRANCH   5  15
ATOM     15  N   UNL     1      35.806 -19.266 -22.193  0.00  0.00    -0.299 N 
ATOM     16  H   UNL     1      36.721 -19.521 -22.452  0.00  0.00    +0.153 HD
BRANCH  15  21
ATOM     17  N   UNL     1      34.722 -18.388 -24.089  0.00  0.00    -0.106 N 
ATOM     18  N   UNL     1      34.165 -16.063 -24.347  0.00  0.00    -0.340 NA
ATOM     19  N   UNL     1      34.591 -19.542 -24.794  0.00  0.00    -0.139 NA
ATOM     20  N   UNL     1      33.700 -17.807 -25.968  0.00  0.00    -0.145 NA
ATOM     21  C   UNL     1      35.298 -18.187 -22.828  0.00  0.00    +0.138 C 
ATOM     22  C   UNL     1      35.311 -16.942 -22.326  0.00  0.00    +0.061 C 
ATOM     23  C   UNL     1      34.167 -17.338 -24.828  0.00  0.00    +0.174 C 
ATOM     24  C   UNL     1      34.700 -15.876 -23.177  0.00  0.00    +0.125 C 
ATOM     25  C   UNL     1      34.710 -14.473 -22.626  0.00  0.00    +0.068 C 
ATOM     26  C   UNL     1      33.977 -19.133 -25.899  0.00  0.00    +0.230 C 
ENDBRANCH  15  21
ENDBRANCH   5  15
TORSDOF 2
ENDMDL
MODEL 4
REMARK VINA RESULT:     -11.8      6.769     10.955
REMARK  Name = 24882195
REMARK  2 active torsions:
REMARK  status: ('A' for Active; 'I' for Inactive)
REMARK    1  A    between atoms: C_5  and  N_15
REMARK    2  A    between atoms: N_15  and  C_21
REMARK                            x       y       z     vdW  Elec       q    Type
REMARK                         _______ _______ _______ _____ _____    ______ ____
ROOT
ATOM      1  C   UNL     1      34.900 -20.193 -20.789  0.00  0.00    +0.001 C 
ATOM      2  C   UNL     1      36.204 -20.434 -20.306  0.00  0.00    +0.000 C 
ATOM      3  C   UNL     1      34.000 -21.776 -19.150  0.00  0.00    +0.000 C 
ATOM      4  C   UNL     1      35.305 -22.018 -18.666  0.00  0.00    +0.000 C 
ATOM      5  C   UNL     1      35.803 -18.622 -22.414  0.00  0.00    +0.049 C 
ATOM      6  C   UNL     1      33.815 -20.868 -20.205  0.00  0.00    +0.000 C 
ATOM      7  C   UNL     1      34.715 -19.285 -21.844  0.00  0.00    +0.015 C 
ATOM      8  C   UNL     1      36.391 -21.343 -19.251  0.00  0.00    +0.000 C 
ATOM      9  C   UNL     1      37.289 -19.759 -20.890  0.00  0.00    +0.001 C 
ATOM     10  C   UNL     1      37.089 -18.859 -21.938  0.00  0.00    +0.015 C 
ATOM     11  C   UNL     1      32.916 -22.452 -18.566  0.00  0.00    +0.000 C 
ATOM     12  C   UNL     1      35.490 -22.926 -17.612  0.00  0.00    +0.000 C 
ATOM     13  C   UNL     1      33.116 -23.351 -17.519  0.00  0.00    +0.000 C 
ATOM     14  C   UNL     1      34.402 -23.588 -17.042  0.00  0.00    +0.000 C 
ENDROOT
BRANCH   5  15
ATOM     15  N   UNL     1      35.599 -17.712 -23.473  0.00  0.00    -0.299 N 
ATOM     16  H   UNL     1      35.988 -17.971 -24.339  0.00  0.00    +0.153 HD
BRANCH  15  21
ATOM     17  N   UNL     1      34.311 -16.123 -24.636  0.00  0.00    -0.106 N 
ATOM     18  N   UNL     1      33.503 -14.084 -23.650  0.00  0.00    -0.340 NA
ATOM     19  N   UNL     1      34.254 -16.756 -25.838  0.00  0.00    -0.139 NA
ATOM     20  N   UNL     1      33.115 -14.787 -25.939  0.00  0.00    -0.145 NA
ATOM     21  C   UNL     1      34.943 -16.531 -23.455  0.00  0.00    +0.138 C 
ATOM     22  C   UNL     1      34.862 -15.731 -22.381  0.00  0.00    +0.061 C 
ATOM     23  C   UNL     1      33.605 -14.920 -24.723  0.00  0.00    +0.174 C 
ATOM     24  C   UNL     1      34.090 -14.463 -22.554  0.00  0.00    +0.125 C 
ATOM     25  C   UNL     1      33.992 -13.554 -21.355  0.00  0.00    +0.068 C 
ATOM     26  C   UNL     1      33.531 -15.915 -26.569  0.00  0.00    +0.230 C 
ENDBRANCH  15  21
ENDBRANCH   5  15
TORSDOF 2
ENDMDL
MODEL 5
REMARK VINA RESULT:     -11.7      2.561      4.810
REMARK  Name = 24882195
REMARK  2 active torsions:
REMARK  status: ('A' for Active; 'I' for Inactive)
REMARK    1  A    between atoms: C_5  and  N_15
REMARK    2  A    between atoms: N_15  and  C_21
REMARK                            x       y       z     vdW  Elec       q    Type
REMARK                         _______ _______ _______ _____ _____    ______ ____
ROOT
ATOM      1  C   UNL     1      34.353 -21.378 -19.862  0.00  0.00    +0.001 C 
ATOM      2  C   UNL     1      35.700 -21.195 -19.479  0.00  0.00    +0.000 C 
ATOM      3  C   UNL     1      34.639 -19.733 -21.655  0.00  0.00    +0.000 C 
ATOM      4  C   UNL     1      35.986 -19.549 -21.272  0.00  0.00    +0.000 C 
ATOM      5  C   UNL     1      34.080 -23.011 -18.078  0.00  0.00    +0.049 C 
ATOM      6  C   UNL     1      33.840 -20.644 -20.944  0.00  0.00    +0.000 C 
ATOM      7  C   UNL     1      33.556 -22.289 -19.151  0.00  0.00    +0.015 C 
ATOM      8  C   UNL     1      36.500 -20.283 -20.189  0.00  0.00    +0.000 C 
ATOM      9  C   UNL     1      36.213 -21.929 -18.397  0.00  0.00    +0.001 C 
ATOM     10  C   UNL     1      35.407 -22.831 -17.701  0.00  0.00    +0.015 C 
ATOM     11  C   UNL     1      34.127 -18.998 -22.736  0.00  0.00    +0.000 C 
ATOM     12  C   UNL     1      36.784 -18.637 -21.983  0.00  0.00    +0.000 C 
ATOM     13  C   UNL     1      34.932 -18.096 -23.432  0.00  0.00    +0.000 C 
ATOM     14  C   UNL     1      36.259 -17.916 -23.055  0.00  0.00    +0.000 C 
ENDROOT
BRANCH   5  15
ATOM     15  N   UNL     1      33.264 -23.923 -17.376  0.00  0.00    -0.299 N 
ATOM     16  H   UNL     1      33.286 -24.853 -17.700  0.00  0.00    +0.153 HD
BRANCH  15  21
ATOM     17  N   UNL     1      32.986 -23.905 -15.039  0.00  0.00    -0.106 N 
ATOM     18  N   UNL     1      30.943 -23.264 -13.946  0.00  0.00    -0.340 NA
ATOM     19  N   UNL     1      34.230 -24.326 -14.688  0.00  0.00    -0.139 NA
ATOM     20  N   UNL     1      32.974 -23.970 -12.823  0.00  0.00    -0.145 NA
ATOM     21  C   UNL     1      32.457 -23.690 -16.318  0.00  0.00    +0.138 C 
ATOM     22  C   UNL     1      31.188 -23.268 -16.418  0.00  0.00    +0.061 C 
ATOM     23  C   UNL     1      32.235 -23.692 -13.879  0.00  0.00    +0.174 C 
ATOM     24  C   UNL     1      30.452 -23.065 -15.133  0.00  0.00    +0.125 C 
ATOM     25  C   UNL     1      29.024 -22.592 -15.231  0.00  0.00    +0.068 C 
ATOM     26  C   UNL     1      34.161 -24.345 -13.362  0.00  0.00    +0.230 C 
ENDBRANCH  15  21
ENDBRANCH   5  15
TORSDOF 2
ENDMDL
MODEL 6
REMARK VINA RESULT:     -11.7      6.299     10.536
REMARK  Name = 24882195
REMARK  2 active torsions:
REMARK  status: ('A' for Active; 'I' for Inactive)
REMARK    1  A    between atoms: C_5  and  N_15
REMARK    2  A    between atoms: N_15  and  C_21
REMARK                            x       y       z     vdW  Elec       q    Type
REMARK                         _______ _______ _______ _____ _____    ______ ____
ROOT
ATOM      1  C   UNL     1      34.892 -20.138 -21.068  0.00  0.00    +0.001 C 
ATOM      2  C   UNL     1      36.195 -20.250 -20.535  0.00  0.00    +0.000 C 
ATOM      3  C   UNL     1      34.060 -21.682 -19.357  0.00  0.00    +0.000 C 
ATOM      4  C   UNL     1      35.364 -21.795 -18.824  0.00  0.00    +0.000 C 
ATOM      5  C   UNL     1      35.728 -18.605 -22.763  0.00  0.00    +0.049 C 
ATOM      6  C   UNL     1      33.842 -20.856 -20.472  0.00  0.00    +0.000 C 
ATOM      7  C   UNL     1      34.675 -19.312 -22.182  0.00  0.00    +0.015 C 
ATOM      8  C   UNL     1      36.415 -21.077 -19.420  0.00  0.00    +0.000 C 
ATOM      9  C   UNL     1      37.245 -19.533 -21.131  0.00  0.00    +0.001 C 
ATOM     10  C   UNL     1      37.013 -18.715 -22.239  0.00  0.00    +0.015 C 
ATOM     11  C   UNL     1      33.011 -22.401 -18.760  0.00  0.00    +0.000 C 
ATOM     12  C   UNL     1      35.582 -22.621 -17.709  0.00  0.00    +0.000 C 
ATOM     13  C   UNL     1      33.244 -23.217 -17.654  0.00  0.00    +0.000 C 
ATOM     14  C   UNL     1      34.528 -23.327 -17.129  0.00  0.00    +0.000 C 
ENDROOT
BRANCH   5  15
ATOM     15  N   UNL     1      35.492 -17.780 -23.882  0.00  0.00    -0.299 N 
ATOM     16  H   UNL     1      35.876 -18.093 -24.733  0.00  0.00    +0.153 HD
BRANCH  15  21
ATOM     17  N   UNL     1      34.698 -15.869 -22.761  0.00  0.00    -0.106 N 
ATOM     18  N   UNL     1      33.421 -14.133 -23.828  0.00  0.00    -0.340 NA
ATOM     19  N   UNL     1      35.187 -16.148 -21.524  0.00  0.00    -0.139 NA
ATOM     20  N   UNL     1      34.064 -14.168 -21.489  0.00  0.00    -0.145 NA
ATOM     21  C   UNL     1      34.810 -16.615 -23.941  0.00  0.00    +0.138 C 
ATOM     22  C   UNL     1      34.238 -16.133 -25.055  0.00  0.00    +0.061 C 
ATOM     23  C   UNL     1      34.014 -14.650 -22.715  0.00  0.00    +0.174 C 
ATOM     24  C   UNL     1      33.526 -14.826 -24.923  0.00  0.00    +0.125 C 
ATOM     25  C   UNL     1      32.877 -14.273 -26.167  0.00  0.00    +0.068 C 
ATOM     26  C   UNL     1      34.779 -15.102 -20.814  0.00  0.00    +0.230 C 
ENDBRANCH  15  21
ENDBRANCH   5  15
TORSDOF 2
ENDMDL
MODEL 7
REMARK VINA RESULT:     -11.6      5.726      9.735
REMARK  Name = 24882195
REMARK  2 active torsions:
REMARK  status: ('A' for Active; 'I' for Inactive)
REMARK    1  A    between atoms: C_5  and  N_15
REMARK    2  A    between atoms: N_15  and  C_21
REMARK                            x       y       z     vdW  Elec       q    Type
REMARK                         _______ _______ _______ _____ _____    ______ ____
ROOT
ATOM      1  C   UNL     1      35.425 -21.098 -19.650  0.00  0.00    +0.001 C 
ATOM      2  C   UNL     1      34.049 -21.413 -19.648  0.00  0.00    +0.000 C 
ATOM      3  C   UNL     1      35.741 -22.465 -17.641  0.00  0.00    +0.000 C 
ATOM      4  C   UNL     1      34.364 -22.781 -17.639  0.00  0.00    +0.000 C 
ATOM      5  C   UNL     1      35.102 -19.742 -21.645  0.00  0.00    +0.049 C 
ATOM      6  C   UNL     1      36.253 -21.628 -18.646  0.00  0.00    +0.000 C 
ATOM      7  C   UNL     1      35.936 -20.260 -20.654  0.00  0.00    +0.015 C 
ATOM      8  C   UNL     1      33.536 -22.251 -18.643  0.00  0.00    +0.000 C 
ATOM      9  C   UNL     1      33.221 -20.883 -20.652  0.00  0.00    +0.001 C 
ATOM     10  C   UNL     1      33.745 -20.053 -21.644  0.00  0.00    +0.015 C 
ATOM     11  C   UNL     1      36.567 -22.995 -16.637  0.00  0.00    +0.000 C 
ATOM     12  C   UNL     1      33.852 -23.618 -16.635  0.00  0.00    +0.000 C 
ATOM     13  C   UNL     1      36.044 -23.825 -15.646  0.00  0.00    +0.000 C 
ATOM     14  C   UNL     1      34.688 -24.136 -15.645  0.00  0.00    +0.000 C 
ENDROOT
BRANCH   5  15
ATOM     15  N   UNL     1      35.632 -18.903 -22.647  0.00  0.00    -0.299 N 
ATOM     16  H   UNL     1      36.493 -19.187 -23.031  0.00  0.00    +0.153 HD
BRANCH  15  21
ATOM     17  N   UNL     1      34.970 -16.675 -22.275  0.00  0.00    -0.106 N 
ATOM     18  N   UNL     1      34.053 -15.255 -23.984  0.00  0.00    -0.340 NA
ATOM     19  N   UNL     1      35.280 -16.595 -20.954  0.00  0.00    -0.139 NA
ATOM     20  N   UNL     1      34.424 -14.613 -21.675  0.00  0.00    -0.145 NA
ATOM     21  C   UNL     1      35.116 -17.760 -23.149  0.00  0.00    +0.138 C 
ATOM     22  C   UNL     1      34.737 -17.602 -24.427  0.00  0.00    +0.061 C 
ATOM     23  C   UNL     1      34.448 -15.448 -22.694  0.00  0.00    +0.174 C 
ATOM     24  C   UNL     1      34.188 -16.262 -24.796  0.00  0.00    +0.125 C 
ATOM     25  C   UNL     1      33.757 -16.071 -26.228  0.00  0.00    +0.068 C 
ATOM     26  C   UNL     1      34.934 -15.348 -20.655  0.00  0.00    +0.230 C 
ENDBRANCH  15  21
ENDBRANCH   5  15
TORSDOF 2
ENDMDL
MODEL 8
REMARK VINA RESULT:     -11.6      5.638      9.724
REMARK  Name = 24882195
REMARK  2 active torsions:
REMARK  status: ('A' for Active; 'I' for Inactive)
REMARK    1  A    between atoms: C_5  and  N_15
REMARK    2  A    between atoms: N_15  and  C_21
REMARK                            x       y       z     vdW  Elec       q    Type
REMARK                         _______ _______ _______ _____ _____    ______ ____
ROOT
ATOM      1  C   UNL     1      34.065 -21.684 -19.245  0.00  0.00    +0.001 C 
ATOM      2  C   UNL     1      35.276 -22.029 -18.606  0.00  0.00    +0.000 C 
ATOM      3  C   UNL     1      32.807 -22.819 -17.476  0.00  0.00    +0.000 C 
ATOM      4  C   UNL     1      34.017 -23.164 -16.835  0.00  0.00    +0.000 C 
ATOM      5  C   UNL     1      35.324 -20.560 -20.999  0.00  0.00    +0.049 C 
ATOM      6  C   UNL     1      32.847 -22.085 -18.672  0.00  0.00    +0.000 C 
ATOM      7  C   UNL     1      34.106 -20.950 -20.442  0.00  0.00    +0.015 C 
ATOM      8  C   UNL     1      35.237 -22.764 -17.408  0.00  0.00    +0.000 C 
ATOM      9  C   UNL     1      36.494 -21.629 -19.179  0.00  0.00    +0.001 C 
ATOM     10  C   UNL     1      36.517 -20.899 -20.368  0.00  0.00    +0.015 C 
ATOM     11  C   UNL     1      31.589 -23.220 -16.902  0.00  0.00    +0.000 C 
ATOM     12  C   UNL     1      33.978 -23.898 -15.639  0.00  0.00    +0.000 C 
ATOM     13  C   UNL     1      31.566 -23.949 -15.713  0.00  0.00    +0.000 C 
ATOM     14  C   UNL     1      32.759 -24.288 -15.083  0.00  0.00    +0.000 C 
ENDROOT
BRANCH   5  15
ATOM     15  N   UNL     1      35.346 -19.822 -22.201  0.00  0.00    -0.299 N 
ATOM     16  H   UNL     1      35.552 -20.337 -23.015  0.00  0.00    +0.153 HD
BRANCH  15  21
ATOM     17  N   UNL     1      34.772 -18.077 -23.671  0.00  0.00    -0.106 N 
ATOM     18  N   UNL     1      34.610 -15.773 -23.004  0.00  0.00    -0.340 NA
ATOM     19  N   UNL     1      34.613 -18.815 -24.802  0.00  0.00    -0.139 NA
ATOM     20  N   UNL     1      34.212 -16.617 -25.243  0.00  0.00    -0.145 NA
ATOM     21  C   UNL     1      35.125 -18.503 -22.384  0.00  0.00    +0.138 C 
ATOM     22  C   UNL     1      35.221 -17.581 -21.414  0.00  0.00    +0.061 C 
ATOM     23  C   UNL     1      34.520 -16.734 -23.966  0.00  0.00    +0.174 C 
ATOM     24  C   UNL     1      34.937 -16.168 -21.809  0.00  0.00    +0.125 C 
ATOM     25  C   UNL     1      35.044 -15.122 -20.729  0.00  0.00    +0.068 C 
ATOM     26  C   UNL     1      34.280 -17.893 -25.699  0.00  0.00    +0.230 C 
ENDBRANCH  15  21
ENDBRANCH   5  15
TORSDOF 2
ENDMDL
MODEL 9
REMARK VINA RESULT:     -11.5      1.436      3.107
REMARK  Name = 24882195
REMARK  2 active torsions:
REMARK  status: ('A' for Active; 'I' for Inactive)
REMARK    1  A    between atoms: C_5  and  N_15
REMARK    2  A    between atoms: N_15  and  C_21
REMARK                            x       y       z     vdW  Elec       q    Type
REMARK                         _______ _______ _______ _____ _____    ______ ____
ROOT
ATOM      1  C   UNL     1      34.976 -22.141 -18.309  0.00  0.00    +0.001 C 
ATOM      2  C   UNL     1      36.335 -21.759 -18.288  0.00  0.00    +0.000 C 
ATOM      3  C   UNL     1      34.639 -20.832 -20.352  0.00  0.00    +0.000 C 
ATOM      4  C   UNL     1      35.998 -20.449 -20.332  0.00  0.00    +0.000 C 
ATOM      5  C   UNL     1      35.321 -23.439 -16.279  0.00  0.00    +0.049 C 
ATOM      6  C   UNL     1      34.146 -21.672 -19.340  0.00  0.00    +0.000 C 
ATOM      7  C   UNL     1      34.484 -22.981 -17.297  0.00  0.00    +0.015 C 
ATOM      8  C   UNL     1      36.829 -20.918 -19.300  0.00  0.00    +0.000 C 
ATOM      9  C   UNL     1      37.165 -22.228 -17.257  0.00  0.00    +0.001 C 
ATOM     10  C   UNL     1      36.661 -23.063 -16.258  0.00  0.00    +0.015 C 
ATOM     11  C   UNL     1      33.810 -20.362 -21.383  0.00  0.00    +0.000 C 
ATOM     12  C   UNL     1      36.491 -19.609 -21.343  0.00  0.00    +0.000 C 
ATOM     13  C   UNL     1      34.314 -19.527 -22.381  0.00  0.00    +0.000 C 
ATOM     14  C   UNL     1      35.653 -19.152 -22.361  0.00  0.00    +0.000 C 
ENDROOT
BRANCH   5  15
ATOM     15  N   UNL     1      34.810 -24.283 -15.270  0.00  0.00    -0.299 N 
ATOM     16  H   UNL     1      33.876 -24.571 -15.387  0.00  0.00    +0.153 HD
BRANCH  15  21
ATOM     17  N   UNL     1      36.378 -25.767 -14.334  0.00  0.00    -0.106 N 
ATOM     18  N   UNL     1      36.865 -25.878 -11.982  0.00  0.00    -0.340 NA
ATOM     19  N   UNL     1      36.779 -26.379 -15.479  0.00  0.00    -0.139 NA
ATOM     20  N   UNL     1      37.897 -27.249 -13.696  0.00  0.00    -0.145 NA
ATOM     21  C   UNL     1      35.432 -24.747 -14.165  0.00  0.00    +0.138 C 
ATOM     22  C   UNL     1      35.200 -24.294 -12.924  0.00  0.00    +0.061 C 
ATOM     23  C   UNL     1      37.078 -26.316 -13.255  0.00  0.00    +0.174 C 
ATOM     24  C   UNL     1      35.987 -24.932 -11.826  0.00  0.00    +0.125 C 
ATOM     25  C   UNL     1      35.735 -24.433 -10.425  0.00  0.00    +0.068 C 
ATOM     26  C   UNL     1      37.681 -27.248 -15.036  0.00  0.00    +0.230 C 
ENDBRANCH  15  21
ENDBRANCH   5  15
TORSDOF 2
ENDMDL
