MODEL 1
REMARK VINA RESULT:     -11.6      0.000      0.000
REMARK  Name = 17754438
REMARK  6 active torsions:
REMARK  status: ('A' for Active; 'I' for Inactive)
REMARK    1  A    between atoms: N_1  and  C_19
REMARK    2  A    between atoms: C_7  and  C_12
REMARK    3  A    between atoms: N_10  and  C_15
REMARK    4  A    between atoms: C_15  and  C_16
REMARK    5  A    between atoms: C_16  and  O_17
REMARK    6  A    between atoms: C_19  and  C_21
REMARK                            x       y       z     vdW  Elec       q    Type
REMARK                         _______ _______ _______ _____ _____    ______ ____
ROOT
ATOM      1  N   UNL     1      35.030 -18.550 -23.780  0.00  0.00    -0.163 N 
ATOM      2  N   UNL     1      34.360 -16.203 -23.668  0.00  0.00    -0.378 NA
ATOM      3  N   UNL     1      34.905 -19.554 -24.671  0.00  0.00    -0.033 NA
ATOM      4  N   UNL     1      33.300 -16.890 -26.275  0.00  0.00    -0.208 NA
ATOM      5  N   UNL     1      34.244 -19.081 -25.727  0.00  0.00    -0.086 NA
ATOM      6  C   UNL     1      34.452 -17.411 -24.243  0.00  0.00    +0.267 C 
ATOM      7  C   UNL     1      33.701 -15.333 -24.468  0.00  0.00    +0.140 C 
ATOM      8  C   UNL     1      33.958 -17.770 -25.483  0.00  0.00    +0.098 C 
ATOM      9  C   UNL     1      33.193 -15.662 -25.717  0.00  0.00    +0.195 C 
ENDROOT
BRANCH   7  12
ATOM     10  N   UNL     1      33.612 -11.827 -23.790  0.00  0.00    -0.208 N 
ATOM     11  N   UNL     1      33.044 -12.207 -22.632  0.00  0.00    -0.176 NA
ATOM     12  C   UNL     1      33.545 -14.005 -23.949  0.00  0.00    +0.064 C 
ATOM     13  C   UNL     1      33.930 -12.866 -24.614  0.00  0.00    +0.088 C 
ATOM     14  C   UNL     1      33.006 -13.538 -22.735  0.00  0.00    +0.121 C 
BRANCH  10  15
ATOM     15  C   UNL     1      33.825 -10.425 -24.057  0.00  0.00    +0.148 C 
BRANCH  15  16
ATOM     16  C   UNL     1      32.662  -9.559 -23.592  0.00  0.00    +0.161 C 
BRANCH  16  17
ATOM     17  O   UNL     1      32.765  -9.330 -22.193  0.00  0.00    -0.380 OA
ATOM     18  H   UNL     1      32.010  -9.739 -21.742  0.00  0.00    +0.211 HD
ENDBRANCH  16  17
ENDBRANCH  15  16
ENDBRANCH  10  15
ENDBRANCH   7  12
BRANCH   1  19
ATOM     19  C   UNL     1      35.720 -18.765 -22.503  0.00  0.00    +0.145 C 
BRANCH  19  21
ATOM     20  N   UNL     1      32.719 -22.108 -19.062  0.00  0.00    -0.244 NA
ATOM     21  C   UNL     1      34.938 -19.648 -21.591  0.00  0.00    -0.000 C 
ATOM     22  C   UNL     1      35.593 -20.452 -20.662  0.00  0.00    -0.001 C 
ATOM     23  C   UNL     1      34.859 -21.286 -19.802  0.00  0.00    +0.017 C 
ATOM     24  C   UNL     1      33.550 -19.676 -21.665  0.00  0.00    -0.001 C 
ATOM     25  C   UNL     1      33.451 -21.319 -19.871  0.00  0.00    +0.081 C 
ATOM     26  C   UNL     1      32.822 -20.505 -20.809  0.00  0.00    +0.019 C 
ATOM     27  C   UNL     1      35.494 -22.105 -18.858  0.00  0.00    +0.003 C 
ATOM     28  C   UNL     1      34.741 -22.919 -18.022  0.00  0.00    +0.021 C 
ATOM     29  C   UNL     1      33.369 -22.882 -18.164  0.00  0.00    +0.099 C 
ENDBRANCH  19  21
ENDBRANCH   1  19
TORSDOF 6
ENDMDL
MODEL 2
REMARK VINA RESULT:     -11.6      4.850     10.760
REMARK  Name = 17754438
REMARK  6 active torsions:
REMARK  status: ('A' for Active; 'I' for Inactive)
REMARK    1  A    between atoms: N_1  and  C_19
REMARK    2  A    between atoms: C_7  and  C_12
REMARK    3  A    between atoms: N_10  and  C_15
REMARK    4  A    between atoms: C_15  and  C_16
REMARK    5  A    between atoms: C_16  and  O_17
REMARK    6  A    between atoms: C_19  and  C_21
REMARK                            x       y       z     vdW  Elec       q    Type
REMARK                         _______ _______ _______ _____ _____    ______ ____
ROOT
ATOM      1  N   UNL     1      34.771 -21.227 -19.958  0.00  0.00    -0.163 N 
ATOM      2  N   UNL     1      35.681 -22.348 -17.987  0.00  0.00    -0.378 NA
ATOM      3  N   UNL     1      33.549 -21.063 -20.504  0.00  0.00    -0.033 NA
ATOM      4  N   UNL     1      32.875 -22.985 -17.658  0.00  0.00    -0.208 NA
ATOM      5  N   UNL     1      32.668 -21.693 -19.728  0.00  0.00    -0.086 NA
ATOM      6  C   UNL     1      34.702 -21.966 -18.819  0.00  0.00    +0.267 C 
ATOM      7  C   UNL     1      35.188 -23.079 -16.961  0.00  0.00    +0.140 C 
ATOM      8  C   UNL     1      33.356 -22.252 -18.691  0.00  0.00    +0.098 C 
ATOM      9  C   UNL     1      33.843 -23.385 -16.803  0.00  0.00    +0.195 C 
ENDROOT
BRANCH   7  12
ATOM     10  N   UNL     1      37.087 -24.706 -14.410  0.00  0.00    -0.208 N 
ATOM     11  N   UNL     1      38.036 -23.813 -14.741  0.00  0.00    -0.176 NA
ATOM     12  C   UNL     1      36.153 -23.543 -16.006  0.00  0.00    +0.064 C 
ATOM     13  C   UNL     1      35.939 -24.586 -15.138  0.00  0.00    +0.088 C 
ATOM     14  C   UNL     1      37.459 -23.105 -15.716  0.00  0.00    +0.121 C 
BRANCH  10  15
ATOM     15  C   UNL     1      37.343 -25.671 -13.368  0.00  0.00    +0.148 C 
BRANCH  15  16
ATOM     16  C   UNL     1      38.786 -26.159 -13.367  0.00  0.00    +0.161 C 
BRANCH  16  17
ATOM     17  O   UNL     1      39.076 -26.798 -14.603  0.00  0.00    -0.380 OA
ATOM     18  H   UNL     1      38.842 -26.208 -15.335  0.00  0.00    +0.211 HD
ENDBRANCH  16  17
ENDBRANCH  15  16
ENDBRANCH  10  15
ENDBRANCH   7  12
BRANCH   1  19
ATOM     19  C   UNL     1      35.958 -20.641 -20.591  0.00  0.00    +0.145 C 
BRANCH  19  21
ATOM     20  N   UNL     1      34.635 -16.295 -23.965  0.00  0.00    -0.244 NA
ATOM     21  C   UNL     1      35.604 -19.502 -21.486  0.00  0.00    -0.000 C 
ATOM     22  C   UNL     1      35.045 -19.743 -22.738  0.00  0.00    -0.001 C 
ATOM     23  C   UNL     1      34.711 -18.672 -23.585  0.00  0.00    +0.017 C 
ATOM     24  C   UNL     1      35.835 -18.195 -21.078  0.00  0.00    -0.001 C 
ATOM     25  C   UNL     1      34.942 -17.343 -23.177  0.00  0.00    +0.081 C 
ATOM     26  C   UNL     1      35.504 -17.131 -21.921  0.00  0.00    +0.019 C 
ATOM     27  C   UNL     1      34.146 -18.887 -24.849  0.00  0.00    +0.003 C 
ATOM     28  C   UNL     1      33.828 -17.809 -25.663  0.00  0.00    +0.021 C 
ATOM     29  C   UNL     1      34.091 -16.544 -25.178  0.00  0.00    +0.099 C 
ENDBRANCH  19  21
ENDBRANCH   1  19
TORSDOF 6
ENDMDL
MODEL 3
REMARK VINA RESULT:     -10.8      5.926     11.909
REMARK  Name = 17754438
REMARK  6 active torsions:
REMARK  status: ('A' for Active; 'I' for Inactive)
REMARK    1  A    between atoms: N_1  and  C_19
REMARK    2  A    between atoms: C_7  and  C_12
REMARK    3  A    between atoms: N_10  and  C_15
REMARK    4  A    between atoms: C_15  and  C_16
REMARK    5  A    between atoms: C_16  and  O_17
REMARK    6  A    between atoms: C_19  and  C_21
REMARK                            x       y       z     vdW  Elec       q    Type
REMARK                         _______ _______ _______ _____ _____    ______ ____
ROOT
ATOM      1  N   UNL     1      33.016 -23.436 -17.412  0.00  0.00    -0.163 N 
ATOM      2  N   UNL     1      34.305 -24.120 -15.452  0.00  0.00    -0.378 NA
ATOM      3  N   UNL     1      31.779 -22.951 -17.639  0.00  0.00    -0.033 NA
ATOM      4  N   UNL     1      31.834 -23.336 -14.161  0.00  0.00    -0.208 NA
ATOM      5  N   UNL     1      31.161 -22.844 -16.463  0.00  0.00    -0.086 NA
ATOM      6  C   UNL     1      33.220 -23.651 -16.086  0.00  0.00    +0.267 C 
ATOM      7  C   UNL     1      34.098 -24.183 -14.117  0.00  0.00    +0.140 C 
ATOM      8  C   UNL     1      32.028 -23.268 -15.500  0.00  0.00    +0.098 C 
ATOM      9  C   UNL     1      32.914 -23.807 -13.498  0.00  0.00    +0.195 C 
ENDROOT
BRANCH   7  12
ATOM     10  N   UNL     1      37.165 -25.462 -12.806  0.00  0.00    -0.208 N 
ATOM     11  N   UNL     1      36.543 -25.352 -11.619  0.00  0.00    -0.176 NA
ATOM     12  C   UNL     1      35.198 -24.674 -13.338  0.00  0.00    +0.064 C 
ATOM     13  C   UNL     1      36.403 -25.069 -13.867  0.00  0.00    +0.088 C 
ATOM     14  C   UNL     1      35.342 -24.869 -11.951  0.00  0.00    +0.121 C 
BRANCH  10  15
ATOM     15  C   UNL     1      38.519 -25.959 -12.861  0.00  0.00    +0.148 C 
BRANCH  15  16
ATOM     16  C   UNL     1      39.014 -26.148 -14.289  0.00  0.00    +0.161 C 
BRANCH  16  17
ATOM     17  O   UNL     1      38.805 -27.495 -14.694  0.00  0.00    -0.380 OA
ATOM     18  H   UNL     1      37.928 -27.788 -14.402  0.00  0.00    +0.211 HD
ENDBRANCH  16  17
ENDBRANCH  15  16
ENDBRANCH  10  15
ENDBRANCH   7  12
BRANCH   1  19
ATOM     19  C   UNL     1      33.946 -23.664 -18.523  0.00  0.00    +0.145 C 
BRANCH  19  21
ATOM     20  N   UNL     1      34.798 -18.946 -21.529  0.00  0.00    -0.244 NA
ATOM     21  C   UNL     1      34.181 -22.423 -19.315  0.00  0.00    -0.000 C 
ATOM     22  C   UNL     1      35.475 -21.946 -19.503  0.00  0.00    -0.001 C 
ATOM     23  C   UNL     1      35.700 -20.776 -20.248  0.00  0.00    +0.017 C 
ATOM     24  C   UNL     1      33.108 -21.733 -19.867  0.00  0.00    -0.001 C 
ATOM     25  C   UNL     1      34.616 -20.071 -20.811  0.00  0.00    +0.081 C 
ATOM     26  C   UNL     1      33.333 -20.570 -20.607  0.00  0.00    +0.019 C 
ATOM     27  C   UNL     1      36.993 -20.275 -20.453  0.00  0.00    +0.003 C 
ATOM     28  C   UNL     1      37.182 -19.116 -21.192  0.00  0.00    +0.021 C 
ATOM     29  C   UNL     1      36.061 -18.496 -21.704  0.00  0.00    +0.099 C 
ENDBRANCH  19  21
ENDBRANCH   1  19
TORSDOF 6
ENDMDL
MODEL 4
REMARK VINA RESULT:     -10.8      4.509     10.603
REMARK  Name = 17754438
REMARK  6 active torsions:
REMARK  status: ('A' for Active; 'I' for Inactive)
REMARK    1  A    between atoms: N_1  and  C_19
REMARK    2  A    between atoms: C_7  and  C_12
REMARK    3  A    between atoms: N_10  and  C_15
REMARK    4  A    between atoms: C_15  and  C_16
REMARK    5  A    between atoms: C_16  and  O_17
REMARK    6  A    between atoms: C_19  and  C_21
REMARK                            x       y       z     vdW  Elec       q    Type
REMARK                         _______ _______ _______ _____ _____    ______ ____
ROOT
ATOM      1  N   UNL     1      34.417 -21.601 -19.573  0.00  0.00    -0.163 N 
ATOM      2  N   UNL     1      35.128 -22.882 -17.617  0.00  0.00    -0.378 NA
ATOM      3  N   UNL     1      33.240 -21.211 -20.103  0.00  0.00    -0.033 NA
ATOM      4  N   UNL     1      32.256 -22.993 -17.256  0.00  0.00    -0.208 NA
ATOM      5  N   UNL     1      32.267 -21.673 -19.318  0.00  0.00    -0.086 NA
ATOM      6  C   UNL     1      34.226 -22.321 -18.436  0.00  0.00    +0.267 C 
ATOM      7  C   UNL     1      34.521 -23.515 -16.588  0.00  0.00    +0.140 C 
ATOM      8  C   UNL     1      32.852 -22.355 -18.292  0.00  0.00    +0.098 C 
ATOM      9  C   UNL     1      33.145 -23.569 -16.414  0.00  0.00    +0.195 C 
ENDROOT
BRANCH   7  12
ATOM     10  N   UNL     1      36.859 -24.440 -14.051  0.00  0.00    -0.208 N 
ATOM     11  N   UNL     1      36.550 -25.696 -14.419  0.00  0.00    -0.176 NA
ATOM     12  C   UNL     1      35.395 -24.154 -15.646  0.00  0.00    +0.064 C 
ATOM     13  C   UNL     1      36.194 -23.480 -14.755  0.00  0.00    +0.088 C 
ATOM     14  C   UNL     1      35.655 -25.514 -15.394  0.00  0.00    +0.121 C 
BRANCH  10  15
ATOM     15  C   UNL     1      37.816 -24.219 -12.993  0.00  0.00    +0.148 C 
BRANCH  15  16
ATOM     16  C   UNL     1      37.422 -23.064 -12.081  0.00  0.00    +0.161 C 
BRANCH  16  17
ATOM     17  O   UNL     1      38.552 -22.235 -11.843  0.00  0.00    -0.380 OA
ATOM     18  H   UNL     1      39.343 -22.786 -11.747  0.00  0.00    +0.211 HD
ENDBRANCH  16  17
ENDBRANCH  15  16
ENDBRANCH  10  15
ENDBRANCH   7  12
BRANCH   1  19
ATOM     19  C   UNL     1      35.684 -21.240 -20.218  0.00  0.00    +0.145 C 
BRANCH  19  21
ATOM     20  N   UNL     1      35.132 -16.740 -23.605  0.00  0.00    -0.244 NA
ATOM     21  C   UNL     1      35.533 -20.060 -21.117  0.00  0.00    -0.000 C 
ATOM     22  C   UNL     1      34.941 -20.205 -22.369  0.00  0.00    -0.001 C 
ATOM     23  C   UNL     1      34.798 -19.095 -23.220  0.00  0.00    +0.017 C 
ATOM     24  C   UNL     1      35.984 -18.810 -20.712  0.00  0.00    -0.001 C 
ATOM     25  C   UNL     1      35.253 -17.823 -22.814  0.00  0.00    +0.081 C 
ATOM     26  C   UNL     1      35.841 -17.707 -21.558  0.00  0.00    +0.019 C 
ATOM     27  C   UNL     1      34.205 -19.212 -24.484  0.00  0.00    +0.003 C 
ATOM     28  C   UNL     1      34.078 -18.098 -25.301  0.00  0.00    +0.021 C 
ATOM     29  C   UNL     1      34.554 -16.896 -24.818  0.00  0.00    +0.099 C 
ENDBRANCH  19  21
ENDBRANCH   1  19
TORSDOF 6
ENDMDL
MODEL 5
REMARK VINA RESULT:     -10.6      5.041     10.287
REMARK  Name = 17754438
REMARK  6 active torsions:
REMARK  status: ('A' for Active; 'I' for Inactive)
REMARK    1  A    between atoms: N_1  and  C_19
REMARK    2  A    between atoms: C_7  and  C_12
REMARK    3  A    between atoms: N_10  and  C_15
REMARK    4  A    between atoms: C_15  and  C_16
REMARK    5  A    between atoms: C_16  and  O_17
REMARK    6  A    between atoms: C_19  and  C_21
REMARK                            x       y       z     vdW  Elec       q    Type
REMARK                         _______ _______ _______ _____ _____    ______ ____
ROOT
ATOM      1  N   UNL     1      34.284 -23.497 -17.323  0.00  0.00    -0.163 N 
ATOM      2  N   UNL     1      31.900 -23.555 -16.788  0.00  0.00    -0.378 NA
ATOM      3  N   UNL     1      35.431 -23.349 -16.631  0.00  0.00    -0.033 NA
ATOM      4  N   UNL     1      32.987 -23.158 -14.133  0.00  0.00    -0.208 NA
ATOM      5  N   UNL     1      35.114 -23.201 -15.344  0.00  0.00    -0.086 NA
ATOM      6  C   UNL     1      33.205 -23.448 -16.498  0.00  0.00    +0.267 C 
ATOM      7  C   UNL     1      31.145 -23.453 -15.670  0.00  0.00    +0.140 C 
ATOM      8  C   UNL     1      33.755 -23.260 -15.244  0.00  0.00    +0.098 C 
ATOM      9  C   UNL     1      31.665 -23.262 -14.398  0.00  0.00    +0.195 C 
ENDROOT
BRANCH   7  12
ATOM     10  N   UNL     1      27.639 -22.992 -16.177  0.00  0.00    -0.208 N 
ATOM     11  N   UNL     1      27.597 -24.335 -16.137  0.00  0.00    -0.176 NA
ATOM     12  C   UNL     1      29.727 -23.553 -15.865  0.00  0.00    +0.064 C 
ATOM     13  C   UNL     1      28.891 -22.474 -16.020  0.00  0.00    +0.088 C 
ATOM     14  C   UNL     1      28.876 -24.672 -15.946  0.00  0.00    +0.121 C 
BRANCH  10  15
ATOM     15  C   UNL     1      26.421 -22.243 -16.377  0.00  0.00    +0.148 C 
BRANCH  15  16
ATOM     16  C   UNL     1      26.240 -21.797 -17.821  0.00  0.00    +0.161 C 
BRANCH  16  17
ATOM     17  O   UNL     1      26.015 -20.394 -17.865  0.00  0.00    -0.380 OA
ATOM     18  H   UNL     1      26.611 -19.951 -17.241  0.00  0.00    +0.211 HD
ENDBRANCH  16  17
ENDBRANCH  15  16
ENDBRANCH  10  15
ENDBRANCH   7  12
BRANCH   1  19
ATOM     19  C   UNL     1      34.307 -23.682 -18.778  0.00  0.00    +0.145 C 
BRANCH  19  21
ATOM     20  N   UNL     1      34.665 -18.745 -21.521  0.00  0.00    -0.244 NA
ATOM     21  C   UNL     1      34.412 -22.383 -19.502  0.00  0.00    -0.000 C 
ATOM     22  C   UNL     1      35.661 -21.834 -19.778  0.00  0.00    -0.001 C 
ATOM     23  C   UNL     1      35.763 -20.608 -20.459  0.00  0.00    +0.017 C 
ATOM     24  C   UNL     1      33.263 -21.711 -19.901  0.00  0.00    -0.001 C 
ATOM     25  C   UNL     1      34.602 -19.921 -20.868  0.00  0.00    +0.081 C 
ATOM     26  C   UNL     1      33.366 -20.493 -20.578  0.00  0.00    +0.019 C 
ATOM     27  C   UNL     1      37.008 -20.034 -20.751  0.00  0.00    +0.003 C 
ATOM     28  C   UNL     1      37.076 -18.822 -21.424  0.00  0.00    +0.021 C 
ATOM     29  C   UNL     1      35.886 -18.225 -21.784  0.00  0.00    +0.099 C 
ENDBRANCH  19  21
ENDBRANCH   1  19
TORSDOF 6
ENDMDL
MODEL 6
REMARK VINA RESULT:     -10.6      1.366      2.077
REMARK  Name = 17754438
REMARK  6 active torsions:
REMARK  status: ('A' for Active; 'I' for Inactive)
REMARK    1  A    between atoms: N_1  and  C_19
REMARK    2  A    between atoms: C_7  and  C_12
REMARK    3  A    between atoms: N_10  and  C_15
REMARK    4  A    between atoms: C_15  and  C_16
REMARK    5  A    between atoms: C_16  and  O_17
REMARK    6  A    between atoms: C_19  and  C_21
REMARK                            x       y       z     vdW  Elec       q    Type
REMARK                         _______ _______ _______ _____ _____    ______ ____
ROOT
ATOM      1  N   UNL     1      35.121 -17.108 -23.355  0.00  0.00    -0.163 N 
ATOM      2  N   UNL     1      34.362 -14.791 -23.525  0.00  0.00    -0.378 NA
ATOM      3  N   UNL     1      35.020 -18.220 -24.110  0.00  0.00    -0.033 NA
ATOM      4  N   UNL     1      33.279 -15.842 -25.998  0.00  0.00    -0.208 NA
ATOM      5  N   UNL     1      34.319 -17.910 -25.201  0.00  0.00    -0.086 NA
ATOM      6  C   UNL     1      34.490 -16.059 -23.945  0.00  0.00    +0.267 C 
ATOM      7  C   UNL     1      33.653 -14.056 -24.412  0.00  0.00    +0.140 C 
ATOM      8  C   UNL     1      33.987 -16.590 -25.117  0.00  0.00    +0.098 C 
ATOM      9  C   UNL     1      33.134 -14.559 -25.597  0.00  0.00    +0.195 C 
ENDROOT
BRANCH   7  12
ATOM     10  N   UNL     1      32.791 -10.894 -22.991  0.00  0.00    -0.208 N 
ATOM     11  N   UNL     1      33.485 -10.395 -24.028  0.00  0.00    -0.176 NA
ATOM     12  C   UNL     1      33.454 -12.679 -24.062  0.00  0.00    +0.064 C 
ATOM     13  C   UNL     1      32.742 -12.257 -22.965  0.00  0.00    +0.088 C 
ATOM     14  C   UNL     1      33.888 -11.490 -24.679  0.00  0.00    +0.121 C 
BRANCH  10  15
ATOM     15  C   UNL     1      32.187  -9.997 -22.036  0.00  0.00    +0.148 C 
BRANCH  15  16
ATOM     16  C   UNL     1      32.741  -8.582 -22.131  0.00  0.00    +0.161 C 
BRANCH  16  17
ATOM     17  O   UNL     1      31.932  -7.808 -23.007  0.00  0.00    -0.380 OA
ATOM     18  H   UNL     1      32.198  -7.973 -23.925  0.00  0.00    +0.211 HD
ENDBRANCH  16  17
ENDBRANCH  15  16
ENDBRANCH  10  15
ENDBRANCH   7  12
BRANCH   1  19
ATOM     19  C   UNL     1      35.844 -17.133 -22.079  0.00  0.00    +0.145 C 
BRANCH  19  21
ATOM     20  N   UNL     1      35.641 -22.223 -19.615  0.00  0.00    -0.244 NA
ATOM     21  C   UNL     1      35.780 -18.475 -21.431  0.00  0.00    -0.000 C 
ATOM     22  C   UNL     1      34.548 -19.058 -21.149  0.00  0.00    -0.001 C 
ATOM     23  C   UNL     1      34.484 -20.322 -20.537  0.00  0.00    +0.017 C 
ATOM     24  C   UNL     1      36.950 -19.149 -21.104  0.00  0.00    -0.001 C 
ATOM     25  C   UNL     1      35.667 -21.012 -20.202  0.00  0.00    +0.081 C 
ATOM     26  C   UNL     1      36.885 -20.405 -20.496  0.00  0.00    +0.019 C 
ATOM     27  C   UNL     1      33.257 -20.932 -20.243  0.00  0.00    +0.003 C 
ATOM     28  C   UNL     1      33.227 -22.181 -19.638  0.00  0.00    +0.021 C 
ATOM     29  C   UNL     1      34.436 -22.778 -19.348  0.00  0.00    +0.099 C 
ENDBRANCH  19  21
ENDBRANCH   1  19
TORSDOF 6
ENDMDL
MODEL 7
REMARK VINA RESULT:     -10.2      2.762      5.574
REMARK  Name = 17754438
REMARK  6 active torsions:
REMARK  status: ('A' for Active; 'I' for Inactive)
REMARK    1  A    between atoms: N_1  and  C_19
REMARK    2  A    between atoms: C_7  and  C_12
REMARK    3  A    between atoms: N_10  and  C_15
REMARK    4  A    between atoms: C_15  and  C_16
REMARK    5  A    between atoms: C_16  and  O_17
REMARK    6  A    between atoms: C_19  and  C_21
REMARK                            x       y       z     vdW  Elec       q    Type
REMARK                         _______ _______ _______ _____ _____    ______ ____
ROOT
ATOM      1  N   UNL     1      35.103 -21.456 -19.727  0.00  0.00    -0.163 N 
ATOM      2  N   UNL     1      34.744 -20.144 -21.758  0.00  0.00    -0.378 NA
ATOM      3  N   UNL     1      36.071 -21.556 -18.795  0.00  0.00    -0.033 NA
ATOM      4  N   UNL     1      37.339 -19.124 -20.969  0.00  0.00    -0.208 NA
ATOM      5  N   UNL     1      37.042 -20.704 -19.122  0.00  0.00    -0.086 NA
ATOM      6  C   UNL     1      35.430 -20.537 -20.674  0.00  0.00    +0.267 C 
ATOM      7  C   UNL     1      35.426 -19.199 -22.446  0.00  0.00    +0.140 C 
ATOM      8  C   UNL     1      36.667 -20.071 -20.270  0.00  0.00    +0.098 C 
ATOM      9  C   UNL     1      36.669 -18.711 -22.069  0.00  0.00    +0.195 C 
ENDROOT
BRANCH   7  12
ATOM     10  N   UNL     1      34.053 -17.336 -25.167  0.00  0.00    -0.208 N 
ATOM     11  N   UNL     1      33.622 -18.537 -25.590  0.00  0.00    -0.176 NA
ATOM     12  C   UNL     1      34.783 -18.706 -23.629  0.00  0.00    +0.064 C 
ATOM     13  C   UNL     1      34.753 -17.382 -23.997  0.00  0.00    +0.088 C 
ATOM     14  C   UNL     1      34.071 -19.369 -24.647  0.00  0.00    +0.121 C 
BRANCH  10  15
ATOM     15  C   UNL     1      33.759 -16.155 -25.943  0.00  0.00    +0.148 C 
BRANCH  15  16
ATOM     16  C   UNL     1      33.351 -14.972 -25.074  0.00  0.00    +0.161 C 
BRANCH  16  17
ATOM     17  O   UNL     1      32.580 -14.057 -25.842  0.00  0.00    -0.380 OA
ATOM     18  H   UNL     1      33.171 -13.509 -26.381  0.00  0.00    +0.211 HD
ENDBRANCH  16  17
ENDBRANCH  15  16
ENDBRANCH  10  15
ENDBRANCH   7  12
BRANCH   1  19
ATOM     19  C   UNL     1      33.891 -22.277 -19.639  0.00  0.00    +0.145 C 
BRANCH  19  21
ATOM     20  N   UNL     1      32.983 -24.073 -14.349  0.00  0.00    -0.244 NA
ATOM     21  C   UNL     1      33.641 -22.750 -18.246  0.00  0.00    -0.000 C 
ATOM     22  C   UNL     1      32.349 -22.754 -17.729  0.00  0.00    -0.001 C 
ATOM     23  C   UNL     1      32.110 -23.198 -16.417  0.00  0.00    +0.017 C 
ATOM     24  C   UNL     1      34.698 -23.186 -17.457  0.00  0.00    -0.001 C 
ATOM     25  C   UNL     1      33.178 -23.643 -15.610  0.00  0.00    +0.081 C 
ATOM     26  C   UNL     1      34.460 -23.627 -16.153  0.00  0.00    +0.019 C 
ATOM     27  C   UNL     1      30.819 -23.214 -15.873  0.00  0.00    +0.003 C 
ATOM     28  C   UNL     1      30.616 -23.657 -14.573  0.00  0.00    +0.021 C 
ATOM     29  C   UNL     1      31.722 -24.073 -13.861  0.00  0.00    +0.099 C 
ENDBRANCH  19  21
ENDBRANCH   1  19
TORSDOF 6
ENDMDL
MODEL 8
REMARK VINA RESULT:     -10.1      3.882      6.997
REMARK  Name = 17754438
REMARK  6 active torsions:
REMARK  status: ('A' for Active; 'I' for Inactive)
REMARK    1  A    between atoms: N_1  and  C_19
REMARK    2  A    between atoms: C_7  and  C_12
REMARK    3  A    between atoms: N_10  and  C_15
REMARK    4  A    between atoms: C_15  and  C_16
REMARK    5  A    between atoms: C_16  and  O_17
REMARK    6  A    between atoms: C_19  and  C_21
REMARK                            x       y       z     vdW  Elec       q    Type
REMARK                         _______ _______ _______ _____ _____    ______ ____
ROOT
ATOM      1  N   UNL     1      35.402 -22.252 -18.151  0.00  0.00    -0.163 N 
ATOM      2  N   UNL     1      35.300 -20.583 -19.932  0.00  0.00    -0.378 NA
ATOM      3  N   UNL     1      34.564 -23.175 -17.637  0.00  0.00    -0.033 NA
ATOM      4  N   UNL     1      32.640 -21.706 -20.164  0.00  0.00    -0.208 NA
ATOM      5  N   UNL     1      33.416 -23.105 -18.310  0.00  0.00    -0.086 NA
ATOM      6  C   UNL     1      34.811 -21.569 -19.167  0.00  0.00    +0.267 C 
ATOM      7  C   UNL     1      34.383 -20.172 -20.838  0.00  0.00    +0.140 C 
ATOM      8  C   UNL     1      33.549 -22.127 -19.252  0.00  0.00    +0.098 C 
ATOM      9  C   UNL     1      33.108 -20.710 -20.949  0.00  0.00    +0.195 C 
ENDROOT
BRANCH   7  12
ATOM     10  N   UNL     1      35.078 -17.910 -23.514  0.00  0.00    -0.208 N 
ATOM     11  N   UNL     1      35.732 -17.212 -22.569  0.00  0.00    -0.176 NA
ATOM     12  C   UNL     1      34.801 -19.114 -21.713  0.00  0.00    +0.064 C 
ATOM     13  C   UNL     1      34.503 -19.058 -23.052  0.00  0.00    +0.088 C 
ATOM     14  C   UNL     1      35.559 -17.953 -21.471  0.00  0.00    +0.121 C 
BRANCH  10  15
ATOM     15  C   UNL     1      35.035 -17.415 -24.869  0.00  0.00    +0.148 C 
BRANCH  15  16
ATOM     16  C   UNL     1      33.903 -16.422 -25.093  0.00  0.00    +0.161 C 
BRANCH  16  17
ATOM     17  O   UNL     1      33.284 -16.675 -26.347  0.00  0.00    -0.380 OA
ATOM     18  H   UNL     1      33.719 -16.148 -27.035  0.00  0.00    +0.211 HD
ENDBRANCH  16  17
ENDBRANCH  15  16
ENDBRANCH  10  15
ENDBRANCH   7  12
BRANCH   1  19
ATOM     19  C   UNL     1      36.756 -22.088 -17.612  0.00  0.00    +0.145 C 
BRANCH  19  21
ATOM     20  N   UNL     1      37.352 -24.729 -12.643  0.00  0.00    -0.244 NA
ATOM     21  C   UNL     1      36.922 -22.788 -16.306  0.00  0.00    -0.000 C 
ATOM     22  C   UNL     1      37.985 -23.666 -16.112  0.00  0.00    -0.001 C 
ATOM     23  C   UNL     1      38.144 -24.328 -14.882  0.00  0.00    +0.017 C 
ATOM     24  C   UNL     1      36.016 -22.569 -15.275  0.00  0.00    -0.001 C 
ATOM     25  C   UNL     1      37.228 -24.110 -13.832  0.00  0.00    +0.081 C 
ATOM     26  C   UNL     1      36.175 -23.227 -14.054  0.00  0.00    +0.019 C 
ATOM     27  C   UNL     1      39.205 -25.216 -14.661  0.00  0.00    +0.003 C 
ATOM     28  C   UNL     1      39.335 -25.856 -13.436  0.00  0.00    +0.021 C 
ATOM     29  C   UNL     1      38.390 -25.579 -12.469  0.00  0.00    +0.099 C 
ENDBRANCH  19  21
ENDBRANCH   1  19
TORSDOF 6
ENDMDL
MODEL 9
REMARK VINA RESULT:     -10.0      2.592      5.118
REMARK  Name = 17754438
REMARK  6 active torsions:
REMARK  status: ('A' for Active; 'I' for Inactive)
REMARK    1  A    between atoms: N_1  and  C_19
REMARK    2  A    between atoms: C_7  and  C_12
REMARK    3  A    between atoms: N_10  and  C_15
REMARK    4  A    between atoms: C_15  and  C_16
REMARK    5  A    between atoms: C_16  and  O_17
REMARK    6  A    between atoms: C_19  and  C_21
REMARK                            x       y       z     vdW  Elec       q    Type
REMARK                         _______ _______ _______ _____ _____    ______ ____
ROOT
ATOM      1  N   UNL     1      35.001 -21.203 -19.947  0.00  0.00    -0.163 N 
ATOM      2  N   UNL     1      34.638 -19.860 -21.956  0.00  0.00    -0.378 NA
ATOM      3  N   UNL     1      35.995 -21.359 -19.050  0.00  0.00    -0.033 NA
ATOM      4  N   UNL     1      37.308 -18.980 -21.256  0.00  0.00    -0.208 NA
ATOM      5  N   UNL     1      36.996 -20.555 -19.408  0.00  0.00    -0.086 NA
ATOM      6  C   UNL     1      35.341 -20.295 -20.900  0.00  0.00    +0.267 C 
ATOM      7  C   UNL     1      35.342 -18.947 -22.664  0.00  0.00    +0.140 C 
ATOM      8  C   UNL     1      36.613 -19.896 -20.538  0.00  0.00    +0.098 C 
ATOM      9  C   UNL     1      36.621 -18.525 -22.328  0.00  0.00    +0.195 C 
ENDROOT
BRANCH   7  12
ATOM     10  N   UNL     1      33.883 -16.986 -25.269  0.00  0.00    -0.208 N 
ATOM     11  N   UNL     1      33.544 -18.179 -25.787  0.00  0.00    -0.176 NA
ATOM     12  C   UNL     1      34.684 -18.413 -23.821  0.00  0.00    +0.064 C 
ATOM     13  C   UNL     1      34.567 -17.071 -24.092  0.00  0.00    +0.088 C 
ATOM     14  C   UNL     1      34.035 -19.047 -24.898  0.00  0.00    +0.121 C 
BRANCH  10  15
ATOM     15  C   UNL     1      33.520 -15.774 -25.963  0.00  0.00    +0.148 C 
BRANCH  15  16
ATOM     16  C   UNL     1      33.255 -14.614 -25.013  0.00  0.00    +0.161 C 
BRANCH  16  17
ATOM     17  O   UNL     1      33.310 -13.387 -25.729  0.00  0.00    -0.380 OA
ATOM     18  H   UNL     1      32.766 -13.454 -26.528  0.00  0.00    +0.211 HD
ENDBRANCH  16  17
ENDBRANCH  15  16
ENDBRANCH  10  15
ENDBRANCH   7  12
BRANCH   1  19
ATOM     19  C   UNL     1      33.752 -21.962 -19.819  0.00  0.00    +0.145 C 
BRANCH  19  21
ATOM     20  N   UNL     1      33.011 -23.999 -14.592  0.00  0.00    -0.244 NA
ATOM     21  C   UNL     1      33.567 -22.498 -18.440  0.00  0.00    -0.000 C 
ATOM     22  C   UNL     1      34.672 -22.866 -17.678  0.00  0.00    -0.001 C 
ATOM     23  C   UNL     1      34.501 -23.373 -16.378  0.00  0.00    +0.017 C 
ATOM     24  C   UNL     1      32.290 -22.637 -17.910  0.00  0.00    -0.001 C 
ATOM     25  C   UNL     1      33.209 -23.516 -15.833  0.00  0.00    +0.081 C 
ATOM     26  C   UNL     1      32.121 -23.141 -16.618  0.00  0.00    +0.019 C 
ATOM     27  C   UNL     1      35.596 -23.749 -15.589  0.00  0.00    +0.003 C 
ATOM     28  C   UNL     1      35.395 -24.247 -14.309  0.00  0.00    +0.021 C 
ATOM     29  C   UNL     1      34.094 -24.351 -13.862  0.00  0.00    +0.099 C 
ENDBRANCH  19  21
ENDBRANCH   1  19
TORSDOF 6
ENDMDL
