MODEL 1
REMARK VINA RESULT:     -10.3      0.000      0.000
REMARK  Name = 46207586
REMARK  7 active torsions:
REMARK  status: ('A' for Active; 'I' for Inactive)
REMARK    1  A    between atoms: C_6  and  C_13
REMARK    2  A    between atoms: C_7  and  C_34
REMARK    3  A    between atoms: C_16  and  N_20
REMARK    4  A    between atoms: N_21  and  C_26
REMARK    5  A    between atoms: N_32  and  C_37
REMARK    6  A    between atoms: C_37  and  C_38
REMARK    7  A    between atoms: C_38  and  O_39
REMARK                            x       y       z     vdW  Elec       q    Type
REMARK                         _______ _______ _______ _____ _____    ______ ____
ROOT
ATOM      1  S   UNL     1      34.950 -15.921 -20.474  0.00  0.00    -0.086 S 
ATOM      2  N   UNL     1      34.480 -16.892 -24.822  0.00  0.00    -0.230 NA
ATOM      3  N   UNL     1      33.693 -14.692 -25.182  0.00  0.00    -0.343 N 
ATOM      4  C   UNL     1      34.336 -15.413 -22.934  0.00  0.00    +0.038 C 
ATOM      5  C   UNL     1      34.822 -16.435 -22.114  0.00  0.00    +0.034 C 
ATOM      6  C   UNL     1      34.080 -14.220 -22.177  0.00  0.00    +0.010 C 
ATOM      7  C   UNL     1      35.142 -17.695 -22.636  0.00  0.00    +0.028 C 
ATOM      8  C   UNL     1      34.176 -15.681 -24.302  0.00  0.00    +0.126 C 
ATOM      9  C   UNL     1      34.370 -14.361 -20.841  0.00  0.00    +0.036 C 
ATOM     10  C   UNL     1      34.945 -17.849 -23.997  0.00  0.00    +0.101 C 
ATOM     11  H   UNL     1      33.585 -14.894 -26.140  0.00  0.00    +0.144 HD
ATOM     12  H   UNL     1      33.461 -13.799 -24.839  0.00  0.00    +0.144 HD
ENDROOT
BRANCH   6  13
ATOM     13  C   UNL     1      33.578 -12.954 -22.651  0.00  0.00    +0.001 C 
ATOM     14  C   UNL     1      34.224 -12.294 -23.696  0.00  0.00    +0.001 C 
ATOM     15  C   UNL     1      32.446 -12.389 -22.064  0.00  0.00    +0.001 C 
ATOM     16  C   UNL     1      32.605 -10.505 -23.567  0.00  0.00    +0.052 C 
ATOM     17  C   UNL     1      33.738 -11.069 -24.155  0.00  0.00    +0.015 C 
ATOM     18  C   UNL     1      31.959 -11.164 -22.522  0.00  0.00    +0.015 C 
BRANCH  16  20
ATOM     19  O   UNL     1      33.130  -7.732 -22.588  0.00  0.00    -0.252 OA
ATOM     20  N   UNL     1      32.118  -9.280 -24.026  0.00  0.00    -0.268 N 
ATOM     21  N   UNL     1      31.690  -7.026 -24.289  0.00  0.00    -0.268 N 
ATOM     22  C   UNL     1      32.390  -7.980 -23.534  0.00  0.00    +0.308 C 
ATOM     23  H   UNL     1      31.503  -9.326 -24.793  0.00  0.00    +0.156 HD
ATOM     24  H   UNL     1      31.133  -7.378 -25.021  0.00  0.00    +0.156 HD
BRANCH  21  26
ATOM     25  F   UNL     1      30.220  -3.093 -21.959  0.00  0.00    -0.204 F 
ATOM     26  C   UNL     1      31.685  -5.620 -24.128  0.00  0.00    +0.054 C 
ATOM     27  C   UNL     1      30.940  -5.039 -23.102  0.00  0.00    +0.044 C 
ATOM     28  C   UNL     1      32.424  -4.816 -24.996  0.00  0.00    +0.015 C 
ATOM     29  C   UNL     1      30.934  -3.653 -22.943  0.00  0.00    +0.141 C 
ATOM     30  C   UNL     1      32.418  -3.431 -24.838  0.00  0.00    +0.004 C 
ATOM     31  C   UNL     1      31.673  -2.849 -23.812  0.00  0.00    +0.030 C 
ENDBRANCH  21  26
ENDBRANCH  16  20
ENDBRANCH   6  13
BRANCH   7  34
ATOM     32  N   UNL     1      35.707 -20.551 -20.573  0.00  0.00    -0.208 N 
ATOM     33  N   UNL     1      36.986 -20.138 -20.592  0.00  0.00    -0.176 NA
ATOM     34  C   UNL     1      35.641 -18.753 -21.812  0.00  0.00    +0.039 C 
ATOM     35  C   UNL     1      34.861 -19.756 -21.288  0.00  0.00    +0.086 C 
ATOM     36  C   UNL     1      36.939 -19.040 -21.350  0.00  0.00    +0.119 C 
BRANCH  32  37
ATOM     37  C   UNL     1      35.349 -21.739 -19.836  0.00  0.00    +0.148 C 
BRANCH  37  38
ATOM     38  C   UNL     1      33.866 -21.780 -19.486  0.00  0.00    +0.161 C 
BRANCH  38  39
ATOM     39  O   UNL     1      33.412 -23.127 -19.477  0.00  0.00    -0.380 OA
ATOM     40  H   UNL     1      32.475 -23.154 -19.726  0.00  0.00    +0.211 HD
ENDBRANCH  38  39
ENDBRANCH  37  38
ENDBRANCH  32  37
ENDBRANCH   7  34
TORSDOF 7
ENDMDL
MODEL 2
REMARK VINA RESULT:      -9.7      4.147     12.615
REMARK  Name = 46207586
REMARK  7 active torsions:
REMARK  status: ('A' for Active; 'I' for Inactive)
REMARK    1  A    between atoms: C_6  and  C_13
REMARK    2  A    between atoms: C_7  and  C_34
REMARK    3  A    between atoms: C_16  and  N_20
REMARK    4  A    between atoms: N_21  and  C_26
REMARK    5  A    between atoms: N_32  and  C_37
REMARK    6  A    between atoms: C_37  and  C_38
REMARK    7  A    between atoms: C_38  and  O_39
REMARK                            x       y       z     vdW  Elec       q    Type
REMARK                         _______ _______ _______ _____ _____    ______ ____
ROOT
ATOM      1  S   UNL     1      34.287  -9.282 -24.735  0.00  0.00    -0.086 S 
ATOM      2  N   UNL     1      31.087 -10.016 -21.686  0.00  0.00    -0.230 NA
ATOM      3  N   UNL     1      31.735 -12.289 -21.620  0.00  0.00    -0.343 N 
ATOM      4  C   UNL     1      32.899 -10.724 -23.097  0.00  0.00    +0.038 C 
ATOM      5  C   UNL     1      33.021  -9.415 -23.573  0.00  0.00    +0.034 C 
ATOM      6  C   UNL     1      33.865 -11.590 -23.712  0.00  0.00    +0.010 C 
ATOM      7  C   UNL     1      32.180  -8.394 -23.113  0.00  0.00    +0.028 C 
ATOM      8  C   UNL     1      31.908 -10.991 -22.141  0.00  0.00    +0.126 C 
ATOM      9  C   UNL     1      34.673 -10.937 -24.612  0.00  0.00    +0.036 C 
ATOM     10  C   UNL     1      31.238  -8.769 -22.171  0.00  0.00    +0.101 C 
ATOM     11  H   UNL     1      31.034 -12.462 -20.950  0.00  0.00    +0.144 HD
ATOM     12  H   UNL     1      32.314 -13.024 -21.927  0.00  0.00    +0.144 HD
ENDROOT
BRANCH   6  13
ATOM     13  C   UNL     1      34.065 -13.001 -23.491  0.00  0.00    +0.001 C 
ATOM     14  C   UNL     1      33.744 -13.917 -24.493  0.00  0.00    +0.001 C 
ATOM     15  C   UNL     1      34.581 -13.450 -22.276  0.00  0.00    +0.001 C 
ATOM     16  C   UNL     1      34.454 -15.730 -23.064  0.00  0.00    +0.052 C 
ATOM     17  C   UNL     1      33.938 -15.282 -24.280  0.00  0.00    +0.015 C 
ATOM     18  C   UNL     1      34.776 -14.815 -22.061  0.00  0.00    +0.015 C 
BRANCH  16  20
ATOM     19  O   UNL     1      34.947 -17.234 -20.531  0.00  0.00    -0.252 OA
ATOM     20  N   UNL     1      34.650 -17.095 -22.850  0.00  0.00    -0.268 N 
ATOM     21  N   UNL     1      35.024 -19.151 -21.867  0.00  0.00    -0.268 N 
ATOM     22  C   UNL     1      34.882 -17.775 -21.630  0.00  0.00    +0.308 C 
ATOM     23  H   UNL     1      34.623 -17.661 -23.656  0.00  0.00    +0.156 HD
ATOM     24  H   UNL     1      34.947 -19.438 -22.806  0.00  0.00    +0.156 HD
BRANCH  21  26
ATOM     25  F   UNL     1      33.417 -22.643 -18.990  0.00  0.00    -0.204 F 
ATOM     26  C   UNL     1      35.266 -20.178 -20.924  0.00  0.00    +0.054 C 
ATOM     27  C   UNL     1      34.201 -20.919 -20.413  0.00  0.00    +0.044 C 
ATOM     28  C   UNL     1      36.569 -20.447 -20.504  0.00  0.00    +0.015 C 
ATOM     29  C   UNL     1      34.438 -21.931 -19.481  0.00  0.00    +0.141 C 
ATOM     30  C   UNL     1      36.807 -21.458 -19.573  0.00  0.00    +0.004 C 
ATOM     31  C   UNL     1      35.741 -22.200 -19.062  0.00  0.00    +0.030 C 
ENDBRANCH  21  26
ENDBRANCH  16  20
ENDBRANCH   6  13
BRANCH   7  34
ATOM     32  N   UNL     1      31.758  -5.006 -24.150  0.00  0.00    -0.208 N 
ATOM     33  N   UNL     1      33.072  -5.072 -24.425  0.00  0.00    -0.176 NA
ATOM     34  C   UNL     1      32.290  -7.048 -23.587  0.00  0.00    +0.039 C 
ATOM     35  C   UNL     1      31.241  -6.163 -23.647  0.00  0.00    +0.086 C 
ATOM     36  C   UNL     1      33.391  -6.322 -24.079  0.00  0.00    +0.119 C 
BRANCH  32  37
ATOM     37  C   UNL     1      31.036  -3.781 -24.397  0.00  0.00    +0.148 C 
BRANCH  37  38
ATOM     38  C   UNL     1      31.217  -2.764 -23.275  0.00  0.00    +0.161 C 
BRANCH  38  39
ATOM     39  O   UNL     1      30.370  -3.100 -22.183  0.00  0.00    -0.380 OA
ATOM     40  H   UNL     1      29.749  -2.372 -22.019  0.00  0.00    +0.211 HD
ENDBRANCH  38  39
ENDBRANCH  37  38
ENDBRANCH  32  37
ENDBRANCH   7  34
TORSDOF 7
ENDMDL
MODEL 3
REMARK VINA RESULT:      -9.3      4.336     12.815
REMARK  Name = 46207586
REMARK  7 active torsions:
REMARK  status: ('A' for Active; 'I' for Inactive)
REMARK    1  A    between atoms: C_6  and  C_13
REMARK    2  A    between atoms: C_7  and  C_34
REMARK    3  A    between atoms: C_16  and  N_20
REMARK    4  A    between atoms: N_21  and  C_26
REMARK    5  A    between atoms: N_32  and  C_37
REMARK    6  A    between atoms: C_37  and  C_38
REMARK    7  A    between atoms: C_38  and  O_39
REMARK                            x       y       z     vdW  Elec       q    Type
REMARK                         _______ _______ _______ _____ _____    ______ ____
ROOT
ATOM      1  S   UNL     1      30.789  -8.103 -22.611  0.00  0.00    -0.086 S 
ATOM      2  N   UNL     1      34.934  -7.383 -24.151  0.00  0.00    -0.230 NA
ATOM      3  N   UNL     1      35.324  -9.713 -24.062  0.00  0.00    -0.343 N 
ATOM      4  C   UNL     1      33.157  -8.804 -23.381  0.00  0.00    +0.038 C 
ATOM      5  C   UNL     1      32.350  -7.676 -23.207  0.00  0.00    +0.034 C 
ATOM      6  C   UNL     1      32.457 -10.002 -23.015  0.00  0.00    +0.010 C 
ATOM      7  C   UNL     1      32.824  -6.391 -23.501  0.00  0.00    +0.028 C 
ATOM      8  C   UNL     1      34.461  -8.616 -23.862  0.00  0.00    +0.126 C 
ATOM      9  C   UNL     1      31.174  -9.763 -22.585  0.00  0.00    +0.036 C 
ATOM     10  C   UNL     1      34.124  -6.322 -23.968  0.00  0.00    +0.101 C 
ATOM     11  H   UNL     1      36.238  -9.566 -24.400  0.00  0.00    +0.144 HD
ATOM     12  H   UNL     1      35.014 -10.625 -23.863  0.00  0.00    +0.144 HD
ENDROOT
BRANCH   6  13
ATOM     13  C   UNL     1      32.937 -11.362 -23.052  0.00  0.00    +0.001 C 
ATOM     14  C   UNL     1      32.713 -12.211 -21.969  0.00  0.00    +0.001 C 
ATOM     15  C   UNL     1      33.625 -11.827 -24.173  0.00  0.00    +0.001 C 
ATOM     16  C   UNL     1      33.865 -13.991 -23.127  0.00  0.00    +0.052 C 
ATOM     17  C   UNL     1      33.177 -13.527 -22.006  0.00  0.00    +0.015 C 
ATOM     18  C   UNL     1      34.089 -13.143 -24.210  0.00  0.00    +0.015 C 
BRANCH  16  20
ATOM     19  O   UNL     1      34.761 -15.784 -20.912  0.00  0.00    -0.252 OA
ATOM     20  N   UNL     1      34.328 -15.307 -23.164  0.00  0.00    -0.268 N 
ATOM     21  N   UNL     1      35.137 -17.387 -22.571  0.00  0.00    -0.268 N 
ATOM     22  C   UNL     1      34.746 -16.129 -22.089  0.00  0.00    +0.308 C 
ATOM     23  H   UNL     1      34.371 -15.719 -24.058  0.00  0.00    +0.156 HD
ATOM     24  H   UNL     1      35.070 -17.518 -23.545  0.00  0.00    +0.156 HD
BRANCH  21  26
ATOM     25  F   UNL     1      34.334 -21.436 -20.117  0.00  0.00    -0.204 F 
ATOM     26  C   UNL     1      35.617 -18.494 -21.830  0.00  0.00    +0.054 C 
ATOM     27  C   UNL     1      34.721 -19.438 -21.329  0.00  0.00    +0.044 C 
ATOM     28  C   UNL     1      36.985 -18.639 -21.600  0.00  0.00    +0.015 C 
ATOM     29  C   UNL     1      35.193 -20.528 -20.598  0.00  0.00    +0.141 C 
ATOM     30  C   UNL     1      37.457 -19.729 -20.869  0.00  0.00    +0.004 C 
ATOM     31  C   UNL     1      36.561 -20.674 -20.368  0.00  0.00    +0.030 C 
ENDBRANCH  21  26
ENDBRANCH  16  20
ENDBRANCH   6  13
BRANCH   7  34
ATOM     32  N   UNL     1      31.167  -3.233 -23.631  0.00  0.00    -0.208 N 
ATOM     33  N   UNL     1      30.476  -3.709 -22.581  0.00  0.00    -0.176 NA
ATOM     34  C   UNL     1      32.012  -5.225 -23.330  0.00  0.00    +0.039 C 
ATOM     35  C   UNL     1      32.100  -4.102 -24.116  0.00  0.00    +0.086 C 
ATOM     36  C   UNL     1      30.996  -4.926 -22.403  0.00  0.00    +0.119 C 
BRANCH  32  37
ATOM     37  C   UNL     1      30.885  -1.910 -24.134  0.00  0.00    +0.148 C 
BRANCH  37  38
ATOM     38  C   UNL     1      30.291  -1.938 -25.538  0.00  0.00    +0.161 C 
BRANCH  38  39
ATOM     39  O   UNL     1      28.872  -1.890 -25.459  0.00  0.00    -0.380 OA
ATOM     40  H   UNL     1      28.501  -2.725 -25.786  0.00  0.00    +0.211 HD
ENDBRANCH  38  39
ENDBRANCH  37  38
ENDBRANCH  32  37
ENDBRANCH   7  34
TORSDOF 7
ENDMDL
MODEL 4
REMARK VINA RESULT:      -9.1      1.604      2.039
REMARK  Name = 46207586
REMARK  7 active torsions:
REMARK  status: ('A' for Active; 'I' for Inactive)
REMARK    1  A    between atoms: C_6  and  C_13
REMARK    2  A    between atoms: C_7  and  C_34
REMARK    3  A    between atoms: C_16  and  N_20
REMARK    4  A    between atoms: N_21  and  C_26
REMARK    5  A    between atoms: N_32  and  C_37
REMARK    6  A    between atoms: C_37  and  C_38
REMARK    7  A    between atoms: C_38  and  O_39
REMARK                            x       y       z     vdW  Elec       q    Type
REMARK                         _______ _______ _______ _____ _____    ______ ____
ROOT
ATOM      1  S   UNL     1      34.622 -15.332 -21.300  0.00  0.00    -0.086 S 
ATOM      2  N   UNL     1      33.747 -15.626 -25.683  0.00  0.00    -0.230 NA
ATOM      3  N   UNL     1      32.973 -13.392 -25.633  0.00  0.00    -0.343 N 
ATOM      4  C   UNL     1      33.801 -14.451 -23.588  0.00  0.00    +0.038 C 
ATOM      5  C   UNL     1      34.338 -15.590 -22.980  0.00  0.00    +0.034 C 
ATOM      6  C   UNL     1      33.637 -13.386 -22.640  0.00  0.00    +0.010 C 
ATOM      7  C   UNL     1      34.585 -16.757 -23.714  0.00  0.00    +0.028 C 
ATOM      8  C   UNL     1      33.514 -14.507 -24.960  0.00  0.00    +0.126 C 
ATOM      9  C   UNL     1      34.043 -13.731 -21.372  0.00  0.00    +0.036 C 
ATOM     10  C   UNL     1      34.265 -16.701 -25.059  0.00  0.00    +0.101 C 
ATOM     11  H   UNL     1      32.776 -13.446 -26.596  0.00  0.00    +0.144 HD
ATOM     12  H   UNL     1      32.791 -12.560 -25.139  0.00  0.00    +0.144 HD
ENDROOT
BRANCH   6  13
ATOM     13  C   UNL     1      33.120 -12.060 -22.869  0.00  0.00    +0.001 C 
ATOM     14  C   UNL     1      33.707 -11.238 -23.830  0.00  0.00    +0.001 C 
ATOM     15  C   UNL     1      32.031 -11.599 -22.128  0.00  0.00    +0.001 C 
ATOM     16  C   UNL     1      32.117  -9.494 -23.310  0.00  0.00    +0.052 C 
ATOM     17  C   UNL     1      33.206  -9.954 -24.051  0.00  0.00    +0.015 C 
ATOM     18  C   UNL     1      31.529 -10.316 -22.349  0.00  0.00    +0.015 C 
BRANCH  16  20
ATOM     19  O   UNL     1      33.552  -6.905 -23.711  0.00  0.00    -0.252 OA
ATOM     20  N   UNL     1      31.615  -8.211 -23.532  0.00  0.00    -0.268 N 
ATOM     21  N   UNL     1      31.431  -5.941 -23.911  0.00  0.00    -0.268 N 
ATOM     22  C   UNL     1      32.329  -7.002 -23.718  0.00  0.00    +0.308 C 
ATOM     23  H   UNL     1      30.634  -8.137 -23.563  0.00  0.00    +0.156 HD
ATOM     24  H   UNL     1      30.475  -6.174 -23.891  0.00  0.00    +0.156 HD
BRANCH  21  26
ATOM     25  F   UNL     1      33.249  -2.455 -26.668  0.00  0.00    -0.204 F 
ATOM     26  C   UNL     1      31.731  -4.575 -24.131  0.00  0.00    +0.054 C 
ATOM     27  C   UNL     1      32.354  -4.181 -25.314  0.00  0.00    +0.044 C 
ATOM     28  C   UNL     1      31.404  -3.625 -23.164  0.00  0.00    +0.015 C 
ATOM     29  C   UNL     1      32.651  -2.835 -25.532  0.00  0.00    +0.141 C 
ATOM     30  C   UNL     1      31.701  -2.279 -23.380  0.00  0.00    +0.004 C 
ATOM     31  C   UNL     1      32.324  -1.884 -24.564  0.00  0.00    +0.030 C 
ENDBRANCH  21  26
ENDBRANCH  16  20
ENDBRANCH   6  13
BRANCH   7  34
ATOM     32  N   UNL     1      36.287 -19.222 -21.774  0.00  0.00    -0.208 N 
ATOM     33  N   UNL     1      35.664 -20.092 -22.588  0.00  0.00    -0.176 NA
ATOM     34  C   UNL     1      35.135 -17.931 -23.109  0.00  0.00    +0.039 C 
ATOM     35  C   UNL     1      36.004 -17.915 -22.045  0.00  0.00    +0.086 C 
ATOM     36  C   UNL     1      34.962 -19.297 -23.400  0.00  0.00    +0.119 C 
BRANCH  32  37
ATOM     37  C   UNL     1      37.160 -19.712 -20.736  0.00  0.00    +0.148 C 
BRANCH  37  38
ATOM     38  C   UNL     1      36.601 -20.951 -20.044  0.00  0.00    +0.161 C 
BRANCH  38  39
ATOM     39  O   UNL     1      35.189 -20.835 -19.920  0.00  0.00    -0.380 OA
ATOM     40  H   UNL     1      34.975 -20.073 -19.359  0.00  0.00    +0.211 HD
ENDBRANCH  38  39
ENDBRANCH  37  38
ENDBRANCH  32  37
ENDBRANCH   7  34
TORSDOF 7
ENDMDL
MODEL 5
REMARK VINA RESULT:      -8.9      5.461      9.346
REMARK  Name = 46207586
REMARK  7 active torsions:
REMARK  status: ('A' for Active; 'I' for Inactive)
REMARK    1  A    between atoms: C_6  and  C_13
REMARK    2  A    between atoms: C_7  and  C_34
REMARK    3  A    between atoms: C_16  and  N_20
REMARK    4  A    between atoms: N_21  and  C_26
REMARK    5  A    between atoms: N_32  and  C_37
REMARK    6  A    between atoms: C_37  and  C_38
REMARK    7  A    between atoms: C_38  and  O_39
REMARK                            x       y       z     vdW  Elec       q    Type
REMARK                         _______ _______ _______ _____ _____    ______ ____
ROOT
ATOM      1  S   UNL     1      37.358 -22.750 -16.876  0.00  0.00    -0.086 S 
ATOM      2  N   UNL     1      32.961 -23.538 -17.212  0.00  0.00    -0.230 NA
ATOM      3  N   UNL     1      32.885 -22.072 -19.065  0.00  0.00    -0.343 N 
ATOM      4  C   UNL     1      35.004 -22.485 -17.912  0.00  0.00    +0.038 C 
ATOM      5  C   UNL     1      35.681 -23.147 -16.885  0.00  0.00    +0.034 C 
ATOM      6  C   UNL     1      35.898 -21.659 -18.673  0.00  0.00    +0.010 C 
ATOM      7  C   UNL     1      35.009 -24.011 -16.010  0.00  0.00    +0.028 C 
ATOM      8  C   UNL     1      33.625 -22.708 -18.048  0.00  0.00    +0.126 C 
ATOM      9  C   UNL     1      37.194 -21.713 -18.219  0.00  0.00    +0.036 C 
ATOM     10  C   UNL     1      33.651 -24.157 -16.235  0.00  0.00    +0.101 C 
ATOM     11  H   UNL     1      31.918 -22.238 -19.148  0.00  0.00    +0.144 HD
ATOM     12  H   UNL     1      33.335 -21.462 -19.693  0.00  0.00    +0.144 HD
ENDROOT
BRANCH   6  13
ATOM     13  C   UNL     1      35.592 -20.823 -19.808  0.00  0.00    +0.001 C 
ATOM     14  C   UNL     1      34.315 -20.846 -20.368  0.00  0.00    +0.001 C 
ATOM     15  C   UNL     1      36.574 -19.991 -20.345  0.00  0.00    +0.001 C 
ATOM     16  C   UNL     1      35.002 -19.205 -22.003  0.00  0.00    +0.052 C 
ATOM     17  C   UNL     1      34.020 -20.037 -21.466  0.00  0.00    +0.015 C 
ATOM     18  C   UNL     1      36.279 -19.181 -21.443  0.00  0.00    +0.015 C 
BRANCH  16  20
ATOM     19  O   UNL     1      34.567 -16.254 -22.158  0.00  0.00    -0.252 OA
ATOM     20  N   UNL     1      34.707 -18.395 -23.100  0.00  0.00    -0.268 N 
ATOM     21  N   UNL     1      34.230 -16.582 -24.449  0.00  0.00    -0.268 N 
ATOM     22  C   UNL     1      34.506 -16.993 -23.135  0.00  0.00    +0.308 C 
ATOM     23  H   UNL     1      34.627 -18.860 -23.964  0.00  0.00    +0.156 HD
ATOM     24  H   UNL     1      34.215 -17.292 -25.130  0.00  0.00    +0.156 HD
BRANCH  21  26
ATOM     25  F   UNL     1      33.920 -11.855 -23.665  0.00  0.00    -0.204 F 
ATOM     26  C   UNL     1      33.971 -15.271 -24.915  0.00  0.00    +0.054 C 
ATOM     27  C   UNL     1      34.076 -14.188 -24.043  0.00  0.00    +0.044 C 
ATOM     28  C   UNL     1      33.609 -15.063 -26.246  0.00  0.00    +0.015 C 
ATOM     29  C   UNL     1      33.819 -12.895 -24.502  0.00  0.00    +0.141 C 
ATOM     30  C   UNL     1      33.353 -13.771 -26.705  0.00  0.00    +0.004 C 
ATOM     31  C   UNL     1      33.458 -12.687 -25.833  0.00  0.00    +0.030 C 
ENDBRANCH  21  26
ENDBRANCH  16  20
ENDBRANCH   6  13
BRANCH   7  34
ATOM     32  N   UNL     1      36.505 -25.160 -12.981  0.00  0.00    -0.208 N 
ATOM     33  N   UNL     1      36.864 -26.221 -13.725  0.00  0.00    -0.176 NA
ATOM     34  C   UNL     1      35.685 -24.698 -14.953  0.00  0.00    +0.039 C 
ATOM     35  C   UNL     1      35.798 -24.219 -13.670  0.00  0.00    +0.086 C 
ATOM     36  C   UNL     1      36.359 -25.933 -14.927  0.00  0.00    +0.119 C 
BRANCH  32  37
ATOM     37  C   UNL     1      36.878 -25.102 -11.589  0.00  0.00    +0.148 C 
BRANCH  37  38
ATOM     38  C   UNL     1      35.895 -24.285 -10.757  0.00  0.00    +0.161 C 
BRANCH  38  39
ATOM     39  O   UNL     1      35.319 -25.109  -9.751  0.00  0.00    -0.380 OA
ATOM     40  H   UNL     1      35.742 -24.921  -8.898  0.00  0.00    +0.211 HD
ENDBRANCH  38  39
ENDBRANCH  37  38
ENDBRANCH  32  37
ENDBRANCH   7  34
TORSDOF 7
ENDMDL
MODEL 6
REMARK VINA RESULT:      -8.7      2.065      3.038
REMARK  Name = 46207586
REMARK  7 active torsions:
REMARK  status: ('A' for Active; 'I' for Inactive)
REMARK    1  A    between atoms: C_6  and  C_13
REMARK    2  A    between atoms: C_7  and  C_34
REMARK    3  A    between atoms: C_16  and  N_20
REMARK    4  A    between atoms: N_21  and  C_26
REMARK    5  A    between atoms: N_32  and  C_37
REMARK    6  A    between atoms: C_37  and  C_38
REMARK    7  A    between atoms: C_38  and  O_39
REMARK                            x       y       z     vdW  Elec       q    Type
REMARK                         _______ _______ _______ _____ _____    ______ ____
ROOT
ATOM      1  S   UNL     1      34.534 -15.116 -22.432  0.00  0.00    -0.086 S 
ATOM      2  N   UNL     1      33.212 -14.553 -26.675  0.00  0.00    -0.230 NA
ATOM      3  N   UNL     1      33.070 -12.227 -26.275  0.00  0.00    -0.343 N 
ATOM      4  C   UNL     1      33.770 -13.740 -24.484  0.00  0.00    +0.038 C 
ATOM      5  C   UNL     1      34.038 -15.052 -24.081  0.00  0.00    +0.034 C 
ATOM      6  C   UNL     1      33.984 -12.814 -23.408  0.00  0.00    +0.010 C 
ATOM      7  C   UNL     1      33.897 -16.127 -24.968  0.00  0.00    +0.028 C 
ATOM      8  C   UNL     1      33.354 -13.526 -25.806  0.00  0.00    +0.126 C 
ATOM      9  C   UNL     1      34.398 -13.427 -22.249  0.00  0.00    +0.036 C 
ATOM     10  C   UNL     1      33.480 -15.801 -26.246  0.00  0.00    +0.101 C 
ATOM     11  H   UNL     1      32.778 -12.092 -27.206  0.00  0.00    +0.144 HD
ATOM     12  H   UNL     1      33.162 -11.455 -25.671  0.00  0.00    +0.144 HD
ENDROOT
BRANCH   6  13
ATOM     13  C   UNL     1      33.820 -11.382 -23.418  0.00  0.00    +0.001 C 
ATOM     14  C   UNL     1      32.687 -10.805 -22.845  0.00  0.00    +0.001 C 
ATOM     15  C   UNL     1      34.796 -10.573 -24.001  0.00  0.00    +0.001 C 
ATOM     16  C   UNL     1      33.505  -8.610 -23.438  0.00  0.00    +0.052 C 
ATOM     17  C   UNL     1      32.529  -9.418 -22.855  0.00  0.00    +0.015 C 
ATOM     18  C   UNL     1      34.639  -9.186 -24.011  0.00  0.00    +0.015 C 
BRANCH  16  20
ATOM     19  O   UNL     1      31.651  -6.890 -25.027  0.00  0.00    -0.252 OA
ATOM     20  N   UNL     1      33.348  -7.224 -23.447  0.00  0.00    -0.268 N 
ATOM     21  N   UNL     1      32.627  -5.080 -23.915  0.00  0.00    -0.268 N 
ATOM     22  C   UNL     1      32.455  -6.440 -24.217  0.00  0.00    +0.308 C 
ATOM     23  H   UNL     1      33.937  -6.723 -22.836  0.00  0.00    +0.156 HD
ATOM     24  H   UNL     1      33.314  -4.871 -23.241  0.00  0.00    +0.156 HD
BRANCH  21  26
ATOM     25  F   UNL     1      31.965  -1.895 -27.448  0.00  0.00    -0.204 F 
ATOM     26  C   UNL     1      31.936  -3.971 -24.460  0.00  0.00    +0.054 C 
ATOM     27  C   UNL     1      32.298  -3.471 -25.710  0.00  0.00    +0.044 C 
ATOM     28  C   UNL     1      30.894  -3.380 -23.746  0.00  0.00    +0.015 C 
ATOM     29  C   UNL     1      31.618  -2.377 -26.247  0.00  0.00    +0.141 C 
ATOM     30  C   UNL     1      30.214  -2.287 -24.283  0.00  0.00    +0.004 C 
ATOM     31  C   UNL     1      30.576  -1.786 -25.533  0.00  0.00    +0.030 C 
ENDBRANCH  21  26
ENDBRANCH  16  20
ENDBRANCH   6  13
BRANCH   7  34
ATOM     32  N   UNL     1      34.903 -19.186 -23.431  0.00  0.00    -0.208 N 
ATOM     33  N   UNL     1      34.278 -19.755 -24.477  0.00  0.00    -0.176 NA
ATOM     34  C   UNL     1      34.167 -17.476 -24.574  0.00  0.00    +0.039 C 
ATOM     35  C   UNL     1      34.866 -17.823 -23.443  0.00  0.00    +0.086 C 
ATOM     36  C   UNL     1      33.831 -18.705 -25.170  0.00  0.00    +0.119 C 
BRANCH  32  37
ATOM     37  C   UNL     1      35.533 -20.018 -22.434  0.00  0.00    +0.148 C 
BRANCH  37  38
ATOM     38  C   UNL     1      34.951 -19.795 -21.042  0.00  0.00    +0.161 C 
BRANCH  38  39
ATOM     39  O   UNL     1      35.702 -20.533 -20.086  0.00  0.00    -0.380 OA
ATOM     40  H   UNL     1      35.597 -21.483 -20.255  0.00  0.00    +0.211 HD
ENDBRANCH  38  39
ENDBRANCH  37  38
ENDBRANCH  32  37
ENDBRANCH   7  34
TORSDOF 7
ENDMDL
MODEL 7
REMARK VINA RESULT:      -8.5      5.904     13.559
REMARK  Name = 46207586
REMARK  7 active torsions:
REMARK  status: ('A' for Active; 'I' for Inactive)
REMARK    1  A    between atoms: C_6  and  C_13
REMARK    2  A    between atoms: C_7  and  C_34
REMARK    3  A    between atoms: C_16  and  N_20
REMARK    4  A    between atoms: N_21  and  C_26
REMARK    5  A    between atoms: N_32  and  C_37
REMARK    6  A    between atoms: C_37  and  C_38
REMARK    7  A    between atoms: C_38  and  O_39
REMARK                            x       y       z     vdW  Elec       q    Type
REMARK                         _______ _______ _______ _____ _____    ______ ____
ROOT
ATOM      1  S   UNL     1      34.825 -15.355 -22.573  0.00  0.00    -0.086 S 
ATOM      2  N   UNL     1      34.126 -18.710 -25.458  0.00  0.00    -0.230 NA
ATOM      3  N   UNL     1      34.770 -20.236 -23.771  0.00  0.00    -0.343 N 
ATOM      4  C   UNL     1      34.756 -17.832 -23.312  0.00  0.00    +0.038 C 
ATOM      5  C   UNL     1      34.516 -16.539 -23.787  0.00  0.00    +0.034 C 
ATOM      6  C   UNL     1      35.194 -17.809 -21.946  0.00  0.00    +0.010 C 
ATOM      7  C   UNL     1      34.079 -16.316 -25.099  0.00  0.00    +0.028 C 
ATOM      8  C   UNL     1      34.547 -18.908 -24.188  0.00  0.00    +0.126 C 
ATOM      9  C   UNL     1      35.272 -16.537 -21.430  0.00  0.00    +0.036 C 
ATOM     10  C   UNL     1      33.907 -17.448 -25.875  0.00  0.00    +0.101 C 
ATOM     11  H   UNL     1      34.620 -20.981 -24.397  0.00  0.00    +0.144 HD
ATOM     12  H   UNL     1      35.076 -20.418 -22.854  0.00  0.00    +0.144 HD
ENDROOT
BRANCH   6  13
ATOM     13  C   UNL     1      35.540 -18.926 -21.101  0.00  0.00    +0.001 C 
ATOM     14  C   UNL     1      36.860 -19.108 -20.691  0.00  0.00    +0.001 C 
ATOM     15  C   UNL     1      34.553 -19.823 -20.694  0.00  0.00    +0.001 C 
ATOM     16  C   UNL     1      36.207 -21.086 -19.467  0.00  0.00    +0.052 C 
ATOM     17  C   UNL     1      37.194 -20.189 -19.873  0.00  0.00    +0.015 C 
ATOM     18  C   UNL     1      34.886 -20.904 -19.876  0.00  0.00    +0.015 C 
BRANCH  16  20
ATOM     19  O   UNL     1      36.855 -21.168 -16.552  0.00  0.00    -0.252 OA
ATOM     20  N   UNL     1      36.540 -22.165 -18.648  0.00  0.00    -0.268 N 
ATOM     21  N   UNL     1      37.124 -23.473 -16.836  0.00  0.00    -0.268 N 
ATOM     22  C   UNL     1      36.843 -22.166 -17.264  0.00  0.00    +0.308 C 
ATOM     23  H   UNL     1      36.570 -23.044 -19.092  0.00  0.00    +0.156 HD
ATOM     24  H   UNL     1      37.074 -24.174 -17.525  0.00  0.00    +0.156 HD
BRANCH  21  26
ATOM     25  F   UNL     1      40.118 -25.749 -13.850  0.00  0.00    -0.204 F 
ATOM     26  C   UNL     1      37.470 -23.907 -15.534  0.00  0.00    +0.054 C 
ATOM     27  C   UNL     1      38.647 -24.628 -15.330  0.00  0.00    +0.044 C 
ATOM     28  C   UNL     1      36.634 -23.616 -14.456  0.00  0.00    +0.015 C 
ATOM     29  C   UNL     1      38.988 -25.057 -14.047  0.00  0.00    +0.141 C 
ATOM     30  C   UNL     1      36.975 -24.045 -13.174  0.00  0.00    +0.004 C 
ATOM     31  C   UNL     1      38.152 -24.766 -12.969  0.00  0.00    +0.030 C 
ENDBRANCH  21  26
ENDBRANCH  16  20
ENDBRANCH   6  13
BRANCH   7  34
ATOM     32  N   UNL     1      33.604 -12.828 -25.685  0.00  0.00    -0.208 N 
ATOM     33  N   UNL     1      33.315 -13.221 -26.938  0.00  0.00    -0.176 NA
ATOM     34  C   UNL     1      33.827 -15.000 -25.601  0.00  0.00    +0.039 C 
ATOM     35  C   UNL     1      33.916 -13.856 -24.845  0.00  0.00    +0.086 C 
ATOM     36  C   UNL     1      33.454 -14.547 -26.880  0.00  0.00    +0.119 C 
BRANCH  32  37
ATOM     37  C   UNL     1      33.561 -11.427 -25.345  0.00  0.00    +0.148 C 
BRANCH  37  38
ATOM     38  C   UNL     1      34.944 -10.784 -25.354  0.00  0.00    +0.161 C 
BRANCH  38  39
ATOM     39  O   UNL     1      35.307 -10.410 -24.031  0.00  0.00    -0.380 OA
ATOM     40  H   UNL     1      35.490 -11.207 -23.508  0.00  0.00    +0.211 HD
ENDBRANCH  38  39
ENDBRANCH  37  38
ENDBRANCH  32  37
ENDBRANCH   7  34
TORSDOF 7
ENDMDL
MODEL 8
REMARK VINA RESULT:      -8.3      5.820     13.673
REMARK  Name = 46207586
REMARK  7 active torsions:
REMARK  status: ('A' for Active; 'I' for Inactive)
REMARK    1  A    between atoms: C_6  and  C_13
REMARK    2  A    between atoms: C_7  and  C_34
REMARK    3  A    between atoms: C_16  and  N_20
REMARK    4  A    between atoms: N_21  and  C_26
REMARK    5  A    between atoms: N_32  and  C_37
REMARK    6  A    between atoms: C_37  and  C_38
REMARK    7  A    between atoms: C_38  and  O_39
REMARK                            x       y       z     vdW  Elec       q    Type
REMARK                         _______ _______ _______ _____ _____    ______ ____
ROOT
ATOM      1  S   UNL     1      34.305 -18.519 -24.449  0.00  0.00    -0.086 S 
ATOM      2  N   UNL     1      35.029 -15.590 -21.138  0.00  0.00    -0.230 NA
ATOM      3  N   UNL     1      35.449 -17.406 -19.683  0.00  0.00    -0.343 N 
ATOM      4  C   UNL     1      34.881 -17.817 -22.028  0.00  0.00    +0.038 C 
ATOM      5  C   UNL     1      34.555 -17.280 -23.277  0.00  0.00    +0.034 C 
ATOM      6  C   UNL     1      34.915 -19.251 -22.073  0.00  0.00    +0.010 C 
ATOM      7  C   UNL     1      34.462 -15.896 -23.471  0.00  0.00    +0.028 C 
ATOM      8  C   UNL     1      35.115 -16.929 -20.967  0.00  0.00    +0.126 C 
ATOM      9  C   UNL     1      34.624 -19.754 -23.319  0.00  0.00    +0.036 C 
ATOM     10  C   UNL     1      34.712 -15.115 -22.357  0.00  0.00    +0.101 C 
ATOM     11  H   UNL     1      35.610 -16.770 -18.948  0.00  0.00    +0.144 HD
ATOM     12  H   UNL     1      35.521 -18.374 -19.521  0.00  0.00    +0.144 HD
ENDROOT
BRANCH   6  13
ATOM     13  C   UNL     1      35.211 -20.170 -21.002  0.00  0.00    +0.001 C 
ATOM     14  C   UNL     1      36.533 -20.393 -20.618  0.00  0.00    +0.001 C 
ATOM     15  C   UNL     1      34.173 -20.836 -20.349  0.00  0.00    +0.001 C 
ATOM     16  C   UNL     1      35.780 -21.948 -18.929  0.00  0.00    +0.052 C 
ATOM     17  C   UNL     1      36.818 -21.283 -19.581  0.00  0.00    +0.015 C 
ATOM     18  C   UNL     1      34.458 -21.726 -19.312  0.00  0.00    +0.015 C 
BRANCH  16  20
ATOM     19  O   UNL     1      37.145 -21.484 -16.313  0.00  0.00    -0.252 OA
ATOM     20  N   UNL     1      36.065 -22.837 -17.892  0.00  0.00    -0.268 N 
ATOM     21  N   UNL     1      36.797 -23.760 -15.905  0.00  0.00    -0.268 N 
ATOM     22  C   UNL     1      36.717 -22.580 -16.661  0.00  0.00    +0.308 C 
ATOM     23  H   UNL     1      35.774 -23.767 -18.034  0.00  0.00    +0.156 HD
ATOM     24  H   UNL     1      36.407 -24.564 -16.317  0.00  0.00    +0.156 HD
BRANCH  21  26
ATOM     25  F   UNL     1      37.061 -22.601 -11.253  0.00  0.00    -0.204 F 
ATOM     26  C   UNL     1      37.370 -23.936 -14.623  0.00  0.00    +0.054 C 
ATOM     27  C   UNL     1      36.924 -23.167 -13.549  0.00  0.00    +0.044 C 
ATOM     28  C   UNL     1      38.381 -24.879 -14.434  0.00  0.00    +0.015 C 
ATOM     29  C   UNL     1      37.489 -23.339 -12.285  0.00  0.00    +0.141 C 
ATOM     30  C   UNL     1      38.945 -25.052 -13.171  0.00  0.00    +0.004 C 
ATOM     31  C   UNL     1      38.499 -24.282 -12.096  0.00  0.00    +0.030 C 
ENDBRANCH  21  26
ENDBRANCH  16  20
ENDBRANCH   6  13
BRANCH   7  34
ATOM     32  N   UNL     1      33.578 -13.874 -26.275  0.00  0.00    -0.208 N 
ATOM     33  N   UNL     1      33.688 -15.024 -26.963  0.00  0.00    -0.176 NA
ATOM     34  C   UNL     1      34.131 -15.330 -24.743  0.00  0.00    +0.039 C 
ATOM     35  C   UNL     1      33.833 -14.003 -24.941  0.00  0.00    +0.086 C 
ATOM     36  C   UNL     1      34.026 -15.908 -26.021  0.00  0.00    +0.119 C 
BRANCH  32  37
ATOM     37  C   UNL     1      33.217 -12.659 -26.964  0.00  0.00    +0.148 C 
BRANCH  37  38
ATOM     38  C   UNL     1      33.485 -11.414 -26.126  0.00  0.00    +0.161 C 
BRANCH  38  39
ATOM     39  O   UNL     1      34.878 -11.123 -26.131  0.00  0.00    -0.380 OA
ATOM     40  H   UNL     1      35.365 -11.881 -26.491  0.00  0.00    +0.211 HD
ENDBRANCH  38  39
ENDBRANCH  37  38
ENDBRANCH  32  37
ENDBRANCH   7  34
TORSDOF 7
ENDMDL
MODEL 9
REMARK VINA RESULT:      -8.2      5.589      9.264
REMARK  Name = 46207586
REMARK  7 active torsions:
REMARK  status: ('A' for Active; 'I' for Inactive)
REMARK    1  A    between atoms: C_6  and  C_13
REMARK    2  A    between atoms: C_7  and  C_34
REMARK    3  A    between atoms: C_16  and  N_20
REMARK    4  A    between atoms: N_21  and  C_26
REMARK    5  A    between atoms: N_32  and  C_37
REMARK    6  A    between atoms: C_37  and  C_38
REMARK    7  A    between atoms: C_38  and  O_39
REMARK                            x       y       z     vdW  Elec       q    Type
REMARK                         _______ _______ _______ _____ _____    ______ ____
ROOT
ATOM      1  S   UNL     1      37.297 -22.576 -16.870  0.00  0.00    -0.086 S 
ATOM      2  N   UNL     1      32.913 -23.443 -17.184  0.00  0.00    -0.230 NA
ATOM      3  N   UNL     1      32.819 -22.050 -19.092  0.00  0.00    -0.343 N 
ATOM      4  C   UNL     1      34.941 -22.386 -17.920  0.00  0.00    +0.038 C 
ATOM      5  C   UNL     1      35.626 -22.998 -16.866  0.00  0.00    +0.034 C 
ATOM      6  C   UNL     1      35.824 -21.577 -18.711  0.00  0.00    +0.010 C 
ATOM      7  C   UNL     1      34.964 -23.837 -15.961  0.00  0.00    +0.028 C 
ATOM      8  C   UNL     1      33.567 -22.635 -18.050  0.00  0.00    +0.126 C 
ATOM      9  C   UNL     1      37.120 -21.594 -18.252  0.00  0.00    +0.036 C 
ATOM     10  C   UNL     1      33.610 -24.013 -16.182  0.00  0.00    +0.101 C 
ATOM     11  H   UNL     1      31.855 -22.234 -19.170  0.00  0.00    +0.144 HD
ATOM     12  H   UNL     1      33.262 -21.458 -19.742  0.00  0.00    +0.144 HD
ENDROOT
BRANCH   6  13
ATOM     13  C   UNL     1      35.509 -20.790 -19.877  0.00  0.00    +0.001 C 
ATOM     14  C   UNL     1      36.488 -19.991 -20.466  0.00  0.00    +0.001 C 
ATOM     15  C   UNL     1      34.223 -20.830 -20.418  0.00  0.00    +0.001 C 
ATOM     16  C   UNL     1      34.897 -19.270 -22.135  0.00  0.00    +0.052 C 
ATOM     17  C   UNL     1      36.182 -19.230 -21.595  0.00  0.00    +0.015 C 
ATOM     18  C   UNL     1      33.917 -20.070 -21.547  0.00  0.00    +0.015 C 
BRANCH  16  20
ATOM     19  O   UNL     1      34.521 -16.322 -22.432  0.00  0.00    -0.252 OA
ATOM     20  N   UNL     1      34.591 -18.510 -23.265  0.00  0.00    -0.268 N 
ATOM     21  N   UNL     1      34.118 -16.758 -24.693  0.00  0.00    -0.268 N 
ATOM     22  C   UNL     1      34.419 -17.108 -23.367  0.00  0.00    +0.308 C 
ATOM     23  H   UNL     1      34.479 -19.016 -24.102  0.00  0.00    +0.156 HD
ATOM     24  H   UNL     1      34.071 -17.502 -25.337  0.00  0.00    +0.156 HD
BRANCH  21  26
ATOM     25  F   UNL     1      33.436 -12.048 -24.058  0.00  0.00    -0.204 F 
ATOM     26  C   UNL     1      33.875 -15.467 -25.220  0.00  0.00    +0.054 C 
ATOM     27  C   UNL     1      33.774 -14.372 -24.362  0.00  0.00    +0.044 C 
ATOM     28  C   UNL     1      33.735 -15.290 -26.597  0.00  0.00    +0.015 C 
ATOM     29  C   UNL     1      33.533 -13.099 -24.880  0.00  0.00    +0.141 C 
ATOM     30  C   UNL     1      33.494 -14.018 -27.115  0.00  0.00    +0.004 C 
ATOM     31  C   UNL     1      33.393 -12.923 -26.257  0.00  0.00    +0.030 C 
ENDBRANCH  21  26
ENDBRANCH  16  20
ENDBRANCH   6  13
BRANCH   7  34
ATOM     32  N   UNL     1      37.151 -25.597 -13.757  0.00  0.00    -0.208 N 
ATOM     33  N   UNL     1      36.246 -25.266 -12.819  0.00  0.00    -0.176 NA
ATOM     34  C   UNL     1      35.649 -24.473 -14.877  0.00  0.00    +0.039 C 
ATOM     35  C   UNL     1      36.840 -25.146 -15.006  0.00  0.00    +0.086 C 
ATOM     36  C   UNL     1      35.332 -24.580 -13.510  0.00  0.00    +0.119 C 
BRANCH  32  37
ATOM     37  C   UNL     1      38.317 -26.363 -13.388  0.00  0.00    +0.148 C 
BRANCH  37  38
ATOM     38  C   UNL     1      39.583 -25.860 -14.073  0.00  0.00    +0.161 C 
BRANCH  38  39
ATOM     39  O   UNL     1      39.721 -26.487 -15.343  0.00  0.00    -0.380 OA
ATOM     40  H   UNL     1      40.039 -27.395 -15.222  0.00  0.00    +0.211 HD
ENDBRANCH  38  39
ENDBRANCH  37  38
ENDBRANCH  32  37
ENDBRANCH   7  34
TORSDOF 7
ENDMDL
