MODEL 1
REMARK VINA RESULT:     -11.7      0.000      0.000
REMARK  Name = 24941243
REMARK  5 active torsions:
REMARK  status: ('A' for Active; 'I' for Inactive)
REMARK    1  A    between atoms: N_1  and  C_14
REMARK    2  A    between atoms: N_2  and  C_22
REMARK    3  A    between atoms: C_25  and  O_28
REMARK    4  A    between atoms: C_26  and  O_30
REMARK    5  A    between atoms: C_27  and  O_32
REMARK                            x       y       z     vdW  Elec       q    Type
REMARK                         _______ _______ _______ _____ _____    ______ ____
ROOT
ATOM      1  N   UNL     1      36.371 -18.981 -22.007  0.00  0.00    -0.260 N 
ATOM      2  N   UNL     1      36.784 -21.583 -18.080  0.00  0.00    -0.247 N 
ATOM      3  N   UNL     1      36.600 -20.285 -20.026  0.00  0.00    -0.322 NA
ATOM      4  N   UNL     1      34.728 -21.568 -19.213  0.00  0.00    -0.170 NA
ATOM      5  C   UNL     1      35.821 -19.866 -21.045  0.00  0.00    +0.201 C 
ATOM      6  C   UNL     1      37.832 -18.875 -22.084  0.00  0.00    +0.120 C 
ATOM      7  C   UNL     1      34.505 -20.248 -21.214  0.00  0.00    +0.070 C 
ATOM      8  C   UNL     1      35.998 -21.123 -19.160  0.00  0.00    +0.150 C 
ATOM      9  C   UNL     1      34.007 -21.109 -20.257  0.00  0.00    +0.116 C 
ATOM     10  H   UNL     1      37.703 -21.232 -18.082  0.00  0.00    +0.165 HD
ENDROOT
BRANCH   1  14
ATOM     11  N   UNL     1      33.404 -16.018 -25.980  0.00  0.00    -0.280 N 
ATOM     12  N   UNL     1      33.908 -17.263 -25.886  0.00  0.00    -0.173 NA
ATOM     13  C   UNL     1      34.326 -16.025 -24.029  0.00  0.00    +0.032 A 
ATOM     14  C   UNL     1      35.659 -18.000 -22.747  0.00  0.00    +0.055 C 
ATOM     15  C   UNL     1      34.493 -17.304 -24.676  0.00  0.00    +0.103 A 
ATOM     16  C   UNL     1      33.627 -15.228 -24.890  0.00  0.00    +0.053 A 
ATOM     17  C   UNL     1      35.181 -18.347 -24.030  0.00  0.00    +0.036 C 
ATOM     18  C   UNL     1      34.782 -15.652 -22.770  0.00  0.00    +0.004 C 
ATOM     19  C   UNL     1      35.466 -16.715 -22.148  0.00  0.00    +0.015 C 
ATOM     20  C   UNL     1      33.148 -13.837 -24.824  0.00  0.00    +0.051 C 
ATOM     21  H   UNL     1      32.913 -15.702 -26.774  0.00  0.00    +0.189 HD
ENDBRANCH   1  14
BRANCH   2  22
ATOM     22  C   UNL     1      36.509 -22.445 -17.002  0.00  0.00    +0.064 C 
ATOM     23  C   UNL     1      35.206 -22.888 -16.779  0.00  0.00    +0.055 C 
ATOM     24  C   UNL     1      37.541 -22.859 -16.159  0.00  0.00    +0.055 C 
ATOM     25  C   UNL     1      37.269 -23.715 -15.094  0.00  0.00    +0.177 C 
ATOM     26  C   UNL     1      34.934 -23.745 -15.712  0.00  0.00    +0.177 C 
ATOM     27  C   UNL     1      35.966 -24.159 -14.870  0.00  0.00    +0.206 C 
BRANCH  25  28
ATOM     28  O   UNL     1      38.286 -24.112 -14.277  0.00  0.00    -0.468 OA
ATOM     29  C   UNL     1      39.006 -25.281 -14.662  0.00  0.00    +0.253 C 
ENDBRANCH  25  28
BRANCH  26  30
ATOM     30  O   UNL     1      33.656 -24.170 -15.505  0.00  0.00    -0.468 OA
ATOM     31  C   UNL     1      32.626 -23.503 -16.229  0.00  0.00    +0.253 C 
ENDBRANCH  26  30
BRANCH  27  32
ATOM     32  O   UNL     1      35.700 -24.995 -13.826  0.00  0.00    -0.465 OA
ATOM     33  C   UNL     1      35.351 -24.390 -12.583  0.00  0.00    +0.253 C 
ENDBRANCH  27  32
ENDBRANCH   2  22
TORSDOF 5
ENDMDL
MODEL 2
REMARK VINA RESULT:     -11.7      0.013      2.285
REMARK  Name = 24941243
REMARK  5 active torsions:
REMARK  status: ('A' for Active; 'I' for Inactive)
REMARK    1  A    between atoms: N_1  and  C_14
REMARK    2  A    between atoms: N_2  and  C_22
REMARK    3  A    between atoms: C_25  and  O_28
REMARK    4  A    between atoms: C_26  and  O_30
REMARK    5  A    between atoms: C_27  and  O_32
REMARK                            x       y       z     vdW  Elec       q    Type
REMARK                         _______ _______ _______ _____ _____    ______ ____
ROOT
ATOM      1  N   UNL     1      36.373 -18.986 -21.998  0.00  0.00    -0.260 N 
ATOM      2  N   UNL     1      36.785 -21.587 -18.070  0.00  0.00    -0.247 N 
ATOM      3  N   UNL     1      36.601 -20.290 -20.016  0.00  0.00    -0.322 NA
ATOM      4  N   UNL     1      34.731 -21.576 -19.206  0.00  0.00    -0.170 NA
ATOM      5  C   UNL     1      35.823 -19.872 -21.036  0.00  0.00    +0.201 C 
ATOM      6  C   UNL     1      37.834 -18.877 -22.072  0.00  0.00    +0.120 C 
ATOM      7  C   UNL     1      34.509 -20.256 -21.207  0.00  0.00    +0.070 C 
ATOM      8  C   UNL     1      36.000 -21.128 -19.151  0.00  0.00    +0.150 C 
ATOM      9  C   UNL     1      34.011 -21.118 -20.252  0.00  0.00    +0.116 C 
ATOM     10  H   UNL     1      37.704 -21.234 -18.070  0.00  0.00    +0.165 HD
ENDROOT
BRANCH   1  14
ATOM     11  N   UNL     1      33.402 -16.030 -25.973  0.00  0.00    -0.280 N 
ATOM     12  N   UNL     1      33.906 -17.276 -25.876  0.00  0.00    -0.173 NA
ATOM     13  C   UNL     1      34.328 -16.033 -24.023  0.00  0.00    +0.032 A 
ATOM     14  C   UNL     1      35.661 -18.006 -22.738  0.00  0.00    +0.055 C 
ATOM     15  C   UNL     1      34.492 -17.314 -24.667  0.00  0.00    +0.103 A 
ATOM     16  C   UNL     1      33.628 -15.238 -24.885  0.00  0.00    +0.053 A 
ATOM     17  C   UNL     1      35.181 -18.356 -24.020  0.00  0.00    +0.036 C 
ATOM     18  C   UNL     1      34.786 -15.658 -22.766  0.00  0.00    +0.004 C 
ATOM     19  C   UNL     1      35.470 -16.719 -22.142  0.00  0.00    +0.015 C 
ATOM     20  C   UNL     1      33.149 -13.847 -24.821  0.00  0.00    +0.051 C 
ATOM     21  H   UNL     1      32.911 -15.716 -26.766  0.00  0.00    +0.189 HD
ENDBRANCH   1  14
BRANCH   2  22
ATOM     22  C   UNL     1      36.510 -22.450 -16.992  0.00  0.00    +0.064 C 
ATOM     23  C   UNL     1      37.542 -22.866 -16.152  0.00  0.00    +0.055 C 
ATOM     24  C   UNL     1      35.204 -22.887 -16.764  0.00  0.00    +0.055 C 
ATOM     25  C   UNL     1      34.932 -23.738 -15.694  0.00  0.00    +0.177 C 
ATOM     26  C   UNL     1      37.269 -23.719 -15.083  0.00  0.00    +0.177 C 
ATOM     27  C   UNL     1      35.964 -24.155 -14.853  0.00  0.00    +0.206 C 
BRANCH  25  28
ATOM     28  O   UNL     1      33.653 -24.158 -15.481  0.00  0.00    -0.468 OA
ATOM     29  C   UNL     1      32.626 -23.509 -16.228  0.00  0.00    +0.253 C 
ENDBRANCH  25  28
BRANCH  26  30
ATOM     30  O   UNL     1      38.287 -24.118 -14.269  0.00  0.00    -0.468 OA
ATOM     31  C   UNL     1      39.010 -25.283 -14.661  0.00  0.00    +0.253 C 
ENDBRANCH  26  30
BRANCH  27  32
ATOM     32  O   UNL     1      35.698 -24.990 -13.809  0.00  0.00    -0.465 OA
ATOM     33  C   UNL     1      35.349 -24.382 -12.567  0.00  0.00    +0.253 C 
ENDBRANCH  27  32
ENDBRANCH   2  22
TORSDOF 5
ENDMDL
MODEL 3
REMARK VINA RESULT:     -11.4      0.929      2.656
REMARK  Name = 24941243
REMARK  5 active torsions:
REMARK  status: ('A' for Active; 'I' for Inactive)
REMARK    1  A    between atoms: N_1  and  C_14
REMARK    2  A    between atoms: N_2  and  C_22
REMARK    3  A    between atoms: C_25  and  O_28
REMARK    4  A    between atoms: C_26  and  O_30
REMARK    5  A    between atoms: C_27  and  O_32
REMARK                            x       y       z     vdW  Elec       q    Type
REMARK                         _______ _______ _______ _____ _____    ______ ____
ROOT
ATOM      1  N   UNL     1      36.426 -18.970 -21.890  0.00  0.00    -0.260 N 
ATOM      2  N   UNL     1      36.835 -21.643 -18.011  0.00  0.00    -0.247 N 
ATOM      3  N   UNL     1      36.654 -20.310 -19.933  0.00  0.00    -0.322 NA
ATOM      4  N   UNL     1      34.766 -21.568 -19.117  0.00  0.00    -0.170 NA
ATOM      5  C   UNL     1      35.870 -19.859 -20.935  0.00  0.00    +0.201 C 
ATOM      6  C   UNL     1      37.888 -18.892 -21.984  0.00  0.00    +0.120 C 
ATOM      7  C   UNL     1      34.546 -20.211 -21.093  0.00  0.00    +0.070 C 
ATOM      8  C   UNL     1      36.046 -21.149 -19.073  0.00  0.00    +0.150 C 
ATOM      9  C   UNL     1      34.042 -21.078 -20.144  0.00  0.00    +0.116 C 
ATOM     10  H   UNL     1      37.762 -21.311 -18.019  0.00  0.00    +0.165 HD
ENDROOT
BRANCH   1  14
ATOM     11  N   UNL     1      33.809 -14.120 -23.622  0.00  0.00    -0.280 N 
ATOM     12  N   UNL     1      34.457 -14.521 -22.511  0.00  0.00    -0.173 NA
ATOM     13  C   UNL     1      34.372 -16.150 -24.090  0.00  0.00    +0.032 A 
ATOM     14  C   UNL     1      35.725 -17.962 -22.604  0.00  0.00    +0.055 C 
ATOM     15  C   UNL     1      34.825 -15.788 -22.768  0.00  0.00    +0.103 A 
ATOM     16  C   UNL     1      33.727 -15.062 -24.606  0.00  0.00    +0.053 A 
ATOM     17  C   UNL     1      35.531 -16.712 -21.976  0.00  0.00    +0.036 C 
ATOM     18  C   UNL     1      34.548 -17.368 -24.736  0.00  0.00    +0.004 C 
ATOM     19  C   UNL     1      35.257 -18.272 -23.920  0.00  0.00    +0.015 C 
ATOM     20  C   UNL     1      33.052 -14.796 -25.887  0.00  0.00    +0.051 C 
ATOM     21  H   UNL     1      33.424 -13.219 -23.716  0.00  0.00    +0.189 HD
ENDBRANCH   1  14
BRANCH   2  22
ATOM     22  C   UNL     1      36.557 -22.517 -16.944  0.00  0.00    +0.064 C 
ATOM     23  C   UNL     1      37.585 -22.938 -16.101  0.00  0.00    +0.055 C 
ATOM     24  C   UNL     1      35.252 -22.961 -16.728  0.00  0.00    +0.055 C 
ATOM     25  C   UNL     1      34.976 -23.824 -15.668  0.00  0.00    +0.177 C 
ATOM     26  C   UNL     1      37.308 -23.802 -15.041  0.00  0.00    +0.177 C 
ATOM     27  C   UNL     1      36.004 -24.245 -14.825  0.00  0.00    +0.206 C 
BRANCH  25  28
ATOM     28  O   UNL     1      33.697 -24.250 -15.467  0.00  0.00    -0.468 OA
ATOM     29  C   UNL     1      32.666 -23.559 -16.170  0.00  0.00    +0.253 C 
ENDBRANCH  25  28
BRANCH  26  30
ATOM     30  O   UNL     1      38.323 -24.206 -14.225  0.00  0.00    -0.468 OA
ATOM     31  C   UNL     1      39.085 -25.334 -14.648  0.00  0.00    +0.253 C 
ENDBRANCH  26  30
BRANCH  27  32
ATOM     32  O   UNL     1      35.734 -25.091 -13.790  0.00  0.00    -0.465 OA
ATOM     33  C   UNL     1      35.383 -24.496 -12.543  0.00  0.00    +0.253 C 
ENDBRANCH  27  32
ENDBRANCH   2  22
TORSDOF 5
ENDMDL
MODEL 4
REMARK VINA RESULT:     -10.4      4.281     10.566
REMARK  Name = 24941243
REMARK  5 active torsions:
REMARK  status: ('A' for Active; 'I' for Inactive)
REMARK    1  A    between atoms: N_1  and  C_14
REMARK    2  A    between atoms: N_2  and  C_22
REMARK    3  A    between atoms: C_25  and  O_28
REMARK    4  A    between atoms: C_26  and  O_30
REMARK    5  A    between atoms: C_27  and  O_32
REMARK                            x       y       z     vdW  Elec       q    Type
REMARK                         _______ _______ _______ _____ _____    ______ ____
ROOT
ATOM      1  N   UNL     1      34.592 -23.011 -17.466  0.00  0.00    -0.260 N 
ATOM      2  N   UNL     1      33.960 -20.163 -21.188  0.00  0.00    -0.247 N 
ATOM      3  N   UNL     1      34.252 -21.579 -19.340  0.00  0.00    -0.322 NA
ATOM      4  N   UNL     1      36.144 -20.547 -20.419  0.00  0.00    -0.170 NA
ATOM      5  C   UNL     1      35.111 -22.166 -18.480  0.00  0.00    +0.201 C 
ATOM      6  C   UNL     1      33.226 -23.519 -17.630  0.00  0.00    +0.120 C 
ATOM      7  C   UNL     1      36.479 -21.995 -18.525  0.00  0.00    +0.070 C 
ATOM      8  C   UNL     1      34.828 -20.795 -20.270  0.00  0.00    +0.150 C 
ATOM      9  C   UNL     1      36.944 -21.166 -19.525  0.00  0.00    +0.116 C 
ATOM     10  H   UNL     1      33.009 -20.373 -21.041  0.00  0.00    +0.165 HD
ENDROOT
BRANCH   1  14
ATOM     11  N   UNL     1      35.594 -24.279 -11.920  0.00  0.00    -0.280 N 
ATOM     12  N   UNL     1      34.522 -24.303 -12.735  0.00  0.00    -0.173 NA
ATOM     13  C   UNL     1      36.395 -23.589 -13.802  0.00  0.00    +0.032 A 
ATOM     14  C   UNL     1      35.163 -23.228 -16.183  0.00  0.00    +0.055 C 
ATOM     15  C   UNL     1      34.986 -23.878 -13.923  0.00  0.00    +0.103 A 
ATOM     16  C   UNL     1      36.750 -23.855 -12.510  0.00  0.00    +0.053 A 
ATOM     17  C   UNL     1      34.323 -23.699 -15.150  0.00  0.00    +0.036 C 
ATOM     18  C   UNL     1      37.248 -23.126 -14.796  0.00  0.00    +0.004 C 
ATOM     19  C   UNL     1      36.557 -22.957 -16.012  0.00  0.00    +0.015 C 
ATOM     20  C   UNL     1      38.017 -23.765 -11.766  0.00  0.00    +0.051 C 
ATOM     21  H   UNL     1      35.548 -24.545 -10.973  0.00  0.00    +0.189 HD
ENDBRANCH   1  14
BRANCH   2  22
ATOM     22  C   UNL     1      34.188 -19.295 -22.271  0.00  0.00    +0.064 C 
ATOM     23  C   UNL     1      33.813 -19.674 -23.559  0.00  0.00    +0.055 C 
ATOM     24  C   UNL     1      34.786 -18.052 -22.055  0.00  0.00    +0.055 C 
ATOM     25  C   UNL     1      35.008 -17.190 -23.128  0.00  0.00    +0.177 C 
ATOM     26  C   UNL     1      34.037 -18.811 -24.633  0.00  0.00    +0.177 C 
ATOM     27  C   UNL     1      34.634 -17.569 -24.417  0.00  0.00    +0.206 C 
BRANCH  25  28
ATOM     28  O   UNL     1      35.593 -15.980 -22.905  0.00  0.00    -0.468 OA
ATOM     29  C   UNL     1      34.756 -14.939 -22.407  0.00  0.00    +0.253 C 
ENDBRANCH  25  28
BRANCH  26  30
ATOM     30  O   UNL     1      33.666 -19.195 -25.887  0.00  0.00    -0.468 OA
ATOM     31  C   UNL     1      32.272 -19.370 -26.126  0.00  0.00    +0.253 C 
ENDBRANCH  26  30
BRANCH  27  32
ATOM     32  O   UNL     1      34.853 -16.727 -25.467  0.00  0.00    -0.465 OA
ATOM     33  C   UNL     1      33.758 -15.915 -25.885  0.00  0.00    +0.253 C 
ENDBRANCH  27  32
ENDBRANCH   2  22
TORSDOF 5
ENDMDL
MODEL 5
REMARK VINA RESULT:     -10.4      4.281     10.666
REMARK  Name = 24941243
REMARK  5 active torsions:
REMARK  status: ('A' for Active; 'I' for Inactive)
REMARK    1  A    between atoms: N_1  and  C_14
REMARK    2  A    between atoms: N_2  and  C_22
REMARK    3  A    between atoms: C_25  and  O_28
REMARK    4  A    between atoms: C_26  and  O_30
REMARK    5  A    between atoms: C_27  and  O_32
REMARK                            x       y       z     vdW  Elec       q    Type
REMARK                         _______ _______ _______ _____ _____    ______ ____
ROOT
ATOM      1  N   UNL     1      34.592 -23.011 -17.466  0.00  0.00    -0.260 N 
ATOM      2  N   UNL     1      33.956 -20.161 -21.185  0.00  0.00    -0.247 N 
ATOM      3  N   UNL     1      34.250 -21.578 -19.339  0.00  0.00    -0.322 NA
ATOM      4  N   UNL     1      36.141 -20.547 -20.420  0.00  0.00    -0.170 NA
ATOM      5  C   UNL     1      35.109 -22.166 -18.481  0.00  0.00    +0.201 C 
ATOM      6  C   UNL     1      33.225 -23.518 -17.628  0.00  0.00    +0.120 C 
ATOM      7  C   UNL     1      36.478 -21.996 -18.528  0.00  0.00    +0.070 C 
ATOM      8  C   UNL     1      34.825 -20.793 -20.269  0.00  0.00    +0.150 C 
ATOM      9  C   UNL     1      36.942 -21.168 -19.529  0.00  0.00    +0.116 C 
ATOM     10  H   UNL     1      33.005 -20.369 -21.037  0.00  0.00    +0.165 HD
ENDROOT
BRANCH   1  14
ATOM     11  N   UNL     1      35.604 -24.287 -11.924  0.00  0.00    -0.280 N 
ATOM     12  N   UNL     1      34.530 -24.311 -12.737  0.00  0.00    -0.173 NA
ATOM     13  C   UNL     1      36.401 -23.593 -13.806  0.00  0.00    +0.032 A 
ATOM     14  C   UNL     1      35.165 -23.230 -16.185  0.00  0.00    +0.055 C 
ATOM     15  C   UNL     1      34.992 -23.883 -13.925  0.00  0.00    +0.103 A 
ATOM     16  C   UNL     1      36.758 -23.861 -12.515  0.00  0.00    +0.053 A 
ATOM     17  C   UNL     1      34.327 -23.703 -15.152  0.00  0.00    +0.036 C 
ATOM     18  C   UNL     1      37.252 -23.128 -14.801  0.00  0.00    +0.004 C 
ATOM     19  C   UNL     1      36.559 -22.957 -16.016  0.00  0.00    +0.015 C 
ATOM     20  C   UNL     1      38.026 -23.771 -11.773  0.00  0.00    +0.051 C 
ATOM     21  H   UNL     1      35.559 -24.554 -10.978  0.00  0.00    +0.189 HD
ENDBRANCH   1  14
BRANCH   2  22
ATOM     22  C   UNL     1      34.183 -19.291 -22.268  0.00  0.00    +0.064 C 
ATOM     23  C   UNL     1      34.781 -18.051 -22.053  0.00  0.00    +0.055 C 
ATOM     24  C   UNL     1      33.811 -19.672 -23.559  0.00  0.00    +0.055 C 
ATOM     25  C   UNL     1      34.039 -18.812 -24.632  0.00  0.00    +0.177 C 
ATOM     26  C   UNL     1      35.008 -17.190 -23.127  0.00  0.00    +0.177 C 
ATOM     27  C   UNL     1      34.637 -17.570 -24.416  0.00  0.00    +0.206 C 
BRANCH  25  28
ATOM     28  O   UNL     1      33.672 -19.195 -25.887  0.00  0.00    -0.468 OA
ATOM     29  C   UNL     1      32.278 -19.372 -26.128  0.00  0.00    +0.253 C 
ENDBRANCH  25  28
BRANCH  26  30
ATOM     30  O   UNL     1      35.593 -15.979 -22.902  0.00  0.00    -0.468 OA
ATOM     31  C   UNL     1      34.756 -14.937 -22.407  0.00  0.00    +0.253 C 
ENDBRANCH  26  30
BRANCH  27  32
ATOM     32  O   UNL     1      34.858 -16.728 -25.466  0.00  0.00    -0.465 OA
ATOM     33  C   UNL     1      33.764 -15.916 -25.885  0.00  0.00    +0.253 C 
ENDBRANCH  27  32
ENDBRANCH   2  22
TORSDOF 5
ENDMDL
MODEL 6
REMARK VINA RESULT:     -10.1      7.381     11.908
REMARK  Name = 24941243
REMARK  5 active torsions:
REMARK  status: ('A' for Active; 'I' for Inactive)
REMARK    1  A    between atoms: N_1  and  C_14
REMARK    2  A    between atoms: N_2  and  C_22
REMARK    3  A    between atoms: C_25  and  O_28
REMARK    4  A    between atoms: C_26  and  O_30
REMARK    5  A    between atoms: C_27  and  O_32
REMARK                            x       y       z     vdW  Elec       q    Type
REMARK                         _______ _______ _______ _____ _____    ______ ____
ROOT
ATOM      1  N   UNL     1      32.697  -8.201 -22.670  0.00  0.00    -0.260 N 
ATOM      2  N   UNL     1      33.224 -12.878 -23.129  0.00  0.00    -0.247 N 
ATOM      3  N   UNL     1      32.946 -10.561 -22.888  0.00  0.00    -0.322 NA
ATOM      4  N   UNL     1      34.654 -11.458 -24.333  0.00  0.00    -0.170 NA
ATOM      5  C   UNL     1      33.358  -9.323 -23.232  0.00  0.00    +0.201 C 
ATOM      6  C   UNL     1      31.884  -8.417 -21.468  0.00  0.00    +0.120 C 
ATOM      7  C   UNL     1      34.396  -9.075 -24.107  0.00  0.00    +0.070 C 
ATOM      8  C   UNL     1      33.628 -11.567 -23.466  0.00  0.00    +0.150 C 
ATOM      9  C   UNL     1      35.013 -10.192 -24.632  0.00  0.00    +0.116 C 
ATOM     10  H   UNL     1      32.472 -12.910 -22.494  0.00  0.00    +0.165 HD
ENDROOT
BRANCH   1  14
ATOM     11  N   UNL     1      30.858  -3.008 -24.404  0.00  0.00    -0.280 N 
ATOM     12  N   UNL     1      30.400  -3.963 -23.572  0.00  0.00    -0.173 NA
ATOM     13  C   UNL     1      32.380  -4.533 -24.527  0.00  0.00    +0.032 A 
ATOM     14  C   UNL     1      32.539  -6.929 -23.281  0.00  0.00    +0.055 C 
ATOM     15  C   UNL     1      31.328  -4.934 -23.623  0.00  0.00    +0.103 A 
ATOM     16  C   UNL     1      32.047  -3.298 -25.007  0.00  0.00    +0.053 A 
ATOM     17  C   UNL     1      31.388  -6.175 -22.963  0.00  0.00    +0.036 C 
ATOM     18  C   UNL     1      33.523  -5.249 -24.860  0.00  0.00    +0.004 C 
ATOM     19  C   UNL     1      33.556  -6.485 -24.185  0.00  0.00    +0.015 C 
ATOM     20  C   UNL     1      32.692  -2.368 -25.948  0.00  0.00    +0.051 C 
ATOM     21  H   UNL     1      30.373  -2.166 -24.564  0.00  0.00    +0.189 HD
ENDBRANCH   1  14
BRANCH   2  22
ATOM     22  C   UNL     1      33.686 -14.148 -23.523  0.00  0.00    +0.064 C 
ATOM     23  C   UNL     1      34.546 -14.865 -22.692  0.00  0.00    +0.055 C 
ATOM     24  C   UNL     1      33.281 -14.691 -24.743  0.00  0.00    +0.055 C 
ATOM     25  C   UNL     1      33.737 -15.950 -25.131  0.00  0.00    +0.177 C 
ATOM     26  C   UNL     1      35.002 -16.125 -23.081  0.00  0.00    +0.177 C 
ATOM     27  C   UNL     1      34.597 -16.668 -24.300  0.00  0.00    +0.206 C 
BRANCH  25  28
ATOM     28  O   UNL     1      33.334 -16.469 -26.325  0.00  0.00    -0.468 OA
ATOM     29  C   UNL     1      32.454 -17.590 -26.280  0.00  0.00    +0.253 C 
ENDBRANCH  25  28
BRANCH  26  30
ATOM     30  O   UNL     1      35.843 -16.815 -22.259  0.00  0.00    -0.468 OA
ATOM     31  C   UNL     1      35.337 -17.186 -20.979  0.00  0.00    +0.253 C 
ENDBRANCH  26  30
BRANCH  27  32
ATOM     32  O   UNL     1      35.044 -17.898 -24.680  0.00  0.00    -0.465 OA
ATOM     33  C   UNL     1      34.493 -19.025 -24.002  0.00  0.00    +0.253 C 
ENDBRANCH  27  32
ENDBRANCH   2  22
TORSDOF 5
ENDMDL
MODEL 7
REMARK VINA RESULT:     -10.1      7.373     11.752
REMARK  Name = 24941243
REMARK  5 active torsions:
REMARK  status: ('A' for Active; 'I' for Inactive)
REMARK    1  A    between atoms: N_1  and  C_14
REMARK    2  A    between atoms: N_2  and  C_22
REMARK    3  A    between atoms: C_25  and  O_28
REMARK    4  A    between atoms: C_26  and  O_30
REMARK    5  A    between atoms: C_27  and  O_32
REMARK                            x       y       z     vdW  Elec       q    Type
REMARK                         _______ _______ _______ _____ _____    ______ ____
ROOT
ATOM      1  N   UNL     1      32.699  -8.206 -22.665  0.00  0.00    -0.260 N 
ATOM      2  N   UNL     1      33.223 -12.884 -23.108  0.00  0.00    -0.247 N 
ATOM      3  N   UNL     1      32.946 -10.566 -22.875  0.00  0.00    -0.322 NA
ATOM      4  N   UNL     1      34.653 -11.469 -24.317  0.00  0.00    -0.170 NA
ATOM      5  C   UNL     1      33.359  -9.330 -23.223  0.00  0.00    +0.201 C 
ATOM      6  C   UNL     1      31.885  -8.416 -21.463  0.00  0.00    +0.120 C 
ATOM      7  C   UNL     1      34.397  -9.086 -24.099  0.00  0.00    +0.070 C 
ATOM      8  C   UNL     1      33.627 -11.575 -23.450  0.00  0.00    +0.150 C 
ATOM      9  C   UNL     1      35.013 -10.205 -24.621  0.00  0.00    +0.116 C 
ATOM     10  H   UNL     1      32.471 -12.913 -22.473  0.00  0.00    +0.165 HD
ENDROOT
BRANCH   1  14
ATOM     11  N   UNL     1      30.860  -3.018 -24.419  0.00  0.00    -0.280 N 
ATOM     12  N   UNL     1      30.401  -3.972 -23.585  0.00  0.00    -0.173 NA
ATOM     13  C   UNL     1      32.383  -4.543 -24.534  0.00  0.00    +0.032 A 
ATOM     14  C   UNL     1      32.541  -6.936 -23.281  0.00  0.00    +0.055 C 
ATOM     15  C   UNL     1      31.330  -4.942 -23.632  0.00  0.00    +0.103 A 
ATOM     16  C   UNL     1      32.050  -3.310 -25.019  0.00  0.00    +0.053 A 
ATOM     17  C   UNL     1      31.389  -6.181 -22.967  0.00  0.00    +0.036 C 
ATOM     18  C   UNL     1      33.527  -5.260 -24.863  0.00  0.00    +0.004 C 
ATOM     19  C   UNL     1      33.559  -6.494 -24.184  0.00  0.00    +0.015 C 
ATOM     20  C   UNL     1      32.697  -2.382 -25.962  0.00  0.00    +0.051 C 
ATOM     21  H   UNL     1      30.375  -2.178 -24.583  0.00  0.00    +0.189 HD
ENDBRANCH   1  14
BRANCH   2  22
ATOM     22  C   UNL     1      33.684 -14.156 -23.497  0.00  0.00    +0.064 C 
ATOM     23  C   UNL     1      33.277 -14.703 -24.713  0.00  0.00    +0.055 C 
ATOM     24  C   UNL     1      34.552 -14.867 -22.668  0.00  0.00    +0.055 C 
ATOM     25  C   UNL     1      35.011 -16.125 -23.055  0.00  0.00    +0.177 C 
ATOM     26  C   UNL     1      33.736 -15.962 -25.100  0.00  0.00    +0.177 C 
ATOM     27  C   UNL     1      34.604 -16.673 -24.271  0.00  0.00    +0.206 C 
BRANCH  25  28
ATOM     28  O   UNL     1      35.859 -16.810 -22.236  0.00  0.00    -0.468 OA
ATOM     29  C   UNL     1      35.344 -17.225 -20.973  0.00  0.00    +0.253 C 
ENDBRANCH  25  28
BRANCH  26  30
ATOM     30  O   UNL     1      33.329 -16.486 -26.291  0.00  0.00    -0.468 OA
ATOM     31  C   UNL     1      32.444 -17.602 -26.239  0.00  0.00    +0.253 C 
ENDBRANCH  26  30
BRANCH  27  32
ATOM     32  O   UNL     1      35.051 -17.904 -24.649  0.00  0.00    -0.465 OA
ATOM     33  C   UNL     1      34.486 -19.031 -23.984  0.00  0.00    +0.253 C 
ENDBRANCH  27  32
ENDBRANCH   2  22
TORSDOF 5
ENDMDL
MODEL 8
REMARK VINA RESULT:     -10.0      5.857     11.510
REMARK  Name = 24941243
REMARK  5 active torsions:
REMARK  status: ('A' for Active; 'I' for Inactive)
REMARK    1  A    between atoms: N_1  and  C_14
REMARK    2  A    between atoms: N_2  and  C_22
REMARK    3  A    between atoms: C_25  and  O_28
REMARK    4  A    between atoms: C_26  and  O_30
REMARK    5  A    between atoms: C_27  and  O_32
REMARK                            x       y       z     vdW  Elec       q    Type
REMARK                         _______ _______ _______ _____ _____    ______ ____
ROOT
ATOM      1  N   UNL     1      35.042 -18.539 -22.190  0.00  0.00    -0.260 N 
ATOM      2  N   UNL     1      33.854 -14.169 -23.553  0.00  0.00    -0.247 N 
ATOM      3  N   UNL     1      34.438 -16.345 -22.897  0.00  0.00    -0.322 NA
ATOM      4  N   UNL     1      34.557 -14.508 -21.340  0.00  0.00    -0.170 NA
ATOM      5  C   UNL     1      34.872 -17.158 -21.912  0.00  0.00    +0.201 C 
ATOM      6  C   UNL     1      35.124 -18.949 -23.595  0.00  0.00    +0.120 C 
ATOM      7  C   UNL     1      35.165 -16.728 -20.634  0.00  0.00    +0.070 C 
ATOM      8  C   UNL     1      34.306 -15.051 -22.547  0.00  0.00    +0.150 C 
ATOM      9  C   UNL     1      34.987 -15.379 -20.403  0.00  0.00    +0.116 C 
ATOM     10  H   UNL     1      33.683 -14.609 -24.418  0.00  0.00    +0.165 HD
ENDROOT
BRANCH   1  14
ATOM     11  N   UNL     1      35.859 -22.716 -18.285  0.00  0.00    -0.280 N 
ATOM     12  N   UNL     1      36.645 -21.830 -18.926  0.00  0.00    -0.173 NA
ATOM     13  C   UNL     1      34.464 -21.635 -19.527  0.00  0.00    +0.032 A 
ATOM     14  C   UNL     1      34.899 -19.604 -21.261  0.00  0.00    +0.055 C 
ATOM     15  C   UNL     1      35.805 -21.135 -19.712  0.00  0.00    +0.103 A 
ATOM     16  C   UNL     1      34.536 -22.644 -18.610  0.00  0.00    +0.053 A 
ATOM     17  C   UNL     1      36.057 -20.079 -20.608  0.00  0.00    +0.036 C 
ATOM     18  C   UNL     1      33.306 -21.190 -20.153  0.00  0.00    +0.004 C 
ATOM     19  C   UNL     1      33.588 -20.135 -21.042  0.00  0.00    +0.015 C 
ATOM     20  C   UNL     1      33.535 -23.540 -18.007  0.00  0.00    +0.051 C 
ATOM     21  H   UNL     1      36.212 -23.365 -17.634  0.00  0.00    +0.189 HD
ENDBRANCH   1  14
BRANCH   2  22
ATOM     22  C   UNL     1      33.601 -12.785 -23.563  0.00  0.00    +0.064 C 
ATOM     23  C   UNL     1      34.367 -11.942 -24.367  0.00  0.00    +0.055 C 
ATOM     24  C   UNL     1      32.582 -12.256 -22.770  0.00  0.00    +0.055 C 
ATOM     25  C   UNL     1      32.329 -10.885 -22.783  0.00  0.00    +0.177 C 
ATOM     26  C   UNL     1      34.114 -10.570 -24.379  0.00  0.00    +0.177 C 
ATOM     27  C   UNL     1      33.095 -10.042 -23.587  0.00  0.00    +0.206 C 
BRANCH  25  28
ATOM     28  O   UNL     1      31.331 -10.381 -22.004  0.00  0.00    -0.468 OA
ATOM     29  C   UNL     1      31.494 -10.489 -20.592  0.00  0.00    +0.253 C 
ENDBRANCH  25  28
BRANCH  26  30
ATOM     30  O   UNL     1      34.870  -9.758 -25.170  0.00  0.00    -0.468 OA
ATOM     31  C   UNL     1      35.665 -10.386 -26.173  0.00  0.00    +0.253 C 
ENDBRANCH  26  30
BRANCH  27  32
ATOM     32  O   UNL     1      32.849  -8.701 -23.598  0.00  0.00    -0.465 OA
ATOM     33  C   UNL     1      33.506  -7.914 -22.607  0.00  0.00    +0.253 C 
ENDBRANCH  27  32
ENDBRANCH   2  22
TORSDOF 5
ENDMDL
MODEL 9
REMARK VINA RESULT:     -10.0      5.853     11.405
REMARK  Name = 24941243
REMARK  5 active torsions:
REMARK  status: ('A' for Active; 'I' for Inactive)
REMARK    1  A    between atoms: N_1  and  C_14
REMARK    2  A    between atoms: N_2  and  C_22
REMARK    3  A    between atoms: C_25  and  O_28
REMARK    4  A    between atoms: C_26  and  O_30
REMARK    5  A    between atoms: C_27  and  O_32
REMARK                            x       y       z     vdW  Elec       q    Type
REMARK                         _______ _______ _______ _____ _____    ______ ____
ROOT
ATOM      1  N   UNL     1      35.092 -18.529 -22.166  0.00  0.00    -0.260 N 
ATOM      2  N   UNL     1      33.885 -14.173 -23.556  0.00  0.00    -0.247 N 
ATOM      3  N   UNL     1      34.479 -16.342 -22.887  0.00  0.00    -0.322 NA
ATOM      4  N   UNL     1      34.545 -14.505 -21.328  0.00  0.00    -0.170 NA
ATOM      5  C   UNL     1      34.901 -17.151 -21.892  0.00  0.00    +0.201 C 
ATOM      6  C   UNL     1      35.208 -18.939 -23.570  0.00  0.00    +0.120 C 
ATOM      7  C   UNL     1      35.162 -16.717 -20.609  0.00  0.00    +0.070 C 
ATOM      8  C   UNL     1      34.325 -15.051 -22.540  0.00  0.00    +0.150 C 
ATOM      9  C   UNL     1      34.965 -15.371 -20.382  0.00  0.00    +0.116 C 
ATOM     10  H   UNL     1      33.737 -14.615 -24.424  0.00  0.00    +0.165 HD
ENDROOT
BRANCH   1  14
ATOM     11  N   UNL     1      35.876 -22.713 -18.261  0.00  0.00    -0.280 N 
ATOM     12  N   UNL     1      36.668 -21.825 -18.894  0.00  0.00    -0.173 NA
ATOM     13  C   UNL     1      34.492 -21.630 -19.514  0.00  0.00    +0.032 A 
ATOM     14  C   UNL     1      34.941 -19.596 -21.241  0.00  0.00    +0.055 C 
ATOM     15  C   UNL     1      35.835 -21.129 -19.686  0.00  0.00    +0.103 A 
ATOM     16  C   UNL     1      34.556 -22.641 -18.598  0.00  0.00    +0.053 A 
ATOM     17  C   UNL     1      36.094 -20.072 -20.578  0.00  0.00    +0.036 C 
ATOM     18  C   UNL     1      33.339 -21.184 -20.149  0.00  0.00    +0.004 C 
ATOM     19  C   UNL     1      33.629 -20.127 -21.034  0.00  0.00    +0.015 C 
ATOM     20  C   UNL     1      33.550 -23.537 -18.004  0.00  0.00    +0.051 C 
ATOM     21  H   UNL     1      36.223 -23.363 -17.608  0.00  0.00    +0.189 HD
ENDBRANCH   1  14
BRANCH   2  22
ATOM     22  C   UNL     1      33.617 -12.792 -23.572  0.00  0.00    +0.064 C 
ATOM     23  C   UNL     1      32.589 -12.273 -22.786  0.00  0.00    +0.055 C 
ATOM     24  C   UNL     1      34.381 -11.942 -24.372  0.00  0.00    +0.055 C 
ATOM     25  C   UNL     1      34.117 -10.573 -24.384  0.00  0.00    +0.177 C 
ATOM     26  C   UNL     1      32.325 -10.903 -22.799  0.00  0.00    +0.177 C 
ATOM     27  C   UNL     1      33.089 -10.053 -23.598  0.00  0.00    +0.206 C 
BRANCH  25  28
ATOM     28  O   UNL     1      34.871  -9.753 -25.169  0.00  0.00    -0.468 OA
ATOM     29  C   UNL     1      35.667 -10.373 -26.176  0.00  0.00    +0.253 C 
ENDBRANCH  25  28
BRANCH  26  30
ATOM     30  O   UNL     1      31.316 -10.409 -22.026  0.00  0.00    -0.468 OA
ATOM     31  C   UNL     1      31.448 -10.561 -20.615  0.00  0.00    +0.253 C 
ENDBRANCH  26  30
BRANCH  27  32
ATOM     32  O   UNL     1      32.830  -8.714 -23.612  0.00  0.00    -0.465 OA
ATOM     33  C   UNL     1      33.486  -7.918 -22.629  0.00  0.00    +0.253 C 
ENDBRANCH  27  32
ENDBRANCH   2  22
TORSDOF 5
ENDMDL
