MODEL 1
REMARK VINA RESULT:     -12.0      0.000      0.000
REMARK  Name = 42628063
REMARK  6 active torsions:
REMARK  status: ('A' for Active; 'I' for Inactive)
REMARK    1  A    between atoms: C_1  and  N_3
REMARK    2  A    between atoms: C_1  and  C_21
REMARK    3  A    between atoms: C_4  and  N_10
REMARK    4  A    between atoms: C_11  and  C_15
REMARK    5  A    between atoms: N_20  and  C_24
REMARK    6  A    between atoms: C_27  and  N_31
REMARK                            x       y       z     vdW  Elec       q    Type
REMARK                         _______ _______ _______ _____ _____    ______ ____
ROOT
ATOM      1  C   UNL     1      33.459 -17.197 -25.672  0.00  0.00    +0.010 C 
ENDROOT
BRANCH   1   3
ATOM      2  F   UNL     1      36.784 -17.752 -22.726  0.00  0.00    -0.238 F 
ATOM      3  N   UNL     1      34.450 -17.791 -24.788  0.00  0.00    +0.396 N 
ATOM      4  C   UNL     1      35.031 -19.267 -23.098  0.00  0.00    +0.082 C 
ATOM      5  C   UNL     1      35.431 -17.863 -22.655  0.00  0.00    +0.156 C 
ATOM      6  C   UNL     1      33.981 -19.036 -24.178  0.00  0.00    -0.054 C 
ATOM      7  C   UNL     1      34.794 -16.915 -23.663  0.00  0.00    -0.039 C 
ATOM      8  H   UNL     1      35.255 -17.953 -25.392  0.00  0.00    -0.079 HD
BRANCH   4  10
ATOM      9  O   UNL     1      36.412 -19.939 -20.672  0.00  0.00    -0.270 OA
ATOM     10  N   UNL     1      34.529 -20.073 -22.020  0.00  0.00    -0.302 N 
ATOM     11  C   UNL     1      35.272 -20.348 -20.877  0.00  0.00    +0.252 C 
ATOM     12  H   UNL     1      33.621 -20.446 -22.093  0.00  0.00    +0.150 HD
BRANCH  11  15
ATOM     13 CL   UNL     1      34.413 -23.821 -16.660  0.00  0.00    -0.075 Cl
ATOM     14  S   UNL     1      35.594 -22.058 -18.736  0.00  0.00    -0.071 S 
ATOM     15  C   UNL     1      34.620 -21.218 -19.865  0.00  0.00    +0.084 C 
ATOM     16  C   UNL     1      33.279 -21.468 -19.679  0.00  0.00    +0.012 C 
ATOM     17  C   UNL     1      33.047 -22.364 -18.594  0.00  0.00    +0.019 C 
ATOM     18  C   UNL     1      34.221 -22.762 -17.993  0.00  0.00    +0.087 C 
ENDBRANCH  11  15
ENDBRANCH   4  10
ENDBRANCH   1   3
BRANCH   1  21
ATOM     19  O   UNL     1      34.271 -15.204 -26.762  0.00  0.00    -0.277 OA
ATOM     20  N   UNL     1      33.233 -15.043 -24.663  0.00  0.00    -0.284 N 
ATOM     21  C   UNL     1      33.717 -15.704 -25.789  0.00  0.00    +0.205 C 
ATOM     22  H   UNL     1      32.809 -15.605 -23.976  0.00  0.00    +0.155 HD
BRANCH  20  24
ATOM     23  F   UNL     1      32.842 -14.046 -22.089  0.00  0.00    -0.203 F 
ATOM     24  C   UNL     1      33.279 -13.654 -24.392  0.00  0.00    +0.078 C 
ATOM     25  C   UNL     1      33.079 -13.187 -23.092  0.00  0.00    +0.155 C 
ATOM     26  C   UNL     1      33.524 -12.751 -25.426  0.00  0.00    +0.018 C 
ATOM     27  C   UNL     1      33.371 -10.917 -23.861  0.00  0.00    +0.061 C 
ATOM     28  C   UNL     1      33.125 -11.820 -22.827  0.00  0.00    +0.046 C 
ATOM     29  C   UNL     1      33.570 -11.383 -25.161  0.00  0.00    +0.017 C 
BRANCH  27  31
ATOM     30  O   UNL     1      31.171  -9.334 -22.852  0.00  0.00    -0.269 OA
ATOM     31  N   UNL     1      33.419  -9.494 -23.586  0.00  0.00    -0.233 N 
ATOM     32  C   UNL     1      32.255  -8.822 -23.130  0.00  0.00    +0.257 C 
ATOM     33  C   UNL     1      34.609  -8.781 -23.746  0.00  0.00    +0.072 C 
ATOM     34  C   UNL     1      32.379  -7.347 -22.915  0.00  0.00    +0.059 C 
ATOM     35  C   UNL     1      34.703  -7.467 -23.515  0.00  0.00    +0.017 C 
ATOM     36  C   UNL     1      33.549  -6.730 -23.094  0.00  0.00    +0.006 C 
ENDBRANCH  27  31
ENDBRANCH  20  24
ENDBRANCH   1  21
TORSDOF 6
ENDMDL
MODEL 2
REMARK VINA RESULT:     -12.0      3.961      6.703
REMARK  Name = 42628063
REMARK  6 active torsions:
REMARK  status: ('A' for Active; 'I' for Inactive)
REMARK    1  A    between atoms: C_1  and  N_3
REMARK    2  A    between atoms: C_1  and  C_21
REMARK    3  A    between atoms: C_4  and  N_10
REMARK    4  A    between atoms: C_11  and  C_15
REMARK    5  A    between atoms: N_20  and  C_24
REMARK    6  A    between atoms: C_27  and  N_31
REMARK                            x       y       z     vdW  Elec       q    Type
REMARK                         _______ _______ _______ _____ _____    ______ ____
ROOT
ATOM      1  C   UNL     1      35.844 -21.294 -20.423  0.00  0.00    +0.010 C 
ENDROOT
BRANCH   1   3
ATOM      2  F   UNL     1      33.470 -22.764 -16.923  0.00  0.00    -0.238 F 
ATOM      3  N   UNL     1      35.407 -21.607 -19.070  0.00  0.00    +0.396 N 
ATOM      4  C   UNL     1      35.802 -22.502 -16.970  0.00  0.00    +0.082 C 
ATOM      5  C   UNL     1      34.586 -23.208 -17.561  0.00  0.00    +0.156 C 
ATOM      6  C   UNL     1      36.524 -21.921 -18.179  0.00  0.00    -0.054 C 
ATOM      7  C   UNL     1      34.532 -22.783 -19.023  0.00  0.00    -0.039 C 
ATOM      8  H   UNL     1      34.915 -20.766 -18.770  0.00  0.00    -0.079 HD
BRANCH   4  10
ATOM      9  O   UNL     1      35.397 -23.342 -14.255  0.00  0.00    -0.270 OA
ATOM     10  N   UNL     1      36.646 -23.382 -16.209  0.00  0.00    -0.302 N 
ATOM     11  C   UNL     1      36.369 -23.735 -14.893  0.00  0.00    +0.252 C 
ATOM     12  H   UNL     1      37.452 -23.750 -16.637  0.00  0.00    +0.150 HD
BRANCH  11  15
ATOM     13 CL   UNL     1      40.914 -26.686 -13.784  0.00  0.00    -0.075 Cl
ATOM     14  S   UNL     1      38.861 -24.917 -14.996  0.00  0.00    -0.071 S 
ATOM     15  C   UNL     1      37.353 -24.635 -14.236  0.00  0.00    +0.084 C 
ATOM     16  C   UNL     1      37.239 -25.314 -13.044  0.00  0.00    +0.012 C 
ATOM     17  C   UNL     1      38.406 -26.079 -12.750  0.00  0.00    +0.019 C 
ATOM     18  C   UNL     1      39.367 -25.953 -13.729  0.00  0.00    +0.087 C 
ENDBRANCH  11  15
ENDBRANCH   4  10
ENDBRANCH   1   3
BRANCH   1  21
ATOM     19  O   UNL     1      33.757 -20.156 -20.836  0.00  0.00    -0.277 OA
ATOM     20  N   UNL     1      35.759 -19.261 -21.676  0.00  0.00    -0.284 N 
ATOM     21  C   UNL     1      34.974 -20.186 -20.992  0.00  0.00    +0.205 C 
ATOM     22  H   UNL     1      36.725 -19.441 -21.697  0.00  0.00    +0.155 HD
BRANCH  20  24
ATOM     23  F   UNL     1      34.914 -19.326 -24.332  0.00  0.00    -0.203 F 
ATOM     24  C   UNL     1      35.327 -18.091 -22.344  0.00  0.00    +0.078 C 
ATOM     25  C   UNL     1      34.910 -18.157 -23.675  0.00  0.00    +0.155 C 
ATOM     26  C   UNL     1      35.318 -16.869 -21.672  0.00  0.00    +0.018 C 
ATOM     27  C   UNL     1      34.476 -15.781 -23.658  0.00  0.00    +0.061 C 
ATOM     28  C   UNL     1      34.485 -17.003 -24.331  0.00  0.00    +0.046 C 
ATOM     29  C   UNL     1      34.893 -15.714 -22.329  0.00  0.00    +0.017 C 
BRANCH  27  31
ATOM     30  O   UNL     1      33.147 -15.711 -26.226  0.00  0.00    -0.269 OA
ATOM     31  N   UNL     1      34.034 -14.581 -24.341  0.00  0.00    -0.233 N 
ATOM     32  C   UNL     1      33.427 -14.677 -25.620  0.00  0.00    +0.257 C 
ATOM     33  C   UNL     1      34.181 -13.329 -23.740  0.00  0.00    +0.072 C 
ATOM     34  C   UNL     1      33.044 -13.388 -26.274  0.00  0.00    +0.059 C 
ATOM     35  C   UNL     1      33.799 -12.192 -24.331  0.00  0.00    +0.017 C 
ATOM     36  C   UNL     1      33.220 -12.226 -25.640  0.00  0.00    +0.006 C 
ENDBRANCH  27  31
ENDBRANCH  20  24
ENDBRANCH   1  21
TORSDOF 6
ENDMDL
MODEL 3
REMARK VINA RESULT:     -11.9      3.990      6.143
REMARK  Name = 42628063
REMARK  6 active torsions:
REMARK  status: ('A' for Active; 'I' for Inactive)
REMARK    1  A    between atoms: C_1  and  N_3
REMARK    2  A    between atoms: C_1  and  C_21
REMARK    3  A    between atoms: C_4  and  N_10
REMARK    4  A    between atoms: C_11  and  C_15
REMARK    5  A    between atoms: N_20  and  C_24
REMARK    6  A    between atoms: C_27  and  N_31
REMARK                            x       y       z     vdW  Elec       q    Type
REMARK                         _______ _______ _______ _____ _____    ______ ____
ROOT
ATOM      1  C   UNL     1      36.062 -20.866 -20.563  0.00  0.00    +0.010 C 
ENDROOT
BRANCH   1   3
ATOM      2  F   UNL     1      33.576 -22.629 -17.284  0.00  0.00    -0.238 F 
ATOM      3  N   UNL     1      35.574 -21.283 -19.257  0.00  0.00    +0.396 N 
ATOM      4  C   UNL     1      35.900 -22.315 -17.208  0.00  0.00    +0.082 C 
ATOM      5  C   UNL     1      34.728 -23.004 -17.901  0.00  0.00    +0.156 C 
ATOM      6  C   UNL     1      36.659 -21.634 -18.340  0.00  0.00    -0.054 C 
ATOM      7  C   UNL     1      34.728 -22.478 -19.331  0.00  0.00    -0.039 C 
ATOM      8  H   UNL     1      35.049 -20.476 -18.922  0.00  0.00    -0.079 HD
BRANCH   4  10
ATOM      9  O   UNL     1      35.400 -23.347 -14.576  0.00  0.00    -0.270 OA
ATOM     10  N   UNL     1      36.731 -23.227 -16.473  0.00  0.00    -0.302 N 
ATOM     11  C   UNL     1      36.408 -23.675 -15.196  0.00  0.00    +0.252 C 
ATOM     12  H   UNL     1      37.563 -23.548 -16.889  0.00  0.00    +0.150 HD
BRANCH  11  15
ATOM     13 CL   UNL     1      40.963 -26.616 -14.104  0.00  0.00    -0.075 Cl
ATOM     14  S   UNL     1      38.923 -24.809 -15.281  0.00  0.00    -0.071 S 
ATOM     15  C   UNL     1      37.384 -24.597 -14.560  0.00  0.00    +0.084 C 
ATOM     16  C   UNL     1      37.241 -25.349 -13.415  0.00  0.00    +0.012 C 
ATOM     17  C   UNL     1      38.410 -26.112 -13.126  0.00  0.00    +0.019 C 
ATOM     18  C   UNL     1      39.402 -25.911 -14.061  0.00  0.00    +0.087 C 
ENDBRANCH  11  15
ENDBRANCH   4  10
ENDBRANCH   1   3
BRANCH   1  21
ATOM     19  O   UNL     1      34.039 -19.997 -21.550  0.00  0.00    -0.277 OA
ATOM     20  N   UNL     1      35.803 -18.537 -21.031  0.00  0.00    -0.284 N 
ATOM     21  C   UNL     1      35.163 -19.772 -21.114  0.00  0.00    +0.205 C 
ATOM     22  H   UNL     1      36.708 -18.541 -20.646  0.00  0.00    +0.155 HD
BRANCH  20  24
ATOM     23  F   UNL     1      35.586 -17.854 -23.725  0.00  0.00    -0.203 F 
ATOM     24  C   UNL     1      35.301 -17.278 -21.437  0.00  0.00    +0.078 C 
ATOM     25  C   UNL     1      35.205 -16.966 -22.795  0.00  0.00    +0.155 C 
ATOM     26  C   UNL     1      34.903 -16.346 -20.479  0.00  0.00    +0.018 C 
ATOM     27  C   UNL     1      34.312 -14.793 -22.234  0.00  0.00    +0.061 C 
ATOM     28  C   UNL     1      34.711 -15.725 -23.192  0.00  0.00    +0.046 C 
ATOM     29  C   UNL     1      34.408 -15.104 -20.877  0.00  0.00    +0.017 C 
BRANCH  27  31
ATOM     30  O   UNL     1      32.175 -13.348 -20.927  0.00  0.00    -0.269 OA
ATOM     31  N   UNL     1      33.799 -13.502 -22.647  0.00  0.00    -0.233 N 
ATOM     32  C   UNL     1      32.716 -12.913 -21.943  0.00  0.00    +0.257 C 
ATOM     33  C   UNL     1      34.375 -12.820 -23.721  0.00  0.00    +0.072 C 
ATOM     34  C   UNL     1      32.217 -11.603 -22.464  0.00  0.00    +0.059 C 
ATOM     35  C   UNL     1      33.932 -11.632 -24.147  0.00  0.00    +0.017 C 
ATOM     36  C   UNL     1      32.815 -11.012 -23.501  0.00  0.00    +0.006 C 
ENDBRANCH  27  31
ENDBRANCH  20  24
ENDBRANCH   1  21
TORSDOF 6
ENDMDL
MODEL 4
REMARK VINA RESULT:     -11.8      4.825     10.480
REMARK  Name = 42628063
REMARK  6 active torsions:
REMARK  status: ('A' for Active; 'I' for Inactive)
REMARK    1  A    between atoms: C_1  and  N_3
REMARK    2  A    between atoms: C_1  and  C_21
REMARK    3  A    between atoms: C_4  and  N_10
REMARK    4  A    between atoms: C_11  and  C_15
REMARK    5  A    between atoms: N_20  and  C_24
REMARK    6  A    between atoms: C_27  and  N_31
REMARK                            x       y       z     vdW  Elec       q    Type
REMARK                         _______ _______ _______ _____ _____    ______ ____
ROOT
ATOM      1  C   UNL     1      33.238 -14.047 -26.491  0.00  0.00    +0.010 C 
ENDROOT
BRANCH   1   3
ATOM      2  F   UNL     1      36.082 -10.770 -25.388  0.00  0.00    -0.238 F 
ATOM      3  N   UNL     1      34.015 -13.073 -25.739  0.00  0.00    +0.396 N 
ATOM      4  C   UNL     1      34.157 -11.361 -24.184  0.00  0.00    +0.082 C 
ATOM      5  C   UNL     1      34.729 -10.848 -25.502  0.00  0.00    +0.156 C 
ATOM      6  C   UNL     1      33.284 -12.543 -24.588  0.00  0.00    -0.054 C 
ATOM      7  C   UNL     1      34.371 -11.900 -26.544  0.00  0.00    -0.039 C 
ATOM      8  H   UNL     1      34.844 -13.590 -25.449  0.00  0.00    -0.079 HD
BRANCH   4  10
ATOM      9  O   UNL     1      35.019  -8.690 -23.581  0.00  0.00    -0.270 OA
ATOM     10  N   UNL     1      33.414 -10.360 -23.469  0.00  0.00    -0.302 N 
ATOM     11  C   UNL     1      33.914  -9.086 -23.222  0.00  0.00    +0.252 C 
ATOM     12  H   UNL     1      32.514 -10.585 -23.141  0.00  0.00    +0.150 HD
BRANCH  11  15
ATOM     13 CL   UNL     1      30.389  -5.055 -21.839  0.00  0.00    -0.075 Cl
ATOM     14  S   UNL     1      32.187  -6.934 -23.270  0.00  0.00    -0.071 S 
ATOM     15  C   UNL     1      33.032  -8.175 -22.448  0.00  0.00    +0.084 C 
ATOM     16  C   UNL     1      32.768  -8.173 -21.096  0.00  0.00    +0.012 C 
ATOM     17  C   UNL     1      31.862  -7.136 -20.729  0.00  0.00    +0.019 C 
ATOM     18  C   UNL     1      31.466  -6.387 -21.816  0.00  0.00    +0.087 C 
ENDBRANCH  11  15
ENDBRANCH   4  10
ENDBRANCH   1   3
BRANCH   1  21
ATOM     19  O   UNL     1      32.745 -16.394 -26.229  0.00  0.00    -0.277 OA
ATOM     20  N   UNL     1      34.205 -15.336 -24.726  0.00  0.00    -0.284 N 
ATOM     21  C   UNL     1      33.346 -15.406 -25.820  0.00  0.00    +0.205 C 
ATOM     22  H   UNL     1      34.607 -14.456 -24.544  0.00  0.00    +0.155 HD
BRANCH  20  24
ATOM     23  F   UNL     1      34.887 -14.836 -22.069  0.00  0.00    -0.203 F 
ATOM     24  C   UNL     1      34.567 -16.382 -23.845  0.00  0.00    +0.078 C 
ATOM     25  C   UNL     1      34.903 -16.099 -22.520  0.00  0.00    +0.155 C 
ATOM     26  C   UNL     1      34.589 -17.700 -24.302  0.00  0.00    +0.018 C 
ATOM     27  C   UNL     1      35.280 -18.449 -22.112  0.00  0.00    +0.061 C 
ATOM     28  C   UNL     1      35.260 -17.132 -21.655  0.00  0.00    +0.046 C 
ATOM     29  C   UNL     1      34.945 -18.733 -23.436  0.00  0.00    +0.017 C 
BRANCH  27  31
ATOM     30  O   UNL     1      37.952 -18.962 -21.132  0.00  0.00    -0.269 OA
ATOM     31  N   UNL     1      35.651 -19.524 -21.212  0.00  0.00    -0.233 N 
ATOM     32  C   UNL     1      37.008 -19.694 -20.834  0.00  0.00    +0.257 C 
ATOM     33  C   UNL     1      34.679 -20.382 -20.693  0.00  0.00    +0.072 C 
ATOM     34  C   UNL     1      37.311 -20.854 -19.940  0.00  0.00    +0.059 C 
ATOM     35  C   UNL     1      34.970 -21.393 -19.868  0.00  0.00    +0.017 C 
ATOM     36  C   UNL     1      36.329 -21.637 -19.488  0.00  0.00    +0.006 C 
ENDBRANCH  27  31
ENDBRANCH  20  24
ENDBRANCH   1  21
TORSDOF 6
ENDMDL
MODEL 5
REMARK VINA RESULT:     -11.5      5.407     11.522
REMARK  Name = 42628063
REMARK  6 active torsions:
REMARK  status: ('A' for Active; 'I' for Inactive)
REMARK    1  A    between atoms: C_1  and  N_3
REMARK    2  A    between atoms: C_1  and  C_21
REMARK    3  A    between atoms: C_4  and  N_10
REMARK    4  A    between atoms: C_11  and  C_15
REMARK    5  A    between atoms: N_20  and  C_24
REMARK    6  A    between atoms: C_27  and  N_31
REMARK                            x       y       z     vdW  Elec       q    Type
REMARK                         _______ _______ _______ _____ _____    ______ ____
ROOT
ATOM      1  C   UNL     1      33.414 -12.951 -24.880  0.00  0.00    +0.010 C 
ENDROOT
BRANCH   1   3
ATOM      2  F   UNL     1      36.269  -9.561 -24.244  0.00  0.00    -0.238 F 
ATOM      3  N   UNL     1      34.077 -11.773 -24.343  0.00  0.00    +0.396 N 
ATOM      4  C   UNL     1      34.017  -9.584 -23.583  0.00  0.00    +0.082 C 
ATOM      5  C   UNL     1      35.007  -9.653 -24.742  0.00  0.00    +0.156 C 
ATOM      6  C   UNL     1      33.135 -10.812 -23.768  0.00  0.00    -0.054 C 
ATOM      7  C   UNL     1      34.811 -11.026 -25.370  0.00  0.00    -0.039 C 
ATOM      8  H   UNL     1      34.708 -12.146 -23.634  0.00  0.00    -0.079 HD
BRANCH   4  10
ATOM      9  O   UNL     1      33.368  -7.995 -21.282  0.00  0.00    -0.270 OA
ATOM     10  N   UNL     1      33.254  -8.367 -23.569  0.00  0.00    -0.302 N 
ATOM     11  C   UNL     1      32.987  -7.661 -22.401  0.00  0.00    +0.252 C 
ATOM     12  H   UNL     1      32.905  -8.019 -24.420  0.00  0.00    +0.150 HD
BRANCH  11  15
ATOM     13 CL   UNL     1      30.805  -2.965 -24.344  0.00  0.00    -0.075 Cl
ATOM     14  S   UNL     1      32.393  -5.437 -23.924  0.00  0.00    -0.071 S 
ATOM     15  C   UNL     1      32.162  -6.434 -22.551  0.00  0.00    +0.084 C 
ATOM     16  C   UNL     1      31.183  -5.945 -21.715  0.00  0.00    +0.012 C 
ATOM     17  C   UNL     1      30.616  -4.734 -22.207  0.00  0.00    +0.019 C 
ATOM     18  C   UNL     1      31.182  -4.345 -23.402  0.00  0.00    +0.087 C 
ENDBRANCH  11  15
ENDBRANCH   4  10
ENDBRANCH   1   3
BRANCH   1  21
ATOM     19  O   UNL     1      32.554 -14.034 -22.903  0.00  0.00    -0.277 OA
ATOM     20  N   UNL     1      34.366 -14.982 -24.056  0.00  0.00    -0.284 N 
ATOM     21  C   UNL     1      33.373 -14.036 -23.816  0.00  0.00    +0.205 C 
ATOM     22  H   UNL     1      34.934 -14.827 -24.844  0.00  0.00    +0.155 HD
BRANCH  20  24
ATOM     23  F   UNL     1      34.366 -17.519 -25.211  0.00  0.00    -0.203 F 
ATOM     24  C   UNL     1      34.654 -16.141 -23.297  0.00  0.00    +0.078 C 
ATOM     25  C   UNL     1      34.646 -17.398 -23.905  0.00  0.00    +0.155 C 
ATOM     26  C   UNL     1      34.946 -16.028 -21.938  0.00  0.00    +0.018 C 
ATOM     27  C   UNL     1      35.223 -18.424 -21.797  0.00  0.00    +0.061 C 
ATOM     28  C   UNL     1      34.930 -18.538 -23.156  0.00  0.00    +0.046 C 
ATOM     29  C   UNL     1      35.231 -17.169 -21.188  0.00  0.00    +0.017 C 
BRANCH  27  31
ATOM     30  O   UNL     1      37.854 -19.226 -20.905  0.00  0.00    -0.269 OA
ATOM     31  N   UNL     1      35.518 -19.610 -21.017  0.00  0.00    -0.233 N 
ATOM     32  C   UNL     1      36.861 -19.916 -20.674  0.00  0.00    +0.257 C 
ATOM     33  C   UNL     1      34.488 -20.446 -20.579  0.00  0.00    +0.072 C 
ATOM     34  C   UNL     1      37.082 -21.181 -19.909  0.00  0.00    +0.059 C 
ATOM     35  C   UNL     1      34.709 -21.555 -19.866  0.00  0.00    +0.017 C 
ATOM     36  C   UNL     1      36.048 -21.935 -19.529  0.00  0.00    +0.006 C 
ENDBRANCH  27  31
ENDBRANCH  20  24
ENDBRANCH   1  21
TORSDOF 6
ENDMDL
MODEL 6
REMARK VINA RESULT:     -11.3      1.652      2.069
REMARK  Name = 42628063
REMARK  6 active torsions:
REMARK  status: ('A' for Active; 'I' for Inactive)
REMARK    1  A    between atoms: C_1  and  N_3
REMARK    2  A    between atoms: C_1  and  C_21
REMARK    3  A    between atoms: C_4  and  N_10
REMARK    4  A    between atoms: C_11  and  C_15
REMARK    5  A    between atoms: N_20  and  C_24
REMARK    6  A    between atoms: C_27  and  N_31
REMARK                            x       y       z     vdW  Elec       q    Type
REMARK                         _______ _______ _______ _____ _____    ______ ____
ROOT
ATOM      1  C   UNL     1      34.406 -16.518 -24.390  0.00  0.00    +0.010 C 
ENDROOT
BRANCH   1   3
ATOM      2  F   UNL     1      37.634 -18.589 -22.081  0.00  0.00    -0.238 F 
ATOM      3  N   UNL     1      35.224 -17.537 -23.749  0.00  0.00    +0.396 N 
ATOM      4  C   UNL     1      35.445 -19.384 -22.368  0.00  0.00    +0.082 C 
ATOM      5  C   UNL     1      36.337 -18.276 -21.818  0.00  0.00    +0.156 C 
ATOM      6  C   UNL     1      34.429 -18.653 -23.236  0.00  0.00    -0.054 C 
ATOM      7  C   UNL     1      35.957 -17.019 -22.589  0.00  0.00    -0.039 C 
ATOM      8  H   UNL     1      35.861 -17.840 -24.485  0.00  0.00    -0.079 HD
BRANCH   4  10
ATOM      9  O   UNL     1      36.761 -20.953 -20.356  0.00  0.00    -0.270 OA
ATOM     10  N   UNL     1      34.814 -20.160 -21.336  0.00  0.00    -0.302 N 
ATOM     11  C   UNL     1      35.536 -20.893 -20.400  0.00  0.00    +0.252 C 
ATOM     12  H   UNL     1      33.831 -20.173 -21.289  0.00  0.00    +0.150 HD
BRANCH  11  15
ATOM     13 CL   UNL     1      34.043 -23.951 -16.040  0.00  0.00    -0.075 Cl
ATOM     14  S   UNL     1      35.529 -22.394 -18.084  0.00  0.00    -0.071 S 
ATOM     15  C   UNL     1      34.735 -21.662 -19.412  0.00  0.00    +0.084 C 
ATOM     16  C   UNL     1      33.377 -21.891 -19.394  0.00  0.00    +0.012 C 
ATOM     17  C   UNL     1      32.983 -22.680 -18.274  0.00  0.00    +0.019 C 
ATOM     18  C   UNL     1      34.055 -23.022 -17.479  0.00  0.00    +0.087 C 
ENDBRANCH  11  15
ENDBRANCH   4  10
ENDBRANCH   1   3
BRANCH   1  21
ATOM     19  O   UNL     1      34.808 -15.275 -22.361  0.00  0.00    -0.277 OA
ATOM     20  N   UNL     1      33.574 -14.297 -24.102  0.00  0.00    -0.284 N 
ATOM     21  C   UNL     1      34.301 -15.307 -23.478  0.00  0.00    +0.205 C 
ATOM     22  H   UNL     1      33.242 -14.494 -25.007  0.00  0.00    +0.155 HD
BRANCH  20  24
ATOM     23  F   UNL     1      34.559 -11.966 -25.273  0.00  0.00    -0.203 F 
ATOM     24  C   UNL     1      33.257 -13.017 -23.586  0.00  0.00    +0.078 C 
ATOM     25  C   UNL     1      33.767 -11.870 -24.195  0.00  0.00    +0.155 C 
ATOM     26  C   UNL     1      32.434 -12.904 -22.465  0.00  0.00    +0.018 C 
ATOM     27  C   UNL     1      32.629 -10.498 -22.565  0.00  0.00    +0.061 C 
ATOM     28  C   UNL     1      33.453 -10.611 -23.685  0.00  0.00    +0.046 C 
ATOM     29  C   UNL     1      32.120 -11.644 -21.956  0.00  0.00    +0.017 C 
BRANCH  27  31
ATOM     30  O   UNL     1      31.510  -8.308 -24.087  0.00  0.00    -0.269 OA
ATOM     31  N   UNL     1      32.303  -9.189 -22.034  0.00  0.00    -0.233 N 
ATOM     32  C   UNL     1      31.794  -8.182 -22.897  0.00  0.00    +0.257 C 
ATOM     33  C   UNL     1      32.464  -8.914 -20.675  0.00  0.00    +0.072 C 
ATOM     34  C   UNL     1      31.527  -6.847 -22.278  0.00  0.00    +0.059 C 
ATOM     35  C   UNL     1      32.187  -7.721 -20.138  0.00  0.00    +0.017 C 
ATOM     36  C   UNL     1      31.711  -6.656 -20.969  0.00  0.00    +0.006 C 
ENDBRANCH  27  31
ENDBRANCH  20  24
ENDBRANCH   1  21
TORSDOF 6
ENDMDL
MODEL 7
REMARK VINA RESULT:     -11.3      4.367     11.112
REMARK  Name = 42628063
REMARK  6 active torsions:
REMARK  status: ('A' for Active; 'I' for Inactive)
REMARK    1  A    between atoms: C_1  and  N_3
REMARK    2  A    between atoms: C_1  and  C_21
REMARK    3  A    between atoms: C_4  and  N_10
REMARK    4  A    between atoms: C_11  and  C_15
REMARK    5  A    between atoms: N_20  and  C_24
REMARK    6  A    between atoms: C_27  and  N_31
REMARK                            x       y       z     vdW  Elec       q    Type
REMARK                         _______ _______ _______ _____ _____    ______ ____
ROOT
ATOM      1  C   UNL     1      36.718 -19.080 -22.519  0.00  0.00    +0.010 C 
ENDROOT
BRANCH   1   3
ATOM      2  F   UNL     1      33.938 -17.224 -25.498  0.00  0.00    -0.238 F 
ATOM      3  N   UNL     1      36.031 -18.123 -23.373  0.00  0.00    +0.396 N 
ATOM      4  C   UNL     1      34.916 -16.114 -23.676  0.00  0.00    +0.082 C 
ATOM      5  C   UNL     1      33.995 -17.238 -24.139  0.00  0.00    +0.156 C 
ATOM      6  C   UNL     1      35.915 -16.802 -22.754  0.00  0.00    -0.054 C 
ATOM      7  C   UNL     1      34.655 -18.530 -23.676  0.00  0.00    -0.039 C 
ATOM      8  H   UNL     1      36.602 -18.090 -24.217  0.00  0.00    -0.079 HD
BRANCH   4  10
ATOM      9  O   UNL     1      33.404 -14.019 -24.927  0.00  0.00    -0.270 OA
ATOM     10  N   UNL     1      34.214 -15.050 -23.014  0.00  0.00    -0.302 N 
ATOM     11  C   UNL     1      33.504 -14.074 -23.705  0.00  0.00    +0.252 C 
ATOM     12  H   UNL     1      34.236 -15.010 -22.031  0.00  0.00    +0.150 HD
BRANCH  11  15
ATOM     13 CL   UNL     1      31.720  -9.205 -21.782  0.00  0.00    -0.075 Cl
ATOM     14  S   UNL     1      32.981 -11.388 -23.349  0.00  0.00    -0.071 S 
ATOM     15  C   UNL     1      32.853 -13.028 -22.875  0.00  0.00    +0.084 C 
ATOM     16  C   UNL     1      32.118 -13.176 -21.719  0.00  0.00    +0.012 C 
ATOM     17  C   UNL     1      31.655 -11.926 -21.215  0.00  0.00    +0.019 C 
ATOM     18  C   UNL     1      32.053 -10.870 -22.007  0.00  0.00    +0.087 C 
ENDBRANCH  11  15
ENDBRANCH   4  10
ENDBRANCH   1   3
BRANCH   1  21
ATOM     19  O   UNL     1      35.338 -18.430 -20.650  0.00  0.00    -0.277 OA
ATOM     20  N   UNL     1      35.855 -20.695 -20.984  0.00  0.00    -0.284 N 
ATOM     21  C   UNL     1      35.887 -19.333 -21.273  0.00  0.00    +0.205 C 
ATOM     22  H   UNL     1      36.352 -21.282 -21.598  0.00  0.00    +0.155 HD
BRANCH  20  24
ATOM     23  F   UNL     1      33.074 -20.865 -20.884  0.00  0.00    -0.203 F 
ATOM     24  C   UNL     1      35.191 -21.334 -19.910  0.00  0.00    +0.078 C 
ATOM     25  C   UNL     1      33.797 -21.402 -19.889  0.00  0.00    +0.155 C 
ATOM     26  C   UNL     1      35.930 -21.896 -18.869  0.00  0.00    +0.018 C 
ATOM     27  C   UNL     1      33.884 -22.594 -17.791  0.00  0.00    +0.061 C 
ATOM     28  C   UNL     1      33.144 -22.032 -18.831  0.00  0.00    +0.046 C 
ATOM     29  C   UNL     1      35.277 -22.526 -17.811  0.00  0.00    +0.017 C 
BRANCH  27  31
ATOM     30  O   UNL     1      31.017 -22.725 -17.434  0.00  0.00    -0.269 OA
ATOM     31  N   UNL     1      33.206 -23.249 -16.690  0.00  0.00    -0.233 N 
ATOM     32  C   UNL     1      31.790 -23.209 -16.607  0.00  0.00    +0.257 C 
ATOM     33  C   UNL     1      33.934 -23.940 -15.719  0.00  0.00    +0.072 C 
ATOM     34  C   UNL     1      31.173 -23.869 -15.415  0.00  0.00    +0.059 C 
ATOM     35  C   UNL     1      33.357 -24.552 -14.679  0.00  0.00    +0.017 C 
ATOM     36  C   UNL     1      31.934 -24.507 -14.522  0.00  0.00    +0.006 C 
ENDBRANCH  27  31
ENDBRANCH  20  24
ENDBRANCH   1  21
TORSDOF 6
ENDMDL
MODEL 8
REMARK VINA RESULT:     -11.2      6.167     10.100
REMARK  Name = 42628063
REMARK  6 active torsions:
REMARK  status: ('A' for Active; 'I' for Inactive)
REMARK    1  A    between atoms: C_1  and  N_3
REMARK    2  A    between atoms: C_1  and  C_21
REMARK    3  A    between atoms: C_4  and  N_10
REMARK    4  A    between atoms: C_11  and  C_15
REMARK    5  A    between atoms: N_20  and  C_24
REMARK    6  A    between atoms: C_27  and  N_31
REMARK                            x       y       z     vdW  Elec       q    Type
REMARK                         _______ _______ _______ _____ _____    ______ ____
ROOT
ATOM      1  C   UNL     1      31.860 -24.099 -16.247  0.00  0.00    +0.010 C 
ENDROOT
BRANCH   1   3
ATOM      2  F   UNL     1      34.043 -23.776 -12.352  0.00  0.00    -0.238 F 
ATOM      3  N   UNL     1      32.868 -23.819 -15.236  0.00  0.00    +0.396 N 
ATOM      4  C   UNL     1      35.051 -23.934 -14.465  0.00  0.00    +0.082 C 
ATOM      5  C   UNL     1      34.150 -24.599 -13.429  0.00  0.00    +0.156 C 
ATOM      6  C   UNL     1      34.231 -23.961 -15.749  0.00  0.00    -0.054 C 
ATOM      7  C   UNL     1      32.787 -24.737 -14.095  0.00  0.00    -0.039 C 
ATOM      8  H   UNL     1      32.675 -22.858 -14.954  0.00  0.00    -0.079 HD
BRANCH   4  10
ATOM      9  O   UNL     1      37.578 -23.070 -13.411  0.00  0.00    -0.270 OA
ATOM     10  N   UNL     1      36.316 -24.598 -14.618  0.00  0.00    -0.302 N 
ATOM     11  C   UNL     1      37.494 -24.104 -14.069  0.00  0.00    +0.252 C 
ATOM     12  H   UNL     1      36.350 -25.437 -15.131  0.00  0.00    +0.150 HD
BRANCH  11  15
ATOM     13 CL   UNL     1      41.725 -27.630 -13.566  0.00  0.00    -0.075 Cl
ATOM     14  S   UNL     1      39.288 -25.988 -13.148  0.00  0.00    -0.071 S 
ATOM     15  C   UNL     1      38.723 -24.895 -14.338  0.00  0.00    +0.084 C 
ATOM     16  C   UNL     1      39.525 -24.890 -15.458  0.00  0.00    +0.012 C 
ATOM     17  C   UNL     1      40.619 -25.795 -15.337  0.00  0.00    +0.019 C 
ATOM     18  C   UNL     1      40.610 -26.458 -14.129  0.00  0.00    +0.087 C 
ENDBRANCH  11  15
ENDBRANCH   4  10
ENDBRANCH   1   3
BRANCH   1  21
ATOM     19  O   UNL     1      30.871 -22.238 -17.421  0.00  0.00    -0.277 OA
ATOM     20  N   UNL     1      33.053 -22.924 -17.952  0.00  0.00    -0.284 N 
ATOM     21  C   UNL     1      31.841 -22.973 -17.267  0.00  0.00    +0.205 C 
ATOM     22  H   UNL     1      33.726 -23.593 -17.693  0.00  0.00    +0.155 HD
BRANCH  20  24
ATOM     23  F   UNL     1      35.729 -22.489 -18.602  0.00  0.00    -0.203 F 
ATOM     24  C   UNL     1      33.429 -22.022 -18.975  0.00  0.00    +0.078 C 
ATOM     25  C   UNL     1      34.778 -21.826 -19.276  0.00  0.00    +0.155 C 
ATOM     26  C   UNL     1      32.450 -21.326 -19.684  0.00  0.00    +0.018 C 
ATOM     27  C   UNL     1      34.166 -20.243 -20.994  0.00  0.00    +0.061 C 
ATOM     28  C   UNL     1      35.146 -20.938 -20.285  0.00  0.00    +0.046 C 
ATOM     29  C   UNL     1      32.818 -20.437 -20.694  0.00  0.00    +0.017 C 
BRANCH  27  31
ATOM     30  O   UNL     1      35.873 -17.934 -20.648  0.00  0.00    -0.269 OA
ATOM     31  N   UNL     1      34.549 -19.318 -22.044  0.00  0.00    -0.233 N 
ATOM     32  C   UNL     1      35.363 -18.197 -21.736  0.00  0.00    +0.257 C 
ATOM     33  C   UNL     1      34.141 -19.534 -23.362  0.00  0.00    +0.072 C 
ATOM     34  C   UNL     1      35.672 -17.268 -22.867  0.00  0.00    +0.059 C 
ATOM     35  C   UNL     1      34.459 -18.706 -24.363  0.00  0.00    +0.017 C 
ATOM     36  C   UNL     1      35.242 -17.536 -24.103  0.00  0.00    +0.006 C 
ENDBRANCH  27  31
ENDBRANCH  20  24
ENDBRANCH   1  21
TORSDOF 6
ENDMDL
MODEL 9
REMARK VINA RESULT:     -11.2      5.744     12.253
REMARK  Name = 42628063
REMARK  6 active torsions:
REMARK  status: ('A' for Active; 'I' for Inactive)
REMARK    1  A    between atoms: C_1  and  N_3
REMARK    2  A    between atoms: C_1  and  C_21
REMARK    3  A    between atoms: C_4  and  N_10
REMARK    4  A    between atoms: C_11  and  C_15
REMARK    5  A    between atoms: N_20  and  C_24
REMARK    6  A    between atoms: C_27  and  N_31
REMARK                            x       y       z     vdW  Elec       q    Type
REMARK                         _______ _______ _______ _____ _____    ______ ____
ROOT
ATOM      1  C   UNL     1      33.730 -11.893 -23.929  0.00  0.00    +0.010 C 
ENDROOT
BRANCH   1   3
ATOM      2  F   UNL     1      31.488  -9.195 -21.148  0.00  0.00    -0.238 F 
ATOM      3  N   UNL     1      32.828 -10.883 -23.395  0.00  0.00    +0.396 N 
ATOM      4  C   UNL     1      31.967  -8.732 -23.398  0.00  0.00    +0.082 C 
ATOM      5  C   UNL     1      32.526  -9.013 -22.006  0.00  0.00    +0.156 C 
ATOM      6  C   UNL     1      32.669  -9.741 -24.297  0.00  0.00    -0.054 C 
ATOM      7  C   UNL     1      33.308 -10.314 -22.132  0.00  0.00    -0.039 C 
ATOM      8  H   UNL     1      31.948 -11.382 -23.267  0.00  0.00    -0.079 HD
BRANCH   4  10
ATOM      9  O   UNL     1      30.443  -6.419 -22.641  0.00  0.00    -0.270 OA
ATOM     10  N   UNL     1      32.190  -7.379 -23.828  0.00  0.00    -0.302 N 
ATOM     11  C   UNL     1      31.397  -6.317 -23.408  0.00  0.00    +0.252 C 
ATOM     12  H   UNL     1      32.935  -7.196 -24.444  0.00  0.00    +0.150 HD
BRANCH  11  15
ATOM     13 CL   UNL     1      33.497  -2.286 -26.559  0.00  0.00    -0.075 Cl
ATOM     14  S   UNL     1      32.741  -4.890 -25.350  0.00  0.00    -0.071 S 
ATOM     15  C   UNL     1      31.742  -4.982 -23.963  0.00  0.00    +0.084 C 
ATOM     16  C   UNL     1      31.363  -3.737 -23.514  0.00  0.00    +0.012 C 
ATOM     17  C   UNL     1      31.901  -2.691 -24.319  0.00  0.00    +0.019 C 
ATOM     18  C   UNL     1      32.669  -3.179 -25.354  0.00  0.00    +0.087 C 
ENDBRANCH  11  15
ENDBRANCH   4  10
ENDBRANCH   1   3
BRANCH   1  21
ATOM     19  O   UNL     1      32.404 -13.506 -22.721  0.00  0.00    -0.277 OA
ATOM     20  N   UNL     1      34.640 -13.993 -23.243  0.00  0.00    -0.284 N 
ATOM     21  C   UNL     1      33.486 -13.214 -23.220  0.00  0.00    +0.205 C 
ATOM     22  H   UNL     1      35.421 -13.601 -23.695  0.00  0.00    +0.155 HD
BRANCH  20  24
ATOM     23  F   UNL     1      34.945 -16.240 -24.865  0.00  0.00    -0.203 F 
ATOM     24  C   UNL     1      34.821 -15.285 -22.693  0.00  0.00    +0.078 C 
ATOM     25  C   UNL     1      34.970 -16.389 -23.533  0.00  0.00    +0.155 C 
ATOM     26  C   UNL     1      34.848 -15.453 -21.309  0.00  0.00    +0.018 C 
ATOM     27  C   UNL     1      35.176 -17.828 -21.604  0.00  0.00    +0.061 C 
ATOM     28  C   UNL     1      35.148 -17.660 -22.988  0.00  0.00    +0.046 C 
ATOM     29  C   UNL     1      35.027 -16.725 -20.764  0.00  0.00    +0.017 C 
BRANCH  27  31
ATOM     30  O   UNL     1      37.723 -19.004 -20.899  0.00  0.00    -0.269 OA
ATOM     31  N   UNL     1      35.361 -19.151 -21.038  0.00  0.00    -0.233 N 
ATOM     32  C   UNL     1      36.670 -19.629 -20.771  0.00  0.00    +0.257 C 
ATOM     33  C   UNL     1      34.259 -19.951 -20.731  0.00  0.00    +0.072 C 
ATOM     34  C   UNL     1      36.774 -21.020 -20.232  0.00  0.00    +0.059 C 
ATOM     35  C   UNL     1      34.376 -21.180 -20.217  0.00  0.00    +0.017 C 
ATOM     36  C   UNL     1      35.674 -21.730 -19.968  0.00  0.00    +0.006 C 
ENDBRANCH  27  31
ENDBRANCH  20  24
ENDBRANCH   1  21
TORSDOF 6
ENDMDL
