MODEL 1
REMARK VINA RESULT:     -11.8      0.000      0.000
REMARK  Name = 11282283
REMARK  4 active torsions:
REMARK  status: ('A' for Active; 'I' for Inactive)
REMARK    1  A    between atoms: N_3  and  C_21
REMARK    2  A    between atoms: C_21  and  N_22
REMARK    3  A    between atoms: N_22  and  C_24
REMARK    4  A    between atoms: C_24  and  C_27
REMARK                            x       y       z     vdW  Elec       q    Type
REMARK                         _______ _______ _______ _____ _____    ______ ____
ROOT
ATOM      1  O   UNL     1      34.356 -15.218 -22.410  0.00  0.00    -0.466 OA
ATOM      2  N   UNL     1      33.085 -12.886 -23.677  0.00  0.00    -0.290 N 
ATOM      3  N   UNL     1      32.380 -10.482 -22.259  0.00  0.00    -0.288 N 
ATOM      4  N   UNL     1      33.179 -14.174 -25.688  0.00  0.00    -0.230 NA
ATOM      5  N   UNL     1      34.126 -16.425 -25.733  0.00  0.00    -0.245 NA
ATOM      6  C   UNL     1      33.080 -11.587 -24.358  0.00  0.00    +0.113 C 
ATOM      7  C   UNL     1      32.723 -12.931 -22.256  0.00  0.00    +0.113 C 
ATOM      8  C   UNL     1      33.328 -10.454 -23.363  0.00  0.00    +0.114 C 
ATOM      9  C   UNL     1      31.803 -11.767 -21.895  0.00  0.00    +0.114 C 
ATOM     10  C   UNL     1      33.423 -14.050 -24.364  0.00  0.00    +0.152 C 
ATOM     11  C   UNL     1      34.020 -15.115 -23.721  0.00  0.00    +0.258 C 
ATOM     12  C   UNL     1      34.358 -16.274 -24.406  0.00  0.00    +0.106 C 
ATOM     13  C   UNL     1      34.942 -17.147 -23.452  0.00  0.00    +0.051 C 
ATOM     14  C   UNL     1      34.917 -16.452 -22.243  0.00  0.00    +0.141 C 
ATOM     15  C   UNL     1      33.540 -15.336 -26.282  0.00  0.00    +0.251 C 
ATOM     16  C   UNL     1      35.487 -18.442 -23.470  0.00  0.00    +0.004 C 
ATOM     17  C   UNL     1      35.403 -16.963 -21.041  0.00  0.00    +0.037 C 
ATOM     18  C   UNL     1      35.983 -18.981 -22.275  0.00  0.00    +0.000 C 
ATOM     19  C   UNL     1      35.940 -18.253 -21.084  0.00  0.00    +0.003 C 
ENDROOT
BRANCH   3  21
ATOM     20  S   UNL     1      32.036  -9.299 -19.920  0.00  0.00    -0.019 S 
ATOM     21  C   UNL     1      32.047  -9.348 -21.592  0.00  0.00    +0.135 C 
BRANCH  21  22
ATOM     22  N   UNL     1      31.723  -8.242 -22.337  0.00  0.00    -0.312 N 
ATOM     23  H   UNL     1      31.153  -8.387 -23.126  0.00  0.00    +0.149 HD
BRANCH  22  24
ATOM     24  C   UNL     1      32.140  -6.880 -22.068  0.00  0.00    +0.116 C 
BRANCH  24  27
ATOM     25  O   UNL     1      32.392  -3.655 -25.798  0.00  0.00    -0.435 OA
ATOM     26  O   UNL     1      34.548  -4.465 -26.506  0.00  0.00    -0.435 OA
ATOM     27  C   UNL     1      32.814  -6.255 -23.254  0.00  0.00    +0.001 C 
ATOM     28  C   UNL     1      32.185  -5.214 -23.931  0.00  0.00    +0.038 C 
ATOM     29  C   UNL     1      34.069  -6.731 -23.660  0.00  0.00    +0.001 C 
ATOM     30  C   UNL     1      32.844  -4.671 -25.014  0.00  0.00    +0.176 C 
ATOM     31  C   UNL     1      34.076  -5.134 -25.418  0.00  0.00    +0.176 C 
ATOM     32  C   UNL     1      34.715  -6.165 -24.760  0.00  0.00    +0.040 C 
ATOM     33  C   UNL     1      33.477  -3.529 -26.740  0.00  0.00    +0.429 C 
ENDBRANCH  24  27
ENDBRANCH  22  24
ENDBRANCH  21  22
ENDBRANCH   3  21
TORSDOF 4
ENDMDL
MODEL 2
REMARK VINA RESULT:     -11.8      3.216     11.160
REMARK  Name = 11282283
REMARK  4 active torsions:
REMARK  status: ('A' for Active; 'I' for Inactive)
REMARK    1  A    between atoms: N_3  and  C_21
REMARK    2  A    between atoms: C_21  and  N_22
REMARK    3  A    between atoms: N_22  and  C_24
REMARK    4  A    between atoms: C_24  and  C_27
REMARK                            x       y       z     vdW  Elec       q    Type
REMARK                         _______ _______ _______ _____ _____    ______ ____
ROOT
ATOM      1  O   UNL     1      33.727 -10.148 -23.316  0.00  0.00    -0.466 OA
ATOM      2  N   UNL     1      33.053 -12.802 -22.242  0.00  0.00    -0.290 N 
ATOM      3  N   UNL     1      34.270 -15.250 -23.146  0.00  0.00    -0.288 N 
ATOM      4  N   UNL     1      31.518 -11.627 -20.837  0.00  0.00    -0.230 NA
ATOM      5  N   UNL     1      31.280  -9.199 -20.937  0.00  0.00    -0.245 NA
ATOM      6  C   UNL     1      33.209 -13.943 -21.333  0.00  0.00    +0.113 C 
ATOM      7  C   UNL     1      33.531 -12.938 -23.622  0.00  0.00    +0.113 C 
ATOM      8  C   UNL     1      34.387 -14.817 -21.761  0.00  0.00    +0.114 C 
ATOM      9  C   UNL     1      33.518 -14.402 -24.058  0.00  0.00    +0.114 C 
ATOM     10  C   UNL     1      32.460 -11.619 -21.805  0.00  0.00    +0.152 C 
ATOM     11  C   UNL     1      32.815 -10.399 -22.342  0.00  0.00    +0.258 C 
ATOM     12  C   UNL     1      32.227  -9.220 -21.907  0.00  0.00    +0.106 C 
ATOM     13  C   UNL     1      32.817  -8.174 -22.662  0.00  0.00    +0.051 C 
ATOM     14  C   UNL     1      33.731  -8.796 -23.512  0.00  0.00    +0.141 C 
ATOM     15  C   UNL     1      30.994 -10.434 -20.467  0.00  0.00    +0.251 C 
ATOM     16  C   UNL     1      32.685  -6.776 -22.725  0.00  0.00    +0.004 C 
ATOM     17  C   UNL     1      34.530  -8.114 -24.429  0.00  0.00    +0.037 C 
ATOM     18  C   UNL     1      33.476  -6.066 -23.639  0.00  0.00    +0.000 C 
ATOM     19  C   UNL     1      34.381  -6.725 -24.474  0.00  0.00    +0.003 C 
ENDROOT
BRANCH   3  21
ATOM     20  S   UNL     1      34.649 -16.938 -25.144  0.00  0.00    -0.019 S 
ATOM     21  C   UNL     1      34.842 -16.404 -23.570  0.00  0.00    +0.135 C 
BRANCH  21  22
ATOM     22  N   UNL     1      35.587 -17.117 -22.665  0.00  0.00    -0.312 N 
ATOM     23  H   UNL     1      35.746 -16.698 -21.789  0.00  0.00    +0.149 HD
BRANCH  22  24
ATOM     24  C   UNL     1      36.160 -18.431 -22.879  0.00  0.00    +0.116 C 
BRANCH  24  27
ATOM     25  O   UNL     1      32.822 -21.010 -20.313  0.00  0.00    -0.435 OA
ATOM     26  O   UNL     1      34.508 -22.037 -18.930  0.00  0.00    -0.435 OA
ATOM     27  C   UNL     1      35.752 -19.403 -21.811  0.00  0.00    +0.001 C 
ATOM     28  C   UNL     1      34.404 -19.699 -21.632  0.00  0.00    +0.038 C 
ATOM     29  C   UNL     1      36.738 -19.997 -21.010  0.00  0.00    +0.001 C 
ATOM     30  C   UNL     1      34.078 -20.598 -20.638  0.00  0.00    +0.176 C 
ATOM     31  C   UNL     1      35.040 -21.185 -19.848  0.00  0.00    +0.176 C 
ATOM     32  C   UNL     1      36.382 -20.904 -20.010  0.00  0.00    +0.040 C 
ATOM     33  C   UNL     1      33.102 -21.921 -19.231  0.00  0.00    +0.429 C 
ENDBRANCH  24  27
ENDBRANCH  22  24
ENDBRANCH  21  22
ENDBRANCH   3  21
TORSDOF 4
ENDMDL
MODEL 3
REMARK VINA RESULT:     -11.7      0.884      1.186
REMARK  Name = 11282283
REMARK  4 active torsions:
REMARK  status: ('A' for Active; 'I' for Inactive)
REMARK    1  A    between atoms: N_3  and  C_21
REMARK    2  A    between atoms: C_21  and  N_22
REMARK    3  A    between atoms: N_22  and  C_24
REMARK    4  A    between atoms: C_24  and  C_27
REMARK                            x       y       z     vdW  Elec       q    Type
REMARK                         _______ _______ _______ _____ _____    ______ ____
ROOT
ATOM      1  O   UNL     1      34.419 -15.304 -22.579  0.00  0.00    -0.466 OA
ATOM      2  N   UNL     1      33.217 -12.964 -23.898  0.00  0.00    -0.290 N 
ATOM      3  N   UNL     1      32.609 -10.500 -22.539  0.00  0.00    -0.288 N 
ATOM      4  N   UNL     1      33.247 -14.308 -25.874  0.00  0.00    -0.230 NA
ATOM      5  N   UNL     1      34.115 -16.590 -25.866  0.00  0.00    -0.245 NA
ATOM      6  C   UNL     1      33.250 -11.684 -24.614  0.00  0.00    +0.113 C 
ATOM      7  C   UNL     1      32.868 -12.959 -22.473  0.00  0.00    +0.113 C 
ATOM      8  C   UNL     1      33.546 -10.535 -23.652  0.00  0.00    +0.114 C 
ATOM      9  C   UNL     1      31.992 -11.754 -22.136  0.00  0.00    +0.114 C 
ATOM     10  C   UNL     1      33.508 -14.157 -24.556  0.00  0.00    +0.152 C 
ATOM     11  C   UNL     1      34.074 -15.224 -23.890  0.00  0.00    +0.258 C 
ATOM     12  C   UNL     1      34.366 -16.412 -24.546  0.00  0.00    +0.106 C 
ATOM     13  C   UNL     1      34.928 -17.279 -23.574  0.00  0.00    +0.051 C 
ATOM     14  C   UNL     1      34.939 -16.551 -22.384  0.00  0.00    +0.141 C 
ATOM     15  C   UNL     1      33.563 -15.498 -26.439  0.00  0.00    +0.251 C 
ATOM     16  C   UNL     1      35.429 -18.592 -23.562  0.00  0.00    +0.004 C 
ATOM     17  C   UNL     1      35.419 -17.047 -21.173  0.00  0.00    +0.037 C 
ATOM     18  C   UNL     1      35.917 -19.116 -22.357  0.00  0.00    +0.000 C 
ATOM     19  C   UNL     1      35.911 -18.355 -21.186  0.00  0.00    +0.003 C 
ENDROOT
BRANCH   3  21
ATOM     20  S   UNL     1      31.977  -9.312 -20.264  0.00  0.00    -0.019 S 
ATOM     21  C   UNL     1      32.322  -9.337 -21.901  0.00  0.00    +0.135 C 
BRANCH  21  22
ATOM     22  N   UNL     1      32.326  -8.184 -22.644  0.00  0.00    -0.312 N 
ATOM     23  H   UNL     1      31.592  -8.065 -23.288  0.00  0.00    +0.149 HD
BRANCH  22  24
ATOM     24  C   UNL     1      33.312  -7.123 -22.566  0.00  0.00    +0.116 C 
BRANCH  24  27
ATOM     25  O   UNL     1      30.647  -3.192 -23.914  0.00  0.00    -0.435 OA
ATOM     26  O   UNL     1      31.972  -2.827 -25.893  0.00  0.00    -0.435 OA
ATOM     27  C   UNL     1      32.980  -5.980 -23.480  0.00  0.00    +0.001 C 
ATOM     28  C   UNL     1      31.911  -5.145 -23.172  0.00  0.00    +0.038 C 
ATOM     29  C   UNL     1      33.755  -5.774 -24.630  0.00  0.00    +0.001 C 
ATOM     30  C   UNL     1      31.645  -4.108 -24.043  0.00  0.00    +0.176 C 
ATOM     31  C   UNL     1      32.402  -3.899 -25.173  0.00  0.00    +0.176 C 
ATOM     32  C   UNL     1      33.466  -4.717 -25.495  0.00  0.00    +0.040 C 
ATOM     33  C   UNL     1      30.860  -2.384 -25.089  0.00  0.00    +0.429 C 
ENDBRANCH  24  27
ENDBRANCH  22  24
ENDBRANCH  21  22
ENDBRANCH   3  21
TORSDOF 4
ENDMDL
MODEL 4
REMARK VINA RESULT:     -11.2      4.452     11.415
REMARK  Name = 11282283
REMARK  4 active torsions:
REMARK  status: ('A' for Active; 'I' for Inactive)
REMARK    1  A    between atoms: N_3  and  C_21
REMARK    2  A    between atoms: C_21  and  N_22
REMARK    3  A    between atoms: N_22  and  C_24
REMARK    4  A    between atoms: C_24  and  C_27
REMARK                            x       y       z     vdW  Elec       q    Type
REMARK                         _______ _______ _______ _____ _____    ______ ____
ROOT
ATOM      1  O   UNL     1      32.888 -13.107 -22.370  0.00  0.00    -0.466 OA
ATOM      2  N   UNL     1      33.912 -14.804 -24.544  0.00  0.00    -0.290 N 
ATOM      3  N   UNL     1      34.301 -17.647 -24.307  0.00  0.00    -0.288 N 
ATOM      4  N   UNL     1      34.014 -12.780 -25.811  0.00  0.00    -0.230 NA
ATOM      5  N   UNL     1      33.334 -10.634 -24.866  0.00  0.00    -0.245 NA
ATOM      6  C   UNL     1      33.784 -15.680 -25.714  0.00  0.00    +0.113 C 
ATOM      7  C   UNL     1      34.242 -15.411 -23.250  0.00  0.00    +0.113 C 
ATOM      8  C   UNL     1      33.384 -17.092 -25.291  0.00  0.00    +0.114 C 
ATOM      9  C   UNL     1      35.014 -16.715 -23.446  0.00  0.00    +0.114 C 
ATOM     10  C   UNL     1      33.726 -13.428 -24.660  0.00  0.00    +0.152 C 
ATOM     11  C   UNL     1      33.241 -12.679 -23.608  0.00  0.00    +0.258 C 
ATOM     12  C   UNL     1      33.054 -11.308 -23.724  0.00  0.00    +0.106 C 
ATOM     13  C   UNL     1      32.552 -10.865 -22.473  0.00  0.00    +0.051 C 
ATOM     14  C   UNL     1      32.468 -12.008 -21.677  0.00  0.00    +0.141 C 
ATOM     15  C   UNL     1      33.803 -11.443 -25.842  0.00  0.00    +0.251 C 
ATOM     16  C   UNL     1      32.160  -9.633 -21.922  0.00  0.00    +0.004 C 
ATOM     17  C   UNL     1      32.016 -12.006 -20.359  0.00  0.00    +0.037 C 
ATOM     18  C   UNL     1      31.701  -9.602 -20.599  0.00  0.00    +0.000 C 
ATOM     19  C   UNL     1      31.631 -10.769 -19.833  0.00  0.00    +0.003 C 
ENDROOT
BRANCH   3  21
ATOM     20  S   UNL     1      34.438 -19.980 -25.542  0.00  0.00    -0.019 S 
ATOM     21  C   UNL     1      34.486 -18.986 -24.196  0.00  0.00    +0.135 C 
BRANCH  21  22
ATOM     22  N   UNL     1      34.715 -19.498 -22.944  0.00  0.00    -0.312 N 
ATOM     23  H   UNL     1      35.576 -19.953 -22.798  0.00  0.00    +0.149 HD
BRANCH  22  24
ATOM     24  C   UNL     1      33.808 -19.428 -21.815  0.00  0.00    +0.116 C 
BRANCH  24  27
ATOM     25  O   UNL     1      32.597 -22.708 -18.329  0.00  0.00    -0.435 OA
ATOM     26  O   UNL     1      34.901 -23.256 -17.881  0.00  0.00    -0.435 OA
ATOM     27  C   UNL     1      34.137 -20.450 -20.767  0.00  0.00    +0.001 C 
ATOM     28  C   UNL     1      33.106 -21.069 -20.066  0.00  0.00    +0.038 C 
ATOM     29  C   UNL     1      35.479 -20.764 -20.512  0.00  0.00    +0.001 C 
ATOM     30  C   UNL     1      33.458 -22.003 -19.113  0.00  0.00    +0.176 C 
ATOM     31  C   UNL     1      34.773 -22.316 -18.857  0.00  0.00    +0.176 C 
ATOM     32  C   UNL     1      35.809 -21.712 -19.541  0.00  0.00    +0.040 C 
ATOM     33  C   UNL     1      33.518 -23.501 -17.553  0.00  0.00    +0.429 C 
ENDBRANCH  24  27
ENDBRANCH  22  24
ENDBRANCH  21  22
ENDBRANCH   3  21
TORSDOF 4
ENDMDL
MODEL 5
REMARK VINA RESULT:     -10.1      2.203     10.425
REMARK  Name = 11282283
REMARK  4 active torsions:
REMARK  status: ('A' for Active; 'I' for Inactive)
REMARK    1  A    between atoms: N_3  and  C_21
REMARK    2  A    between atoms: C_21  and  N_22
REMARK    3  A    between atoms: N_22  and  C_24
REMARK    4  A    between atoms: C_24  and  C_27
REMARK                            x       y       z     vdW  Elec       q    Type
REMARK                         _______ _______ _______ _____ _____    ______ ____
ROOT
ATOM      1  O   UNL     1      33.705  -5.359 -25.163  0.00  0.00    -0.466 OA
ATOM      2  N   UNL     1      31.737  -6.125 -23.115  0.00  0.00    -0.290 N 
ATOM      3  N   UNL     1      31.802  -8.625 -21.689  0.00  0.00    -0.288 N 
ATOM      4  N   UNL     1      30.735  -4.002 -23.565  0.00  0.00    -0.230 NA
ATOM      5  N   UNL     1      31.661  -2.466 -25.222  0.00  0.00    -0.245 NA
ATOM      6  C   UNL     1      31.219  -6.222 -21.746  0.00  0.00    +0.113 C 
ATOM      7  C   UNL     1      32.290  -7.331 -23.740  0.00  0.00    +0.113 C 
ATOM      8  C   UNL     1      31.907  -7.354 -20.987  0.00  0.00    +0.114 C 
ATOM      9  C   UNL     1      31.665  -8.587 -23.137  0.00  0.00    +0.114 C 
ATOM     10  C   UNL     1      31.702  -4.915 -23.806  0.00  0.00    +0.152 C 
ATOM     11  C   UNL     1      32.652  -4.605 -24.757  0.00  0.00    +0.258 C 
ATOM     12  C   UNL     1      32.618  -3.400 -25.444  0.00  0.00    +0.106 C 
ATOM     13  C   UNL     1      33.725  -3.413 -26.332  0.00  0.00    +0.051 C 
ATOM     14  C   UNL     1      34.360  -4.637 -26.120  0.00  0.00    +0.141 C 
ATOM     15  C   UNL     1      30.773  -2.851 -24.277  0.00  0.00    +0.251 C 
ATOM     16  C   UNL     1      34.263  -2.535 -27.287  0.00  0.00    +0.004 C 
ATOM     17  C   UNL     1      35.504  -5.049 -26.801  0.00  0.00    +0.037 C 
ATOM     18  C   UNL     1      35.413  -2.923 -27.988  0.00  0.00    +0.000 C 
ATOM     19  C   UNL     1      36.021  -4.158 -27.747  0.00  0.00    +0.003 C 
ENDROOT
BRANCH   3  21
ATOM     20  S   UNL     1      31.804  -9.844 -19.343  0.00  0.00    -0.019 S 
ATOM     21  C   UNL     1      31.832  -9.802 -21.016  0.00  0.00    +0.135 C 
BRANCH  21  22
ATOM     22  N   UNL     1      31.883 -10.958 -21.754  0.00  0.00    -0.312 N 
ATOM     23  H   UNL     1      32.061 -10.864 -22.718  0.00  0.00    +0.149 HD
BRANCH  22  24
ATOM     24  C   UNL     1      31.700 -12.303 -21.246  0.00  0.00    +0.116 C 
BRANCH  24  27
ATOM     25  O   UNL     1      34.940 -16.025 -21.067  0.00  0.00    -0.435 OA
ATOM     26  O   UNL     1      35.307 -15.973 -23.447  0.00  0.00    -0.435 OA
ATOM     27  C   UNL     1      32.661 -13.274 -21.870  0.00  0.00    +0.001 C 
ATOM     28  C   UNL     1      33.327 -14.191 -21.064  0.00  0.00    +0.038 C 
ATOM     29  C   UNL     1      32.869 -13.238 -23.255  0.00  0.00    +0.001 C 
ATOM     30  C   UNL     1      34.200 -15.063 -21.682  0.00  0.00    +0.176 C 
ATOM     31  C   UNL     1      34.410 -15.034 -23.042  0.00  0.00    +0.176 C 
ATOM     32  C   UNL     1      33.758 -14.131 -23.858  0.00  0.00    +0.040 C 
ATOM     33  C   UNL     1      35.638 -16.598 -22.191  0.00  0.00    +0.429 C 
ENDBRANCH  24  27
ENDBRANCH  22  24
ENDBRANCH  21  22
ENDBRANCH   3  21
TORSDOF 4
ENDMDL
MODEL 6
REMARK VINA RESULT:      -9.9      1.247      1.713
REMARK  Name = 11282283
REMARK  4 active torsions:
REMARK  status: ('A' for Active; 'I' for Inactive)
REMARK    1  A    between atoms: N_3  and  C_21
REMARK    2  A    between atoms: C_21  and  N_22
REMARK    3  A    between atoms: N_22  and  C_24
REMARK    4  A    between atoms: C_24  and  C_27
REMARK                            x       y       z     vdW  Elec       q    Type
REMARK                         _______ _______ _______ _____ _____    ______ ____
ROOT
ATOM      1  O   UNL     1      34.126 -14.034 -22.378  0.00  0.00    -0.466 OA
ATOM      2  N   UNL     1      33.105 -11.617 -23.709  0.00  0.00    -0.290 N 
ATOM      3  N   UNL     1      32.530  -9.154 -22.333  0.00  0.00    -0.288 N 
ATOM      4  N   UNL     1      33.187 -12.922 -25.710  0.00  0.00    -0.230 NA
ATOM      5  N   UNL     1      33.951 -15.241 -25.704  0.00  0.00    -0.245 NA
ATOM      6  C   UNL     1      33.234 -10.326 -24.394  0.00  0.00    +0.113 C 
ATOM      7  C   UNL     1      32.676 -11.623 -22.306  0.00  0.00    +0.113 C 
ATOM      8  C   UNL     1      33.526  -9.210 -23.393  0.00  0.00    +0.114 C 
ATOM      9  C   UNL     1      31.837 -10.387 -21.992  0.00  0.00    +0.114 C 
ATOM     10  C   UNL     1      33.379 -12.809 -24.376  0.00  0.00    +0.152 C 
ATOM     11  C   UNL     1      33.859 -13.914 -23.704  0.00  0.00    +0.258 C 
ATOM     12  C   UNL     1      34.135 -15.100 -24.368  0.00  0.00    +0.106 C 
ATOM     13  C   UNL     1      34.603 -16.010 -23.386  0.00  0.00    +0.051 C 
ATOM     14  C   UNL     1      34.579 -15.307 -22.182  0.00  0.00    +0.141 C 
ATOM     15  C   UNL     1      33.480 -14.114 -26.283  0.00  0.00    +0.251 C 
ATOM     16  C   UNL     1      35.044 -17.345 -23.375  0.00  0.00    +0.004 C 
ATOM     17  C   UNL     1      34.968 -15.847 -20.957  0.00  0.00    +0.037 C 
ATOM     18  C   UNL     1      35.440 -17.914 -22.157  0.00  0.00    +0.000 C 
ATOM     19  C   UNL     1      35.402 -17.176 -20.971  0.00  0.00    +0.003 C 
ENDROOT
BRANCH   3  21
ATOM     20  S   UNL     1      33.135  -7.529 -20.338  0.00  0.00    -0.019 S 
ATOM     21  C   UNL     1      32.259  -7.993 -21.686  0.00  0.00    +0.135 C 
BRANCH  21  22
ATOM     22  N   UNL     1      31.244  -7.212 -22.177  0.00  0.00    -0.312 N 
ATOM     23  H   UNL     1      30.711  -6.707 -21.521  0.00  0.00    +0.149 HD
BRANCH  22  24
ATOM     24  C   UNL     1      30.885  -7.059 -23.574  0.00  0.00    +0.116 C 
BRANCH  24  27
ATOM     25  O   UNL     1      34.019  -4.675 -26.552  0.00  0.00    -0.435 OA
ATOM     26  O   UNL     1      33.191  -2.513 -25.885  0.00  0.00    -0.435 OA
ATOM     27  C   UNL     1      31.481  -5.819 -24.174  0.00  0.00    +0.001 C 
ATOM     28  C   UNL     1      32.505  -5.934 -25.109  0.00  0.00    +0.038 C 
ATOM     29  C   UNL     1      30.994  -4.564 -23.782  0.00  0.00    +0.001 C 
ATOM     30  C   UNL     1      33.020  -4.766 -25.633  0.00  0.00    +0.176 C 
ATOM     31  C   UNL     1      32.547  -3.531 -25.253  0.00  0.00    +0.176 C 
ATOM     32  C   UNL     1      31.532  -3.397 -24.326  0.00  0.00    +0.040 C 
ATOM     33  C   UNL     1      34.122  -3.245 -26.708  0.00  0.00    +0.429 C 
ENDBRANCH  24  27
ENDBRANCH  22  24
ENDBRANCH  21  22
ENDBRANCH   3  21
TORSDOF 4
ENDMDL
MODEL 7
REMARK VINA RESULT:      -9.9     10.806     15.092
REMARK  Name = 11282283
REMARK  4 active torsions:
REMARK  status: ('A' for Active; 'I' for Inactive)
REMARK    1  A    between atoms: N_3  and  C_21
REMARK    2  A    between atoms: C_21  and  N_22
REMARK    3  A    between atoms: N_22  and  C_24
REMARK    4  A    between atoms: C_24  and  C_27
REMARK                            x       y       z     vdW  Elec       q    Type
REMARK                         _______ _______ _______ _____ _____    ______ ____
ROOT
ATOM      1  O   UNL     1      37.111 -25.016 -14.609  0.00  0.00    -0.466 OA
ATOM      2  N   UNL     1      34.409 -24.088 -13.905  0.00  0.00    -0.290 N 
ATOM      3  N   UNL     1      32.398 -23.402 -15.847  0.00  0.00    -0.288 N 
ATOM      4  N   UNL     1      35.130 -24.326 -11.639  0.00  0.00    -0.230 NA
ATOM      5  N   UNL     1      37.378 -25.097 -11.077  0.00  0.00    -0.245 NA
ATOM      6  C   UNL     1      32.984 -24.264 -13.604  0.00  0.00    +0.113 C 
ATOM      7  C   UNL     1      34.785 -23.555 -15.219  0.00  0.00    +0.113 C 
ATOM      8  C   UNL     1      32.183 -24.475 -14.888  0.00  0.00    +0.114 C 
ATOM      9  C   UNL     1      33.665 -22.689 -15.792  0.00  0.00    +0.114 C 
ATOM     10  C   UNL     1      35.383 -24.417 -12.964  0.00  0.00    +0.152 C 
ATOM     11  C   UNL     1      36.635 -24.849 -13.348  0.00  0.00    +0.258 C 
ATOM     12  C   UNL     1      37.604 -25.179 -12.411  0.00  0.00    +0.106 C 
ATOM     13  C   UNL     1      38.752 -25.575 -13.144  0.00  0.00    +0.051 C 
ATOM     14  C   UNL     1      38.398 -25.457 -14.488  0.00  0.00    +0.141 C 
ATOM     15  C   UNL     1      36.129 -24.667 -10.790  0.00  0.00    +0.251 C 
ATOM     16  C   UNL     1      40.048 -26.019 -12.828  0.00  0.00    +0.004 C 
ATOM     17  C   UNL     1      39.254 -25.754 -15.547  0.00  0.00    +0.037 C 
ATOM     18  C   UNL     1      40.929 -26.324 -13.874  0.00  0.00    +0.000 C 
ATOM     19  C   UNL     1      40.537 -26.193 -15.209  0.00  0.00    +0.003 C 
ENDROOT
BRANCH   3  21
ATOM     20  S   UNL     1      29.820 -23.161 -16.383  0.00  0.00    -0.019 S 
ATOM     21  C   UNL     1      31.448 -23.078 -16.761  0.00  0.00    +0.135 C 
BRANCH  21  22
ATOM     22  N   UNL     1      31.870 -22.678 -18.003  0.00  0.00    -0.312 N 
ATOM     23  H   UNL     1      31.265 -22.093 -18.513  0.00  0.00    +0.149 HD
BRANCH  22  24
ATOM     24  C   UNL     1      33.125 -23.036 -18.634  0.00  0.00    +0.116 C 
BRANCH  24  27
ATOM     25  O   UNL     1      36.799 -20.215 -20.345  0.00  0.00    -0.435 OA
ATOM     26  O   UNL     1      35.306 -18.879 -21.682  0.00  0.00    -0.435 OA
ATOM     27  C   UNL     1      33.677 -21.913 -19.464  0.00  0.00    +0.001 C 
ATOM     28  C   UNL     1      35.045 -21.658 -19.450  0.00  0.00    +0.038 C 
ATOM     29  C   UNL     1      32.802 -21.140 -20.240  0.00  0.00    +0.001 C 
ATOM     30  C   UNL     1      35.504 -20.617 -20.229  0.00  0.00    +0.176 C 
ATOM     31  C   UNL     1      34.651 -19.853 -20.993  0.00  0.00    +0.176 C 
ATOM     32  C   UNL     1      33.292 -20.090 -21.020  0.00  0.00    +0.040 C 
ATOM     33  C   UNL     1      36.666 -19.115 -21.267  0.00  0.00    +0.429 C 
ENDBRANCH  24  27
ENDBRANCH  22  24
ENDBRANCH  21  22
ENDBRANCH   3  21
TORSDOF 4
ENDMDL
MODEL 8
REMARK VINA RESULT:      -9.7      1.948      2.580
REMARK  Name = 11282283
REMARK  4 active torsions:
REMARK  status: ('A' for Active; 'I' for Inactive)
REMARK    1  A    between atoms: N_3  and  C_21
REMARK    2  A    between atoms: C_21  and  N_22
REMARK    3  A    between atoms: N_22  and  C_24
REMARK    4  A    between atoms: C_24  and  C_27
REMARK                            x       y       z     vdW  Elec       q    Type
REMARK                         _______ _______ _______ _____ _____    ______ ____
ROOT
ATOM      1  O   UNL     1      34.758 -16.525 -22.878  0.00  0.00    -0.466 OA
ATOM      2  N   UNL     1      33.527 -14.539 -24.665  0.00  0.00    -0.290 N 
ATOM      3  N   UNL     1      33.473 -11.713 -24.119  0.00  0.00    -0.288 N 
ATOM      4  N   UNL     1      32.992 -16.409 -26.053  0.00  0.00    -0.230 NA
ATOM      5  N   UNL     1      33.616 -18.689 -25.440  0.00  0.00    -0.245 NA
ATOM      6  C   UNL     1      33.524 -13.563 -25.760  0.00  0.00    +0.113 C 
ATOM      7  C   UNL     1      33.502 -14.041 -23.285  0.00  0.00    +0.113 C 
ATOM      8  C   UNL     1      34.134 -12.238 -25.304  0.00  0.00    +0.114 C 
ATOM      9  C   UNL     1      32.841 -12.665 -23.219  0.00  0.00    +0.114 C 
ATOM     10  C   UNL     1      33.550 -15.907 -24.929  0.00  0.00    +0.152 C 
ATOM     11  C   UNL     1      34.142 -16.796 -24.057  0.00  0.00    +0.258 C 
ATOM     12  C   UNL     1      34.167 -18.158 -24.321  0.00  0.00    +0.106 C 
ATOM     13  C   UNL     1      34.843 -18.766 -23.232  0.00  0.00    +0.051 C 
ATOM     14  C   UNL     1      35.186 -17.720 -22.374  0.00  0.00    +0.141 C 
ATOM     15  C   UNL     1      33.059 -17.749 -26.237  0.00  0.00    +0.251 C 
ATOM     16  C   UNL     1      35.205 -20.075 -22.872  0.00  0.00    +0.004 C 
ATOM     17  C   UNL     1      35.870 -17.893 -21.172  0.00  0.00    +0.037 C 
ATOM     18  C   UNL     1      35.894 -20.277 -21.668  0.00  0.00    +0.000 C 
ATOM     19  C   UNL     1      36.219 -19.204 -20.835  0.00  0.00    +0.003 C 
ENDROOT
BRANCH   3  21
ATOM     20  S   UNL     1      34.822  -9.441 -24.025  0.00  0.00    -0.019 S 
ATOM     21  C   UNL     1      33.446 -10.380 -23.864  0.00  0.00    +0.135 C 
BRANCH  21  22
ATOM     22  N   UNL     1      32.253  -9.830 -23.471  0.00  0.00    -0.312 N 
ATOM     23  H   UNL     1      31.512  -9.861 -24.118  0.00  0.00    +0.149 HD
BRANCH  22  24
ATOM     24  C   UNL     1      31.981  -9.208 -22.190  0.00  0.00    +0.116 C 
BRANCH  24  27
ATOM     25  O   UNL     1      31.321  -5.029 -24.735  0.00  0.00    -0.435 OA
ATOM     26  O   UNL     1      31.475  -3.663 -22.756  0.00  0.00    -0.435 OA
ATOM     27  C   UNL     1      31.849  -7.717 -22.306  0.00  0.00    +0.001 C 
ATOM     28  C   UNL     1      31.640  -7.143 -23.556  0.00  0.00    +0.038 C 
ATOM     29  C   UNL     1      31.940  -6.929 -21.150  0.00  0.00    +0.001 C 
ATOM     30  C   UNL     1      31.525  -5.769 -23.611  0.00  0.00    +0.176 C 
ATOM     31  C   UNL     1      31.613  -4.989 -22.481  0.00  0.00    +0.176 C 
ATOM     32  C   UNL     1      31.820  -5.540 -21.233  0.00  0.00    +0.040 C 
ATOM     33  C   UNL     1      31.289  -3.696 -24.185  0.00  0.00    +0.429 C 
ENDBRANCH  24  27
ENDBRANCH  22  24
ENDBRANCH  21  22
ENDBRANCH   3  21
TORSDOF 4
ENDMDL
MODEL 9
REMARK VINA RESULT:      -9.2      3.713     10.779
REMARK  Name = 11282283
REMARK  4 active torsions:
REMARK  status: ('A' for Active; 'I' for Inactive)
REMARK    1  A    between atoms: N_3  and  C_21
REMARK    2  A    between atoms: C_21  and  N_22
REMARK    3  A    between atoms: N_22  and  C_24
REMARK    4  A    between atoms: C_24  and  C_27
REMARK                            x       y       z     vdW  Elec       q    Type
REMARK                         _______ _______ _______ _____ _____    ______ ____
ROOT
ATOM      1  O   UNL     1      32.608 -11.363 -22.023  0.00  0.00    -0.466 OA
ATOM      2  N   UNL     1      33.854 -12.736 -24.308  0.00  0.00    -0.290 N 
ATOM      3  N   UNL     1      33.836 -15.593 -24.661  0.00  0.00    -0.288 N 
ATOM      4  N   UNL     1      34.468 -10.545 -25.038  0.00  0.00    -0.230 NA
ATOM      5  N   UNL     1      33.870  -8.548 -23.765  0.00  0.00    -0.245 NA
ATOM      6  C   UNL     1      33.870 -13.326 -25.650  0.00  0.00    +0.113 C 
ATOM      7  C   UNL     1      33.827 -13.635 -23.149  0.00  0.00    +0.113 C 
ATOM      8  C   UNL     1      33.221 -14.709 -25.640  0.00  0.00    +0.114 C 
ATOM      9  C   UNL     1      34.458 -14.982 -23.496  0.00  0.00    +0.114 C 
ATOM     10  C   UNL     1      33.866 -11.353 -24.137  0.00  0.00    +0.152 C 
ATOM     11  C   UNL     1      33.265 -10.759 -23.047  0.00  0.00    +0.258 C 
ATOM     12  C   UNL     1      33.275  -9.382 -22.877  0.00  0.00    +0.106 C 
ATOM     13  C   UNL     1      32.578  -9.122 -21.669  0.00  0.00    +0.051 C 
ATOM     14  C   UNL     1      32.189 -10.370 -21.185  0.00  0.00    +0.141 C 
ATOM     15  C   UNL     1      34.433  -9.211 -24.800  0.00  0.00    +0.251 C 
ATOM     16  C   UNL     1      32.231  -7.977 -20.931  0.00  0.00    +0.004 C 
ATOM     17  C   UNL     1      31.471 -10.558 -20.004  0.00  0.00    +0.037 C 
ATOM     18  C   UNL     1      31.510  -8.137 -19.740  0.00  0.00    +0.000 C 
ATOM     19  C   UNL     1      31.138  -9.405 -19.287  0.00  0.00    +0.003 C 
ENDROOT
BRANCH   3  21
ATOM     20  S   UNL     1      32.956 -17.652 -26.067  0.00  0.00    -0.019 S 
ATOM     21  C   UNL     1      33.828 -16.939 -24.829  0.00  0.00    +0.135 C 
BRANCH  21  22
ATOM     22  N   UNL     1      34.562 -17.696 -23.951  0.00  0.00    -0.312 N 
ATOM     23  H   UNL     1      35.357 -17.273 -23.553  0.00  0.00    +0.149 HD
BRANCH  22  24
ATOM     24  C   UNL     1      34.274 -19.060 -23.553  0.00  0.00    +0.116 C 
BRANCH  24  27
ATOM     25  O   UNL     1      35.110 -21.840 -19.560  0.00  0.00    -0.435 OA
ATOM     26  O   UNL     1      37.179 -20.710 -19.063  0.00  0.00    -0.435 OA
ATOM     27  C   UNL     1      35.079 -19.478 -22.356  0.00  0.00    +0.001 C 
ATOM     28  C   UNL     1      34.618 -20.513 -21.549  0.00  0.00    +0.038 C 
ATOM     29  C   UNL     1      36.282 -18.815 -22.074  0.00  0.00    +0.001 C 
ATOM     30  C   UNL     1      35.392 -20.861 -20.461  0.00  0.00    +0.176 C 
ATOM     31  C   UNL     1      36.574 -20.216 -20.177  0.00  0.00    +0.176 C 
ATOM     32  C   UNL     1      37.047 -19.186 -20.967  0.00  0.00    +0.040 C 
ATOM     33  C   UNL     1      36.247 -21.740 -18.678  0.00  0.00    +0.429 C 
ENDBRANCH  24  27
ENDBRANCH  22  24
ENDBRANCH  21  22
ENDBRANCH   3  21
TORSDOF 4
ENDMDL
