MODEL 1
REMARK VINA RESULT:     -12.2      0.000      0.000
REMARK  Name = 24978486
REMARK  5 active torsions:
REMARK  status: ('A' for Active; 'I' for Inactive)
REMARK    1  A    between atoms: O_1  and  C_6
REMARK    2  A    between atoms: O_1  and  C_18
REMARK    3  A    between atoms: C_18  and  C_20
REMARK    4  A    between atoms: N_19  and  C_26
REMARK    5  A    between atoms: C_26  and  C_29
REMARK                            x       y       z     vdW  Elec       q    Type
REMARK                         _______ _______ _______ _____ _____    ______ ____
ROOT
ATOM      1  O   UNL     1      34.602 -23.262 -17.490  0.00  0.00    -0.479 OA
ENDROOT
BRANCH   1   6
ATOM      2  N   UNL     1      33.870 -24.312 -12.817  0.00  0.00    -0.332 NA
ATOM      3  N   UNL     1      36.139 -24.098 -13.600  0.00  0.00    -0.317 NA
ATOM      4  N   UNL     1      36.615 -23.595 -15.826  0.00  0.00    -0.335 N 
ATOM      5  N   UNL     1      35.684 -24.603 -11.358  0.00  0.00    -0.283 N 
ATOM      6  C   UNL     1      33.796 -23.515 -16.409  0.00  0.00    +0.130 C 
ATOM      7  C   UNL     1      34.287 -23.793 -15.121  0.00  0.00    +0.177 C 
ATOM      8  C   UNL     1      32.424 -23.487 -16.639  0.00  0.00    +0.033 C 
ATOM      9  C   UNL     1      33.411 -24.045 -14.053  0.00  0.00    +0.137 C 
ATOM     10  C   UNL     1      35.646 -23.834 -14.824  0.00  0.00    +0.181 C 
ATOM     11  C   UNL     1      31.547 -23.736 -15.590  0.00  0.00    +0.005 C 
ATOM     12  C   UNL     1      32.044 -24.012 -14.311  0.00  0.00    +0.030 C 
ATOM     13  C   UNL     1      35.209 -24.324 -12.657  0.00  0.00    +0.197 C 
ATOM     14  H   UNL     1      37.573 -23.628 -15.603  0.00  0.00    +0.144 HD
ATOM     15  H   UNL     1      36.330 -23.395 -16.747  0.00  0.00    +0.144 HD
ATOM     16  H   UNL     1      35.046 -24.776 -10.628  0.00  0.00    +0.156 HD
ATOM     17  H   UNL     1      36.652 -24.624 -11.180  0.00  0.00    +0.156 HD
ENDBRANCH   1   6
BRANCH   1  18
ATOM     18  C   UNL     1      33.961 -23.023 -18.729  0.00  0.00    +0.205 C 
BRANCH  18  20
ATOM     19  N   UNL     1      35.290 -19.994 -21.507  0.00  0.00    +0.390 N 
ATOM     20  C   UNL     1      34.424 -21.670 -19.263  0.00  0.00    +0.040 C 
ATOM     21  C   UNL     1      33.445 -21.126 -20.309  0.00  0.00    -0.019 C 
ATOM     22  C   UNL     1      35.827 -21.769 -19.870  0.00  0.00    -0.019 C 
ATOM     23  C   UNL     1      33.955 -19.819 -20.921  0.00  0.00    -0.077 C 
ATOM     24  C   UNL     1      36.257 -20.441 -20.496  0.00  0.00    -0.077 C 
ATOM     25  H   UNL     1      35.227 -20.716 -22.224  0.00  0.00    -0.079 HD
BRANCH  19  26
ATOM     26  C   UNL     1      35.741 -18.751 -22.132  0.00  0.00    -0.049 C 
BRANCH  26  29
ATOM     27 CL   UNL     1      35.092 -15.853 -22.811  0.00  0.00    -0.082 Cl
ATOM     28 CL   UNL     1      33.566 -15.422 -25.606  0.00  0.00    -0.081 Cl
ATOM     29  C   UNL     1      35.025 -18.484 -23.430  0.00  0.00    -0.032 C 
ATOM     30  C   UNL     1      34.682 -17.193 -23.833  0.00  0.00    +0.062 C 
ATOM     31  C   UNL     1      34.705 -19.575 -24.238  0.00  0.00    -0.005 C 
ATOM     32  C   UNL     1      34.019 -16.994 -25.045  0.00  0.00    +0.068 C 
ATOM     33  C   UNL     1      34.042 -19.376 -25.449  0.00  0.00    +0.001 C 
ATOM     34  C   UNL     1      33.700 -18.085 -25.852  0.00  0.00    +0.012 C 
ENDBRANCH  26  29
ENDBRANCH  19  26
ENDBRANCH  18  20
ENDBRANCH   1  18
TORSDOF 5
ENDMDL
MODEL 2
REMARK VINA RESULT:     -12.1      1.564      2.422
REMARK  Name = 24978486
REMARK  5 active torsions:
REMARK  status: ('A' for Active; 'I' for Inactive)
REMARK    1  A    between atoms: O_1  and  C_6
REMARK    2  A    between atoms: O_1  and  C_18
REMARK    3  A    between atoms: C_18  and  C_20
REMARK    4  A    between atoms: N_19  and  C_26
REMARK    5  A    between atoms: C_26  and  C_29
REMARK                            x       y       z     vdW  Elec       q    Type
REMARK                         _______ _______ _______ _____ _____    ______ ____
ROOT
ATOM      1  O   UNL     1      34.939 -22.791 -17.588  0.00  0.00    -0.479 OA
ENDROOT
BRANCH   1   6
ATOM      2  N   UNL     1      35.899 -24.269 -13.075  0.00  0.00    -0.332 NA
ATOM      3  N   UNL     1      37.731 -23.508 -14.443  0.00  0.00    -0.317 NA
ATOM      4  N   UNL     1      37.391 -22.773 -16.630  0.00  0.00    -0.335 N 
ATOM      5  N   UNL     1      38.094 -24.242 -12.248  0.00  0.00    -0.283 N 
ATOM      6  C   UNL     1      34.570 -23.284 -16.362  0.00  0.00    +0.130 C 
ATOM      7  C   UNL     1      35.477 -23.527 -15.316  0.00  0.00    +0.177 C 
ATOM      8  C   UNL     1      33.216 -23.547 -16.182  0.00  0.00    +0.033 C 
ATOM      9  C   UNL     1      35.039 -24.034 -14.082  0.00  0.00    +0.137 C 
ATOM     10  C   UNL     1      36.843 -23.284 -15.430  0.00  0.00    +0.181 C 
ATOM     11  C   UNL     1      32.769 -24.050 -14.966  0.00  0.00    +0.005 C 
ATOM     12  C   UNL     1      33.679 -24.288 -13.930  0.00  0.00    +0.030 C 
ATOM     13  C   UNL     1      37.198 -23.994 -13.310  0.00  0.00    +0.197 C 
ATOM     14  H   UNL     1      38.358 -22.606 -16.697  0.00  0.00    +0.144 HD
ATOM     15  H   UNL     1      36.803 -22.584 -17.397  0.00  0.00    +0.144 HD
ATOM     16  H   UNL     1      37.758 -24.598 -11.394  0.00  0.00    +0.156 HD
ATOM     17  H   UNL     1      39.055 -24.059 -12.361  0.00  0.00    +0.156 HD
ENDBRANCH   1   6
BRANCH   1  18
ATOM     18  C   UNL     1      33.941 -22.747 -18.592  0.00  0.00    +0.205 C 
BRANCH  18  20
ATOM     19  N   UNL     1      35.377 -19.451 -20.985  0.00  0.00    +0.390 N 
ATOM     20  C   UNL     1      34.489 -21.976 -19.789  0.00  0.00    +0.040 C 
ATOM     21  C   UNL     1      35.847 -21.347 -19.465  0.00  0.00    -0.019 C 
ATOM     22  C   UNL     1      33.508 -20.888 -20.238  0.00  0.00    -0.019 C 
ATOM     23  C   UNL     1      36.354 -20.489 -20.627  0.00  0.00    -0.077 C 
ATOM     24  C   UNL     1      34.092 -20.046 -21.374  0.00  0.00    -0.077 C 
ATOM     25  H   UNL     1      35.220 -18.870 -20.162  0.00  0.00    -0.079 HD
BRANCH  19  26
ATOM     26  C   UNL     1      35.898 -18.609 -22.061  0.00  0.00    -0.049 C 
BRANCH  26  29
ATOM     27 CL   UNL     1      34.997 -17.345 -24.682  0.00  0.00    -0.082 Cl
ATOM     28 CL   UNL     1      33.816 -14.369 -24.420  0.00  0.00    -0.081 Cl
ATOM     29  C   UNL     1      35.335 -17.213 -22.003  0.00  0.00    -0.032 C 
ATOM     30  C   UNL     1      34.895 -16.546 -23.146  0.00  0.00    +0.062 C 
ATOM     31  C   UNL     1      35.261 -16.588 -20.759  0.00  0.00    -0.005 C 
ATOM     32  C   UNL     1      34.380 -15.253 -23.044  0.00  0.00    +0.068 C 
ATOM     33  C   UNL     1      34.746 -15.296 -20.657  0.00  0.00    +0.001 C 
ATOM     34  C   UNL     1      34.306 -14.629 -21.800  0.00  0.00    +0.012 C 
ENDBRANCH  26  29
ENDBRANCH  19  26
ENDBRANCH  18  20
ENDBRANCH   1  18
TORSDOF 5
ENDMDL
MODEL 3
REMARK VINA RESULT:     -11.9      1.548      2.471
REMARK  Name = 24978486
REMARK  5 active torsions:
REMARK  status: ('A' for Active; 'I' for Inactive)
REMARK    1  A    between atoms: O_1  and  C_6
REMARK    2  A    between atoms: O_1  and  C_18
REMARK    3  A    between atoms: C_18  and  C_20
REMARK    4  A    between atoms: N_19  and  C_26
REMARK    5  A    between atoms: C_26  and  C_29
REMARK                            x       y       z     vdW  Elec       q    Type
REMARK                         _______ _______ _______ _____ _____    ______ ____
ROOT
ATOM      1  O   UNL     1      33.177 -22.791 -17.781  0.00  0.00    -0.479 OA
ENDROOT
BRANCH   1   6
ATOM      2  N   UNL     1      32.350 -24.710 -13.409  0.00  0.00    -0.332 NA
ATOM      3  N   UNL     1      30.458 -24.018 -14.732  0.00  0.00    -0.317 NA
ATOM      4  N   UNL     1      30.732 -23.083 -16.849  0.00  0.00    -0.335 N 
ATOM      5  N   UNL     1      30.160 -24.957 -12.605  0.00  0.00    -0.283 N 
ATOM      6  C   UNL     1      33.588 -23.347 -16.596  0.00  0.00    +0.130 C 
ATOM      7  C   UNL     1      32.706 -23.755 -15.580  0.00  0.00    +0.177 C 
ATOM      8  C   UNL     1      34.961 -23.496 -16.424  0.00  0.00    +0.033 C 
ATOM      9  C   UNL     1      33.186 -24.316 -14.386  0.00  0.00    +0.137 C 
ATOM     10  C   UNL     1      31.323 -23.635 -15.689  0.00  0.00    +0.181 C 
ATOM     11  C   UNL     1      35.450 -24.049 -15.246  0.00  0.00    +0.005 C 
ATOM     12  C   UNL     1      34.564 -24.453 -14.242  0.00  0.00    +0.030 C 
ATOM     13  C   UNL     1      31.032 -24.540 -13.635  0.00  0.00    +0.197 C 
ATOM     14  H   UNL     1      29.753 -23.003 -16.914  0.00  0.00    +0.144 HD
ATOM     15  H   UNL     1      31.301 -22.779 -17.594  0.00  0.00    +0.144 HD
ATOM     16  H   UNL     1      30.526 -25.347 -11.779  0.00  0.00    +0.156 HD
ATOM     17  H   UNL     1      29.186 -24.859 -12.714  0.00  0.00    +0.156 HD
ENDBRANCH   1   6
BRANCH   1  18
ATOM     18  C   UNL     1      34.024 -22.967 -18.902  0.00  0.00    +0.205 C 
BRANCH  18  20
ATOM     19  N   UNL     1      35.284 -19.844 -21.606  0.00  0.00    +0.390 N 
ATOM     20  C   UNL     1      34.460 -21.593 -19.403  0.00  0.00    +0.040 C 
ATOM     21  C   UNL     1      33.466 -21.039 -20.428  0.00  0.00    -0.019 C 
ATOM     22  C   UNL     1      35.861 -21.651 -20.019  0.00  0.00    -0.019 C 
ATOM     23  C   UNL     1      33.949 -19.708 -21.008  0.00  0.00    -0.077 C 
ATOM     24  C   UNL     1      36.265 -20.300 -20.613  0.00  0.00    -0.077 C 
ATOM     25  H   UNL     1      35.229 -20.548 -22.342  0.00  0.00    -0.079 HD
BRANCH  19  26
ATOM     26  C   UNL     1      35.709 -18.577 -22.201  0.00  0.00    -0.049 C 
BRANCH  26  29
ATOM     27 CL   UNL     1      35.080 -15.659 -22.811  0.00  0.00    -0.082 Cl
ATOM     28 CL   UNL     1      33.489 -15.158 -25.557  0.00  0.00    -0.081 Cl
ATOM     29  C   UNL     1      34.964 -18.278 -23.475  0.00  0.00    -0.032 C 
ATOM     30  C   UNL     1      34.628 -16.975 -23.846  0.00  0.00    +0.062 C 
ATOM     31  C   UNL     1      34.609 -19.349 -24.294  0.00  0.00    -0.005 C 
ATOM     32  C   UNL     1      33.937 -16.746 -25.036  0.00  0.00    +0.068 C 
ATOM     33  C   UNL     1      33.920 -19.120 -25.484  0.00  0.00    +0.001 C 
ATOM     34  C   UNL     1      33.583 -17.818 -25.855  0.00  0.00    +0.012 C 
ENDBRANCH  26  29
ENDBRANCH  19  26
ENDBRANCH  18  20
ENDBRANCH   1  18
TORSDOF 5
ENDMDL
MODEL 4
REMARK VINA RESULT:     -11.7      3.666      6.122
REMARK  Name = 24978486
REMARK  5 active torsions:
REMARK  status: ('A' for Active; 'I' for Inactive)
REMARK    1  A    between atoms: O_1  and  C_6
REMARK    2  A    between atoms: O_1  and  C_18
REMARK    3  A    between atoms: C_18  and  C_20
REMARK    4  A    between atoms: N_19  and  C_26
REMARK    5  A    between atoms: C_26  and  C_29
REMARK                            x       y       z     vdW  Elec       q    Type
REMARK                         _______ _______ _______ _____ _____    ______ ____
ROOT
ATOM      1  O   UNL     1      34.609 -19.699 -21.669  0.00  0.00    -0.479 OA
ENDROOT
BRANCH   1   6
ATOM      2  N   UNL     1      34.657 -22.800 -17.946  0.00  0.00    -0.332 NA
ATOM      3  N   UNL     1      32.530 -22.192 -18.901  0.00  0.00    -0.317 NA
ATOM      4  N   UNL     1      32.382 -20.710 -20.695  0.00  0.00    -0.335 N 
ATOM      5  N   UNL     1      32.656 -23.684 -17.099  0.00  0.00    -0.283 N 
ATOM      6  C   UNL     1      35.249 -20.444 -20.710  0.00  0.00    +0.130 C 
ATOM      7  C   UNL     1      34.579 -21.269 -19.790  0.00  0.00    +0.177 C 
ATOM      8  C   UNL     1      36.637 -20.349 -20.676  0.00  0.00    +0.033 C 
ATOM      9  C   UNL     1      35.289 -22.007 -18.830  0.00  0.00    +0.137 C 
ATOM     10  C   UNL     1      33.194 -21.409 -19.771  0.00  0.00    +0.181 C 
ATOM     11  C   UNL     1      37.351 -21.074 -19.730  0.00  0.00    +0.005 C 
ATOM     12  C   UNL     1      36.677 -21.894 -18.818  0.00  0.00    +0.030 C 
ATOM     13  C   UNL     1      33.312 -22.850 -18.029  0.00  0.00    +0.197 C 
ATOM     14  H   UNL     1      31.404 -20.818 -20.671  0.00  0.00    +0.144 HD
ATOM     15  H   UNL     1      32.796 -20.117 -21.363  0.00  0.00    +0.144 HD
ATOM     16  H   UNL     1      33.181 -24.190 -16.437  0.00  0.00    +0.156 HD
ATOM     17  H   UNL     1      31.675 -23.762 -17.113  0.00  0.00    +0.156 HD
ENDBRANCH   1   6
BRANCH   1  18
ATOM     18  C   UNL     1      35.197 -19.666 -22.957  0.00  0.00    +0.205 C 
BRANCH  18  20
ATOM     19  N   UNL     1      34.164 -15.514 -23.551  0.00  0.00    +0.390 N 
ATOM     20  C   UNL     1      35.305 -18.211 -23.404  0.00  0.00    +0.040 C 
ATOM     21  C   UNL     1      35.283 -17.261 -22.202  0.00  0.00    -0.019 C 
ATOM     22  C   UNL     1      34.174 -17.847 -24.372  0.00  0.00    -0.019 C 
ATOM     23  C   UNL     1      35.289 -15.798 -22.649  0.00  0.00    -0.077 C 
ATOM     24  C   UNL     1      34.217 -16.365 -24.747  0.00  0.00    -0.077 C 
ATOM     25  H   UNL     1      33.300 -15.725 -23.052  0.00  0.00    -0.079 HD
BRANCH  19  26
ATOM     26  C   UNL     1      34.155 -14.101 -23.927  0.00  0.00    -0.049 C 
BRANCH  26  29
ATOM     27 CL   UNL     1      33.674 -11.183 -24.661  0.00  0.00    -0.082 Cl
ATOM     28 CL   UNL     1      31.888  -9.532 -22.561  0.00  0.00    -0.081 Cl
ATOM     29  C   UNL     1      33.325 -13.274 -22.982  0.00  0.00    -0.032 C 
ATOM     30  C   UNL     1      33.046 -11.929 -23.226  0.00  0.00    +0.062 C 
ATOM     31  C   UNL     1      32.829 -13.891 -21.834  0.00  0.00    -0.005 C 
ATOM     32  C   UNL     1      32.272 -11.202 -22.321  0.00  0.00    +0.068 C 
ATOM     33  C   UNL     1      32.054 -13.165 -20.930  0.00  0.00    +0.001 C 
ATOM     34  C   UNL     1      31.776 -11.820 -21.174  0.00  0.00    +0.012 C 
ENDBRANCH  26  29
ENDBRANCH  19  26
ENDBRANCH  18  20
ENDBRANCH   1  18
TORSDOF 5
ENDMDL
MODEL 5
REMARK VINA RESULT:     -11.5      2.161      3.521
REMARK  Name = 24978486
REMARK  5 active torsions:
REMARK  status: ('A' for Active; 'I' for Inactive)
REMARK    1  A    between atoms: O_1  and  C_6
REMARK    2  A    between atoms: O_1  and  C_18
REMARK    3  A    between atoms: C_18  and  C_20
REMARK    4  A    between atoms: N_19  and  C_26
REMARK    5  A    between atoms: C_26  and  C_29
REMARK                            x       y       z     vdW  Elec       q    Type
REMARK                         _______ _______ _______ _____ _____    ______ ____
ROOT
ATOM      1  O   UNL     1      35.318 -22.312 -18.495  0.00  0.00    -0.479 OA
ENDROOT
BRANCH   1   6
ATOM      2  N   UNL     1      32.799 -23.932 -14.686  0.00  0.00    -0.332 NA
ATOM      3  N   UNL     1      31.596 -23.360 -16.693  0.00  0.00    -0.317 NA
ATOM      4  N   UNL     1      32.700 -22.571 -18.589  0.00  0.00    -0.335 N 
ATOM      5  N   UNL     1      30.466 -24.152 -14.799  0.00  0.00    -0.283 N 
ATOM      6  C   UNL     1      35.218 -22.778 -17.208  0.00  0.00    +0.130 C 
ATOM      7  C   UNL     1      33.999 -23.126 -16.599  0.00  0.00    +0.177 C 
ATOM      8  C   UNL     1      36.408 -22.895 -16.497  0.00  0.00    +0.033 C 
ATOM      9  C   UNL     1      33.960 -23.595 -15.277  0.00  0.00    +0.137 C 
ATOM     10  C   UNL     1      32.775 -23.032 -17.255  0.00  0.00    +0.181 C 
ATOM     11  C   UNL     1      36.382 -23.358 -15.186  0.00  0.00    +0.005 C 
ATOM     12  C   UNL     1      35.165 -23.703 -14.589  0.00  0.00    +0.030 C 
ATOM     13  C   UNL     1      31.680 -23.796 -15.426  0.00  0.00    +0.197 C 
ATOM     14  H   UNL     1      31.828 -22.510 -19.041  0.00  0.00    +0.144 HD
ATOM     15  H   UNL     1      33.521 -22.313 -19.067  0.00  0.00    +0.144 HD
ATOM     16  H   UNL     1      30.469 -24.478 -13.870  0.00  0.00    +0.156 HD
ATOM     17  H   UNL     1      29.617 -24.075 -15.291  0.00  0.00    +0.156 HD
ENDBRANCH   1   6
BRANCH   1  18
ATOM     18  C   UNL     1      36.535 -21.687 -18.860  0.00  0.00    +0.205 C 
BRANCH  18  20
ATOM     19  N   UNL     1      35.608 -18.716 -21.855  0.00  0.00    +0.390 N 
ATOM     20  C   UNL     1      36.356 -21.038 -20.230  0.00  0.00    +0.040 C 
ATOM     21  C   UNL     1      37.266 -19.815 -20.383  0.00  0.00    -0.019 C 
ATOM     22  C   UNL     1      34.897 -20.631 -20.460  0.00  0.00    -0.019 C 
ATOM     23  C   UNL     1      37.018 -19.102 -21.714  0.00  0.00    -0.077 C 
ATOM     24  C   UNL     1      34.729 -19.891 -21.788  0.00  0.00    -0.077 C 
ATOM     25  H   UNL     1      35.371 -18.100 -21.077  0.00  0.00    -0.079 HD
BRANCH  19  26
ATOM     26  C   UNL     1      35.399 -17.990 -23.107  0.00  0.00    -0.049 C 
BRANCH  26  29
ATOM     27 CL   UNL     1      34.253 -16.465 -25.483  0.00  0.00    -0.082 Cl
ATOM     28 CL   UNL     1      33.283 -13.471 -24.834  0.00  0.00    -0.081 Cl
ATOM     29  C   UNL     1      34.927 -16.581 -22.867  0.00  0.00    -0.032 C 
ATOM     30  C   UNL     1      34.387 -15.798 -23.887  0.00  0.00    +0.062 C 
ATOM     31  C   UNL     1      35.043 -16.062 -21.578  0.00  0.00    -0.005 C 
ATOM     32  C   UNL     1      33.963 -14.496 -23.618  0.00  0.00    +0.068 C 
ATOM     33  C   UNL     1      34.619 -14.761 -21.308  0.00  0.00    +0.001 C 
ATOM     34  C   UNL     1      34.079 -13.978 -22.328  0.00  0.00    +0.012 C 
ENDBRANCH  26  29
ENDBRANCH  19  26
ENDBRANCH  18  20
ENDBRANCH   1  18
TORSDOF 5
ENDMDL
MODEL 6
REMARK VINA RESULT:     -11.4      6.302     11.818
REMARK  Name = 24978486
REMARK  5 active torsions:
REMARK  status: ('A' for Active; 'I' for Inactive)
REMARK    1  A    between atoms: O_1  and  C_6
REMARK    2  A    between atoms: O_1  and  C_18
REMARK    3  A    between atoms: C_18  and  C_20
REMARK    4  A    between atoms: N_19  and  C_26
REMARK    5  A    between atoms: C_26  and  C_29
REMARK                            x       y       z     vdW  Elec       q    Type
REMARK                         _______ _______ _______ _____ _____    ______ ____
ROOT
ATOM      1  O   UNL     1      32.993 -13.178 -23.699  0.00  0.00    -0.479 OA
ENDROOT
BRANCH   1   6
ATOM      2  N   UNL     1      33.158  -8.487 -22.494  0.00  0.00    -0.332 NA
ATOM      3  N   UNL     1      31.668  -9.931 -21.269  0.00  0.00    -0.317 NA
ATOM      4  N   UNL     1      31.503 -12.205 -21.758  0.00  0.00    -0.335 N 
ATOM      5  N   UNL     1      31.818  -7.649 -20.760  0.00  0.00    -0.283 N 
ATOM      6  C   UNL     1      33.467 -11.897 -23.842  0.00  0.00    +0.130 C 
ATOM      7  C   UNL     1      33.039 -10.817 -23.051  0.00  0.00    +0.177 C 
ATOM      8  C   UNL     1      34.418 -11.697 -24.837  0.00  0.00    +0.033 C 
ATOM      9  C   UNL     1      33.560  -9.527 -23.246  0.00  0.00    +0.137 C 
ATOM     10  C   UNL     1      32.092 -10.950 -22.039  0.00  0.00    +0.181 C 
ATOM     11  C   UNL     1      34.941 -10.424 -25.041  0.00  0.00    +0.005 C 
ATOM     12  C   UNL     1      34.510  -9.355 -24.248  0.00  0.00    +0.030 C 
ATOM     13  C   UNL     1      32.234  -8.745 -21.546  0.00  0.00    +0.197 C 
ATOM     14  H   UNL     1      30.835 -12.286 -21.041  0.00  0.00    +0.144 HD
ATOM     15  H   UNL     1      31.764 -12.998 -22.281  0.00  0.00    +0.144 HD
ATOM     16  H   UNL     1      32.200  -6.756 -20.920  0.00  0.00    +0.156 HD
ATOM     17  H   UNL     1      31.146  -7.777 -20.052  0.00  0.00    +0.156 HD
ENDBRANCH   1   6
BRANCH   1  18
ATOM     18  C   UNL     1      33.195 -14.064 -24.784  0.00  0.00    +0.205 C 
BRANCH  18  20
ATOM     19  N   UNL     1      34.832 -17.631 -22.981  0.00  0.00    +0.390 N 
ATOM     20  C   UNL     1      34.211 -15.123 -24.366  0.00  0.00    +0.040 C 
ATOM     21  C   UNL     1      33.850 -16.493 -24.947  0.00  0.00    -0.019 C 
ATOM     22  C   UNL     1      34.311 -15.217 -22.840  0.00  0.00    -0.019 C 
ATOM     23  C   UNL     1      34.808 -17.578 -24.449  0.00  0.00    -0.077 C 
ATOM     24  C   UNL     1      35.253 -16.344 -22.412  0.00  0.00    -0.077 C 
ATOM     25  H   UNL     1      33.884 -17.824 -22.657  0.00  0.00    -0.079 HD
BRANCH  19  26
ATOM     26  C   UNL     1      35.711 -18.706 -22.523  0.00  0.00    -0.049 C 
BRANCH  26  29
ATOM     27 CL   UNL     1      37.428 -20.219 -20.512  0.00  0.00    -0.082 Cl
ATOM     28 CL   UNL     1      35.808 -22.170 -18.539  0.00  0.00    -0.081 Cl
ATOM     29  C   UNL     1      35.009 -19.637 -21.570  0.00  0.00    -0.032 C 
ATOM     30  C   UNL     1      35.704 -20.376 -20.612  0.00  0.00    +0.062 C 
ATOM     31  C   UNL     1      33.622 -19.749 -21.666  0.00  0.00    -0.005 C 
ATOM     32  C   UNL     1      35.011 -21.226 -19.750  0.00  0.00    +0.068 C 
ATOM     33  C   UNL     1      32.930 -20.599 -20.804  0.00  0.00    +0.001 C 
ATOM     34  C   UNL     1      33.624 -21.337 -19.846  0.00  0.00    +0.012 C 
ENDBRANCH  26  29
ENDBRANCH  19  26
ENDBRANCH  18  20
ENDBRANCH   1  18
TORSDOF 5
ENDMDL
MODEL 7
REMARK VINA RESULT:     -11.4      6.484     11.802
REMARK  Name = 24978486
REMARK  5 active torsions:
REMARK  status: ('A' for Active; 'I' for Inactive)
REMARK    1  A    between atoms: O_1  and  C_6
REMARK    2  A    between atoms: O_1  and  C_18
REMARK    3  A    between atoms: C_18  and  C_20
REMARK    4  A    between atoms: N_19  and  C_26
REMARK    5  A    between atoms: C_26  and  C_29
REMARK                            x       y       z     vdW  Elec       q    Type
REMARK                         _______ _______ _______ _____ _____    ______ ____
ROOT
ATOM      1  O   UNL     1      34.146 -12.995 -23.645  0.00  0.00    -0.479 OA
ENDROOT
BRANCH   1   6
ATOM      2  N   UNL     1      32.256  -8.675 -22.529  0.00  0.00    -0.332 NA
ATOM      3  N   UNL     1      34.173  -8.743 -23.988  0.00  0.00    -0.317 NA
ATOM      4  N   UNL     1      35.168 -10.763 -24.595  0.00  0.00    -0.335 N 
ATOM      5  N   UNL     1      33.189  -6.702 -23.391  0.00  0.00    -0.283 N 
ATOM      6  C   UNL     1      33.233 -12.190 -23.010  0.00  0.00    +0.130 C 
ATOM      7  C   UNL     1      33.229 -10.788 -23.112  0.00  0.00    +0.177 C 
ATOM      8  C   UNL     1      32.276 -12.833 -22.232  0.00  0.00    +0.033 C 
ATOM      9  C   UNL     1      32.269 -10.017 -22.438  0.00  0.00    +0.137 C 
ATOM     10  C   UNL     1      34.157 -10.084 -23.875  0.00  0.00    +0.181 C 
ATOM     11  C   UNL     1      31.320 -12.080 -21.558  0.00  0.00    +0.005 C 
ATOM     12  C   UNL     1      31.323 -10.686 -21.666  0.00  0.00    +0.030 C 
ATOM     13  C   UNL     1      33.209  -8.111 -23.299  0.00  0.00    +0.197 C 
ATOM     14  H   UNL     1      35.818 -10.253 -25.130  0.00  0.00    +0.144 HD
ATOM     15  H   UNL     1      35.220 -11.745 -24.561  0.00  0.00    +0.144 HD
ATOM     16  H   UNL     1      32.504  -6.187 -22.907  0.00  0.00    +0.156 HD
ATOM     17  H   UNL     1      33.860  -6.234 -23.940  0.00  0.00    +0.156 HD
ENDBRANCH   1   6
BRANCH   1  18
ATOM     18  C   UNL     1      33.651 -14.174 -24.253  0.00  0.00    +0.205 C 
BRANCH  18  20
ATOM     19  N   UNL     1      34.903 -17.968 -22.611  0.00  0.00    +0.390 N 
ATOM     20  C   UNL     1      34.556 -15.340 -23.861  0.00  0.00    +0.040 C 
ATOM     21  C   UNL     1      34.106 -16.637 -24.539  0.00  0.00    -0.019 C 
ATOM     22  C   UNL     1      34.580 -15.531 -22.341  0.00  0.00    -0.019 C 
ATOM     23  C   UNL     1      34.947 -17.828 -24.073  0.00  0.00    -0.077 C 
ATOM     24  C   UNL     1      35.405 -16.757 -21.948  0.00  0.00    -0.077 C 
ATOM     25  H   UNL     1      33.929 -18.097 -22.336  0.00  0.00    -0.079 HD
BRANCH  19  26
ATOM     26  C   UNL     1      35.668 -19.140 -22.186  0.00  0.00    -0.049 C 
BRANCH  26  29
ATOM     27 CL   UNL     1      37.235 -20.796 -20.166  0.00  0.00    -0.082 Cl
ATOM     28 CL   UNL     1      35.440 -22.608 -18.211  0.00  0.00    -0.081 Cl
ATOM     29  C   UNL     1      34.883 -20.011 -21.242  0.00  0.00    -0.032 C 
ATOM     30  C   UNL     1      35.505 -20.807 -20.280  0.00  0.00    +0.062 C 
ATOM     31  C   UNL     1      33.492 -20.006 -21.349  0.00  0.00    -0.005 C 
ATOM     32  C   UNL     1      34.735 -21.598 -19.426  0.00  0.00    +0.068 C 
ATOM     33  C   UNL     1      32.723 -20.796 -20.495  0.00  0.00    +0.001 C 
ATOM     34  C   UNL     1      33.345 -21.592 -19.533  0.00  0.00    +0.012 C 
ENDBRANCH  26  29
ENDBRANCH  19  26
ENDBRANCH  18  20
ENDBRANCH   1  18
TORSDOF 5
ENDMDL
MODEL 8
REMARK VINA RESULT:     -11.3      7.926     11.890
REMARK  Name = 24978486
REMARK  5 active torsions:
REMARK  status: ('A' for Active; 'I' for Inactive)
REMARK    1  A    between atoms: O_1  and  C_6
REMARK    2  A    between atoms: O_1  and  C_18
REMARK    3  A    between atoms: C_18  and  C_20
REMARK    4  A    between atoms: N_19  and  C_26
REMARK    5  A    between atoms: C_26  and  C_29
REMARK                            x       y       z     vdW  Elec       q    Type
REMARK                         _______ _______ _______ _____ _____    ______ ____
ROOT
ATOM      1  O   UNL     1      33.544 -13.828 -23.495  0.00  0.00    -0.479 OA
ENDROOT
BRANCH   1   6
ATOM      2  N   UNL     1      35.431 -18.257 -22.950  0.00  0.00    -0.332 NA
ATOM      3  N   UNL     1      35.451 -16.764 -21.058  0.00  0.00    -0.317 NA
ATOM      4  N   UNL     1      34.571 -14.610 -21.201  0.00  0.00    -0.335 N 
ATOM      5  N   UNL     1      36.340 -18.926 -20.893  0.00  0.00    -0.283 N 
ATOM      6  C   UNL     1      33.880 -15.076 -23.957  0.00  0.00    +0.130 C 
ATOM      7  C   UNL     1      34.509 -16.054 -23.168  0.00  0.00    +0.177 C 
ATOM      8  C   UNL     1      33.566 -15.351 -25.284  0.00  0.00    +0.033 C 
ATOM      9  C   UNL     1      34.830 -17.315 -23.697  0.00  0.00    +0.137 C 
ATOM     10  C   UNL     1      34.849 -15.844 -21.834  0.00  0.00    +0.181 C 
ATOM     11  C   UNL     1      33.879 -16.595 -25.821  0.00  0.00    +0.005 C 
ATOM     12  C   UNL     1      34.505 -17.563 -25.028  0.00  0.00    +0.030 C 
ATOM     13  C   UNL     1      35.709 -17.931 -21.671  0.00  0.00    +0.197 C 
ATOM     14  H   UNL     1      34.816 -14.474 -20.258  0.00  0.00    +0.144 HD
ATOM     15  H   UNL     1      34.131 -13.887 -21.705  0.00  0.00    +0.144 HD
ATOM     16  H   UNL     1      36.553 -19.801 -21.291  0.00  0.00    +0.156 HD
ATOM     17  H   UNL     1      36.566 -18.746 -19.951  0.00  0.00    +0.156 HD
ENDBRANCH   1   6
BRANCH   1  18
ATOM     18  C   UNL     1      33.472 -12.786 -24.452  0.00  0.00    +0.205 C 
BRANCH  18  20
ATOM     19  N   UNL     1      33.829  -8.554 -23.666  0.00  0.00    +0.390 N 
ATOM     20  C   UNL     1      33.900 -11.482 -23.783  0.00  0.00    +0.040 C 
ATOM     21  C   UNL     1      32.686 -10.710 -23.256  0.00  0.00    -0.019 C 
ATOM     22  C   UNL     1      34.693 -10.601 -24.754  0.00  0.00    -0.019 C 
ATOM     23  C   UNL     1      33.099  -9.356 -22.675  0.00  0.00    -0.077 C 
ATOM     24  C   UNL     1      35.038  -9.251 -24.123  0.00  0.00    -0.077 C 
ATOM     25  H   UNL     1      33.219  -8.419 -24.473  0.00  0.00    -0.079 HD
BRANCH  19  26
ATOM     26  C   UNL     1      34.171  -7.244 -23.113  0.00  0.00    -0.049 C 
BRANCH  26  29
ATOM     27 CL   UNL     1      31.710  -5.657 -22.271  0.00  0.00    -0.082 Cl
ATOM     28 CL   UNL     1      30.869  -3.291 -24.275  0.00  0.00    -0.081 Cl
ATOM     29  C   UNL     1      33.725  -6.122 -24.012  0.00  0.00    -0.032 C 
ATOM     30  C   UNL     1      32.612  -5.335 -23.717  0.00  0.00    +0.062 C 
ATOM     31  C   UNL     1      34.463  -5.878 -25.171  0.00  0.00    -0.005 C 
ATOM     32  C   UNL     1      32.237  -4.305 -24.580  0.00  0.00    +0.068 C 
ATOM     33  C   UNL     1      34.089  -4.849 -26.033  0.00  0.00    +0.001 C 
ATOM     34  C   UNL     1      32.975  -4.062 -25.738  0.00  0.00    +0.012 C 
ENDBRANCH  26  29
ENDBRANCH  19  26
ENDBRANCH  18  20
ENDBRANCH   1  18
TORSDOF 5
ENDMDL
MODEL 9
REMARK VINA RESULT:     -11.2      4.330     10.517
REMARK  Name = 24978486
REMARK  5 active torsions:
REMARK  status: ('A' for Active; 'I' for Inactive)
REMARK    1  A    between atoms: O_1  and  C_6
REMARK    2  A    between atoms: O_1  and  C_18
REMARK    3  A    between atoms: C_18  and  C_20
REMARK    4  A    between atoms: N_19  and  C_26
REMARK    5  A    between atoms: C_26  and  C_29
REMARK                            x       y       z     vdW  Elec       q    Type
REMARK                         _______ _______ _______ _____ _____    ______ ____
ROOT
ATOM      1  O   UNL     1      35.426 -18.267 -22.756  0.00  0.00    -0.479 OA
ENDROOT
BRANCH   1   6
ATOM      2  N   UNL     1      33.495 -14.129 -24.379  0.00  0.00    -0.332 NA
ATOM      3  N   UNL     1      33.659 -15.990 -25.902  0.00  0.00    -0.317 NA
ATOM      4  N   UNL     1      34.569 -18.030 -25.234  0.00  0.00    -0.335 N 
ATOM      5  N   UNL     1      32.741 -13.948 -26.593  0.00  0.00    -0.283 N 
ATOM      6  C   UNL     1      35.025 -16.963 -22.598  0.00  0.00    +0.130 C 
ATOM      7  C   UNL     1      34.443 -16.199 -23.625  0.00  0.00    +0.177 C 
ATOM      8  C   UNL     1      35.224 -16.401 -21.342  0.00  0.00    +0.033 C 
ATOM      9  C   UNL     1      34.054 -14.868 -23.404  0.00  0.00    +0.137 C 
ATOM     10  C   UNL     1      34.215 -16.701 -24.903  0.00  0.00    +0.181 C 
ATOM     11  C   UNL     1      34.845 -15.084 -21.111  0.00  0.00    +0.005 C 
ATOM     12  C   UNL     1      34.265 -14.331 -22.137  0.00  0.00    +0.030 C 
ATOM     13  C   UNL     1      33.328 -14.730 -25.575  0.00  0.00    +0.197 C 
ATOM     14  H   UNL     1      34.403 -18.373 -26.141  0.00  0.00    +0.144 HD
ATOM     15  H   UNL     1      34.981 -18.613 -24.555  0.00  0.00    +0.144 HD
ATOM     16  H   UNL     1      32.478 -13.017 -26.409  0.00  0.00    +0.156 HD
ATOM     17  H   UNL     1      32.592 -14.334 -27.487  0.00  0.00    +0.156 HD
ENDBRANCH   1   6
BRANCH   1  18
ATOM     18  C   UNL     1      36.152 -18.850 -21.690  0.00  0.00    +0.205 C 
BRANCH  18  20
ATOM     19  N   UNL     1      34.159 -21.774 -19.214  0.00  0.00    +0.390 N 
ATOM     20  C   UNL     1      35.454 -20.143 -21.276  0.00  0.00    +0.040 C 
ATOM     21  C   UNL     1      34.029 -19.867 -20.785  0.00  0.00    -0.019 C 
ATOM     22  C   UNL     1      36.246 -20.870 -20.185  0.00  0.00    -0.019 C 
ATOM     23  C   UNL     1      33.360 -21.146 -20.275  0.00  0.00    -0.077 C 
ATOM     24  C   UNL     1      35.504 -22.115 -19.694  0.00  0.00    -0.077 C 
ATOM     25  H   UNL     1      34.256 -21.101 -18.453  0.00  0.00    -0.079 HD
BRANCH  19  26
ATOM     26  C   UNL     1      33.481 -22.964 -18.701  0.00  0.00    -0.049 C 
BRANCH  26  29
ATOM     27 CL   UNL     1      31.067 -23.130 -16.850  0.00  0.00    -0.082 Cl
ATOM     28 CL   UNL     1      31.765 -23.573 -13.745  0.00  0.00    -0.081 Cl
ATOM     29  C   UNL     1      33.743 -23.171 -17.233  0.00  0.00    -0.032 C 
ATOM     30  C   UNL     1      32.707 -23.260 -16.303  0.00  0.00    +0.062 C 
ATOM     31  C   UNL     1      35.069 -23.274 -16.812  0.00  0.00    -0.005 C 
ATOM     32  C   UNL     1      32.998 -23.453 -14.952  0.00  0.00    +0.068 C 
ATOM     33  C   UNL     1      35.360 -23.467 -15.462  0.00  0.00    +0.001 C 
ATOM     34  C   UNL     1      34.324 -23.556 -14.532  0.00  0.00    +0.012 C 
ENDBRANCH  26  29
ENDBRANCH  19  26
ENDBRANCH  18  20
ENDBRANCH   1  18
TORSDOF 5
ENDMDL
