MODEL 1
REMARK VINA RESULT:     -11.5      0.000      0.000
REMARK  Name = 44629554
REMARK  5 active torsions:
REMARK  status: ('A' for Active; 'I' for Inactive)
REMARK    1  A    between atoms: C_5  and  C_30
REMARK    2  A    between atoms: C_6  and  N_18
REMARK    3  A    between atoms: C_7  and  C_12
REMARK    4  A    between atoms: N_18  and  C_20
REMARK    5  A    between atoms: C_20  and  C_24
REMARK                            x       y       z     vdW  Elec       q    Type
REMARK                         _______ _______ _______ _____ _____    ______ ____
ROOT
ATOM      1  N   UNL     1      32.956 -23.355 -16.472  0.00  0.00    -0.152 N 
ATOM      2  N   UNL     1      35.315 -23.822 -16.356  0.00  0.00    -0.389 NA
ATOM      3  N   UNL     1      32.051 -22.782 -17.315  0.00  0.00    -0.174 NA
ATOM      4  C   UNL     1      34.242 -23.309 -17.014  0.00  0.00    +0.189 C 
ATOM      5  C   UNL     1      34.131 -22.685 -18.235  0.00  0.00    +0.112 C 
ATOM      6  C   UNL     1      32.714 -23.929 -15.214  0.00  0.00    +0.126 C 
ATOM      7  C   UNL     1      35.090 -24.368 -15.195  0.00  0.00    +0.140 C 
ATOM      8  C   UNL     1      33.751 -24.447 -14.534  0.00  0.00    +0.064 C 
ATOM      9  C   UNL     1      32.770 -22.387 -18.364  0.00  0.00    +0.100 C 
ENDROOT
BRANCH   7  12
ATOM     10  F   UNL     1      36.179 -26.904 -15.787  0.00  0.00    -0.204 F 
ATOM     11  F   UNL     1      36.347 -23.019 -13.059  0.00  0.00    -0.204 F 
ATOM     12  C   UNL     1      36.234 -24.947 -14.442  0.00  0.00    +0.085 C 
ATOM     13  C   UNL     1      36.728 -26.205 -14.783  0.00  0.00    +0.145 C 
ATOM     14  C   UNL     1      36.814 -24.230 -13.396  0.00  0.00    +0.145 C 
ATOM     15  C   UNL     1      37.802 -26.748 -14.077  0.00  0.00    +0.030 C 
ATOM     16  C   UNL     1      37.888 -24.772 -12.689  0.00  0.00    +0.030 C 
ATOM     17  C   UNL     1      38.381 -26.032 -13.030  0.00  0.00    +0.005 C 
ENDBRANCH   7  12
BRANCH   6  18
ATOM     18  N   UNL     1      31.428 -23.918 -14.752  0.00  0.00    -0.316 N 
ATOM     19  H   UNL     1      31.183 -23.254 -14.068  0.00  0.00    +0.148 HD
BRANCH  18  20
ATOM     20  C   UNL     1      30.414 -24.828 -15.216  0.00  0.00    +0.114 C 
BRANCH  20  24
ATOM     21  N   UNL     1      27.960 -22.101 -16.148  0.00  0.00    -0.181 NA
ATOM     22  N   UNL     1      27.621 -23.974 -17.624  0.00  0.00    -0.204 NA
ATOM     23  N   UNL     1      26.319 -22.034 -17.824  0.00  0.00    -0.303 N 
ATOM     24  C   UNL     1      29.315 -24.077 -15.916  0.00  0.00    +0.020 C 
ATOM     25  C   UNL     1      28.941 -22.803 -15.542  0.00  0.00    +0.106 C 
ATOM     26  C   UNL     1      28.613 -24.619 -16.974  0.00  0.00    +0.163 C 
ATOM     27  C   UNL     1      27.351 -22.738 -17.166  0.00  0.00    +0.084 C 
ATOM     28  H   UNL     1      26.078 -21.125 -17.530  0.00  0.00    +0.154 HD
ATOM     29  H   UNL     1      25.839 -22.451 -18.575  0.00  0.00    +0.154 HD
ENDBRANCH  20  24
ENDBRANCH  18  20
ENDBRANCH   6  18
BRANCH   5  30
ATOM     30  C   UNL     1      35.207 -22.394 -19.197  0.00  0.00    +0.015 C 
ATOM     31  C   UNL     1      34.916 -21.167 -20.070  0.00  0.00    +0.001 C 
ENDBRANCH   5  30
TORSDOF 5
ENDMDL
MODEL 2
REMARK VINA RESULT:     -11.5      0.041      1.803
REMARK  Name = 44629554
REMARK  5 active torsions:
REMARK  status: ('A' for Active; 'I' for Inactive)
REMARK    1  A    between atoms: C_5  and  C_30
REMARK    2  A    between atoms: C_6  and  N_18
REMARK    3  A    between atoms: C_7  and  C_12
REMARK    4  A    between atoms: N_18  and  C_20
REMARK    5  A    between atoms: C_20  and  C_24
REMARK                            x       y       z     vdW  Elec       q    Type
REMARK                         _______ _______ _______ _____ _____    ______ ____
ROOT
ATOM      1  N   UNL     1      32.946 -23.390 -16.445  0.00  0.00    -0.152 N 
ATOM      2  N   UNL     1      35.311 -23.830 -16.337  0.00  0.00    -0.389 NA
ATOM      3  N   UNL     1      32.033 -22.823 -17.284  0.00  0.00    -0.174 NA
ATOM      4  C   UNL     1      34.230 -23.328 -16.991  0.00  0.00    +0.189 C 
ATOM      5  C   UNL     1      34.109 -22.700 -18.209  0.00  0.00    +0.112 C 
ATOM      6  C   UNL     1      32.714 -23.971 -15.188  0.00  0.00    +0.126 C 
ATOM      7  C   UNL     1      35.096 -24.383 -15.178  0.00  0.00    +0.140 C 
ATOM      8  C   UNL     1      33.759 -24.480 -14.513  0.00  0.00    +0.064 C 
ATOM      9  C   UNL     1      32.744 -22.417 -18.333  0.00  0.00    +0.100 C 
ENDROOT
BRANCH   7  12
ATOM     10  F   UNL     1      36.371 -23.008 -13.069  0.00  0.00    -0.204 F 
ATOM     11  F   UNL     1      36.183 -26.923 -15.753  0.00  0.00    -0.204 F 
ATOM     12  C   UNL     1      36.248 -24.951 -14.430  0.00  0.00    +0.085 C 
ATOM     13  C   UNL     1      36.835 -24.223 -13.396  0.00  0.00    +0.145 C 
ATOM     14  C   UNL     1      36.740 -26.214 -14.761  0.00  0.00    +0.145 C 
ATOM     15  C   UNL     1      37.917 -24.756 -12.693  0.00  0.00    +0.030 C 
ATOM     16  C   UNL     1      37.820 -26.748 -14.058  0.00  0.00    +0.030 C 
ATOM     17  C   UNL     1      38.409 -26.019 -13.025  0.00  0.00    +0.005 C 
ENDBRANCH   7  12
BRANCH   6  18
ATOM     18  N   UNL     1      31.430 -23.975 -14.723  0.00  0.00    -0.316 N 
ATOM     19  H   UNL     1      31.186 -23.334 -14.018  0.00  0.00    +0.148 HD
BRANCH  18  20
ATOM     20  C   UNL     1      30.415 -24.872 -15.212  0.00  0.00    +0.114 C 
BRANCH  20  24
ATOM     21  N   UNL     1      27.618 -23.961 -17.593  0.00  0.00    -0.181 NA
ATOM     22  N   UNL     1      27.985 -22.108 -16.097  0.00  0.00    -0.204 NA
ATOM     23  N   UNL     1      26.335 -22.003 -17.761  0.00  0.00    -0.303 N 
ATOM     24  C   UNL     1      29.319 -24.102 -15.896  0.00  0.00    +0.020 C 
ATOM     25  C   UNL     1      28.606 -24.624 -16.956  0.00  0.00    +0.106 C 
ATOM     26  C   UNL     1      28.963 -22.827 -15.506  0.00  0.00    +0.163 C 
ATOM     27  C   UNL     1      27.364 -22.727 -17.119  0.00  0.00    +0.084 C 
ATOM     28  H   UNL     1      25.846 -22.407 -18.515  0.00  0.00    +0.154 HD
ATOM     29  H   UNL     1      26.107 -21.095 -17.456  0.00  0.00    +0.154 HD
ENDBRANCH  20  24
ENDBRANCH  18  20
ENDBRANCH   6  18
BRANCH   5  30
ATOM     30  C   UNL     1      35.178 -22.394 -19.173  0.00  0.00    +0.015 C 
ATOM     31  C   UNL     1      34.866 -21.174 -20.049  0.00  0.00    +0.001 C 
ENDBRANCH   5  30
TORSDOF 5
ENDMDL
MODEL 3
REMARK VINA RESULT:     -10.8      2.781      7.522
REMARK  Name = 44629554
REMARK  5 active torsions:
REMARK  status: ('A' for Active; 'I' for Inactive)
REMARK    1  A    between atoms: C_5  and  C_30
REMARK    2  A    between atoms: C_6  and  N_18
REMARK    3  A    between atoms: C_7  and  C_12
REMARK    4  A    between atoms: N_18  and  C_20
REMARK    5  A    between atoms: C_20  and  C_24
REMARK                            x       y       z     vdW  Elec       q    Type
REMARK                         _______ _______ _______ _____ _____    ______ ____
ROOT
ATOM      1  N   UNL     1      35.416 -23.138 -15.396  0.00  0.00    -0.152 N 
ATOM      2  N   UNL     1      33.373 -23.319 -16.659  0.00  0.00    -0.389 NA
ATOM      3  N   UNL     1      36.719 -22.779 -15.575  0.00  0.00    -0.174 NA
ATOM      4  C   UNL     1      34.697 -23.018 -16.587  0.00  0.00    +0.189 C 
ATOM      5  C   UNL     1      35.585 -22.571 -17.538  0.00  0.00    +0.112 C 
ATOM      6  C   UNL     1      34.801 -23.583 -14.215  0.00  0.00    +0.126 C 
ATOM      7  C   UNL     1      32.799 -23.718 -15.560  0.00  0.00    +0.140 C 
ATOM      8  C   UNL     1      33.493 -23.889 -14.246  0.00  0.00    +0.064 C 
ATOM      9  C   UNL     1      36.803 -22.442 -16.861  0.00  0.00    +0.100 C 
ENDROOT
BRANCH   7  12
ATOM     10  F   UNL     1      30.952 -22.352 -17.199  0.00  0.00    -0.204 F 
ATOM     11  F   UNL     1      31.676 -25.771 -13.982  0.00  0.00    -0.204 F 
ATOM     12  C   UNL     1      31.350 -24.053 -15.590  0.00  0.00    +0.085 C 
ATOM     13  C   UNL     1      30.487 -23.342 -16.423  0.00  0.00    +0.145 C 
ATOM     14  C   UNL     1      30.855 -25.080 -14.787  0.00  0.00    +0.145 C 
ATOM     15  C   UNL     1      29.128 -23.656 -16.452  0.00  0.00    +0.030 C 
ATOM     16  C   UNL     1      29.497 -25.394 -14.815  0.00  0.00    +0.030 C 
ATOM     17  C   UNL     1      28.633 -24.682 -15.647  0.00  0.00    +0.005 C 
ENDBRANCH   7  12
BRANCH   6  18
ATOM     18  N   UNL     1      35.582 -23.686 -13.098  0.00  0.00    -0.316 N 
ATOM     19  H   UNL     1      35.900 -22.858 -12.673  0.00  0.00    +0.148 HD
BRANCH  18  20
ATOM     20  C   UNL     1      35.963 -24.945 -12.513  0.00  0.00    +0.114 C 
BRANCH  20  24
ATOM     21  N   UNL     1      38.511 -27.032 -14.376  0.00  0.00    -0.181 NA
ATOM     22  N   UNL     1      39.635 -25.131 -13.413  0.00  0.00    -0.204 NA
ATOM     23  N   UNL     1      40.818 -26.719 -14.670  0.00  0.00    -0.303 N 
ATOM     24  C   UNL     1      37.266 -25.421 -13.093  0.00  0.00    +0.020 C 
ATOM     25  C   UNL     1      37.359 -26.576 -13.842  0.00  0.00    +0.106 C 
ATOM     26  C   UNL     1      38.448 -24.732 -12.908  0.00  0.00    +0.163 C 
ATOM     27  C   UNL     1      39.594 -26.272 -14.126  0.00  0.00    +0.084 C 
ATOM     28  H   UNL     1      40.848 -27.548 -15.200  0.00  0.00    +0.154 HD
ATOM     29  H   UNL     1      41.642 -26.202 -14.518  0.00  0.00    +0.154 HD
ENDBRANCH  20  24
ENDBRANCH  18  20
ENDBRANCH   6  18
BRANCH   5  30
ATOM     30  C   UNL     1      35.315 -22.287 -18.957  0.00  0.00    +0.015 C 
ATOM     31  C   UNL     1      36.421 -21.459 -19.624  0.00  0.00    +0.001 C 
ENDBRANCH   5  30
TORSDOF 5
ENDMDL
MODEL 4
REMARK VINA RESULT:     -10.8      2.538      7.368
REMARK  Name = 44629554
REMARK  5 active torsions:
REMARK  status: ('A' for Active; 'I' for Inactive)
REMARK    1  A    between atoms: C_5  and  C_30
REMARK    2  A    between atoms: C_6  and  N_18
REMARK    3  A    between atoms: C_7  and  C_12
REMARK    4  A    between atoms: N_18  and  C_20
REMARK    5  A    between atoms: C_20  and  C_24
REMARK                            x       y       z     vdW  Elec       q    Type
REMARK                         _______ _______ _______ _____ _____    ______ ____
ROOT
ATOM      1  N   UNL     1      32.686 -24.374 -14.101  0.00  0.00    -0.152 N 
ATOM      2  N   UNL     1      32.663 -23.211 -16.209  0.00  0.00    -0.389 NA
ATOM      3  N   UNL     1      31.814 -24.836 -13.160  0.00  0.00    -0.174 NA
ATOM      4  C   UNL     1      32.005 -23.751 -15.149  0.00  0.00    +0.189 C 
ATOM      5  C   UNL     1      30.665 -23.828 -14.848  0.00  0.00    +0.112 C 
ATOM      6  C   UNL     1      34.087 -24.464 -14.091  0.00  0.00    +0.126 C 
ATOM      7  C   UNL     1      33.962 -23.306 -16.209  0.00  0.00    +0.140 C 
ATOM      8  C   UNL     1      34.772 -23.942 -15.123  0.00  0.00    +0.064 C 
ATOM      9  C   UNL     1      30.610 -24.502 -13.622  0.00  0.00    +0.100 C 
ENDROOT
BRANCH   7  12
ATOM     10  F   UNL     1      32.792 -22.826 -18.732  0.00  0.00    -0.204 F 
ATOM     11  F   UNL     1      36.692 -22.613 -16.028  0.00  0.00    -0.204 F 
ATOM     12  C   UNL     1      34.722 -22.734 -17.351  0.00  0.00    +0.085 C 
ATOM     13  C   UNL     1      34.088 -22.519 -18.573  0.00  0.00    +0.145 C 
ATOM     14  C   UNL     1      36.071 -22.411 -17.199  0.00  0.00    +0.145 C 
ATOM     15  C   UNL     1      34.801 -21.981 -19.646  0.00  0.00    +0.030 C 
ATOM     16  C   UNL     1      36.784 -21.873 -18.270  0.00  0.00    +0.030 C 
ATOM     17  C   UNL     1      36.149 -21.659 -19.494  0.00  0.00    +0.005 C 
ENDBRANCH   7  12
BRANCH   6  18
ATOM     18  N   UNL     1      34.672 -25.076 -13.019  0.00  0.00    -0.316 N 
ATOM     19  H   UNL     1      34.310 -25.940 -12.719  0.00  0.00    +0.148 HD
BRANCH  18  20
ATOM     20  C   UNL     1      35.792 -24.520 -12.306  0.00  0.00    +0.114 C 
BRANCH  20  24
ATOM     21  N   UNL     1      38.303 -26.865 -13.894  0.00  0.00    -0.181 NA
ATOM     22  N   UNL     1      39.443 -24.841 -13.254  0.00  0.00    -0.204 NA
ATOM     23  N   UNL     1      40.602 -26.600 -14.285  0.00  0.00    -0.303 N 
ATOM     24  C   UNL     1      37.083 -25.078 -12.838  0.00  0.00    +0.020 C 
ATOM     25  C   UNL     1      37.162 -26.333 -13.407  0.00  0.00    +0.106 C 
ATOM     26  C   UNL     1      38.267 -24.370 -12.787  0.00  0.00    +0.163 C 
ATOM     27  C   UNL     1      39.389 -26.076 -13.787  0.00  0.00    +0.084 C 
ATOM     28  H   UNL     1      40.622 -27.499 -14.686  0.00  0.00    +0.154 HD
ATOM     29  H   UNL     1      41.428 -26.067 -14.233  0.00  0.00    +0.154 HD
ENDBRANCH  20  24
ENDBRANCH  18  20
ENDBRANCH   6  18
BRANCH   5  30
ATOM     30  C   UNL     1      29.535 -23.317 -15.640  0.00  0.00    +0.015 C 
ATOM     31  C   UNL     1      28.716 -24.431 -16.304  0.00  0.00    +0.001 C 
ENDBRANCH   5  30
TORSDOF 5
ENDMDL
MODEL 5
REMARK VINA RESULT:     -10.8      2.552      7.475
REMARK  Name = 44629554
REMARK  5 active torsions:
REMARK  status: ('A' for Active; 'I' for Inactive)
REMARK    1  A    between atoms: C_5  and  C_30
REMARK    2  A    between atoms: C_6  and  N_18
REMARK    3  A    between atoms: C_7  and  C_12
REMARK    4  A    between atoms: N_18  and  C_20
REMARK    5  A    between atoms: C_20  and  C_24
REMARK                            x       y       z     vdW  Elec       q    Type
REMARK                         _______ _______ _______ _____ _____    ______ ____
ROOT
ATOM      1  N   UNL     1      32.556 -24.564 -14.303  0.00  0.00    -0.152 N 
ATOM      2  N   UNL     1      32.293 -23.542 -16.468  0.00  0.00    -0.389 NA
ATOM      3  N   UNL     1      31.800 -25.158 -13.337  0.00  0.00    -0.174 NA
ATOM      4  C   UNL     1      31.763 -24.159 -15.379  0.00  0.00    +0.189 C 
ATOM      5  C   UNL     1      30.470 -24.512 -15.067  0.00  0.00    +0.112 C 
ATOM      6  C   UNL     1      33.943 -24.345 -14.296  0.00  0.00    +0.126 C 
ATOM      7  C   UNL     1      33.582 -23.352 -16.469  0.00  0.00    +0.140 C 
ATOM      8  C   UNL     1      34.504 -23.739 -15.356  0.00  0.00    +0.064 C 
ATOM      9  C   UNL     1      30.556 -25.119 -13.809  0.00  0.00    +0.100 C 
ENDROOT
BRANCH   7  12
ATOM     10  F   UNL     1      36.373 -23.040 -16.737  0.00  0.00    -0.204 F 
ATOM     11  F   UNL     1      32.070 -22.297 -18.607  0.00  0.00    -0.204 F 
ATOM     12  C   UNL     1      34.206 -22.685 -17.642  0.00  0.00    +0.085 C 
ATOM     13  C   UNL     1      35.593 -22.563 -17.718  0.00  0.00    +0.145 C 
ATOM     14  C   UNL     1      33.405 -22.185 -18.668  0.00  0.00    +0.145 C 
ATOM     15  C   UNL     1      36.180 -21.938 -18.819  0.00  0.00    +0.030 C 
ATOM     16  C   UNL     1      33.991 -21.560 -19.770  0.00  0.00    +0.030 C 
ATOM     17  C   UNL     1      35.379 -21.437 -19.845  0.00  0.00    +0.005 C 
ENDBRANCH   7  12
BRANCH   6  18
ATOM     18  N   UNL     1      34.641 -24.759 -13.197  0.00  0.00    -0.316 N 
ATOM     19  H   UNL     1      34.353 -25.584 -12.744  0.00  0.00    +0.148 HD
BRANCH  18  20
ATOM     20  C   UNL     1      35.777 -24.050 -12.669  0.00  0.00    +0.114 C 
BRANCH  20  24
ATOM     21  N   UNL     1      39.036 -24.770 -14.453  0.00  0.00    -0.181 NA
ATOM     22  N   UNL     1      38.620 -26.541 -12.873  0.00  0.00    -0.204 NA
ATOM     23  N   UNL     1      40.540 -26.556 -14.220  0.00  0.00    -0.303 N 
ATOM     24  C   UNL     1      37.056 -24.723 -13.085  0.00  0.00    +0.020 C 
ATOM     25  C   UNL     1      37.883 -24.194 -14.055  0.00  0.00    +0.106 C 
ATOM     26  C   UNL     1      37.479 -25.911 -12.523  0.00  0.00    +0.163 C 
ATOM     27  C   UNL     1      39.339 -25.924 -13.829  0.00  0.00    +0.084 C 
ATOM     28  H   UNL     1      41.106 -26.150 -14.916  0.00  0.00    +0.154 HD
ATOM     29  H   UNL     1      40.811 -27.403 -13.798  0.00  0.00    +0.154 HD
ENDBRANCH  20  24
ENDBRANCH  18  20
ENDBRANCH   6  18
BRANCH   5  30
ATOM     30  C   UNL     1      29.261 -24.301 -15.880  0.00  0.00    +0.015 C 
ATOM     31  C   UNL     1      28.659 -22.901 -15.708  0.00  0.00    +0.001 C 
ENDBRANCH   5  30
TORSDOF 5
ENDMDL
MODEL 6
REMARK VINA RESULT:     -10.4      3.207      7.107
REMARK  Name = 44629554
REMARK  5 active torsions:
REMARK  status: ('A' for Active; 'I' for Inactive)
REMARK    1  A    between atoms: C_5  and  C_30
REMARK    2  A    between atoms: C_6  and  N_18
REMARK    3  A    between atoms: C_7  and  C_12
REMARK    4  A    between atoms: N_18  and  C_20
REMARK    5  A    between atoms: C_20  and  C_24
REMARK                            x       y       z     vdW  Elec       q    Type
REMARK                         _______ _______ _______ _____ _____    ______ ____
ROOT
ATOM      1  N   UNL     1      35.693 -23.077 -15.932  0.00  0.00    -0.152 N 
ATOM      2  N   UNL     1      33.853 -23.822 -14.569  0.00  0.00    -0.389 NA
ATOM      3  N   UNL     1      37.029 -22.828 -15.826  0.00  0.00    -0.174 NA
ATOM      4  C   UNL     1      35.169 -23.510 -14.713  0.00  0.00    +0.189 C 
ATOM      5  C   UNL     1      36.215 -23.529 -13.820  0.00  0.00    +0.112 C 
ATOM      6  C   UNL     1      34.880 -22.937 -17.068  0.00  0.00    +0.126 C 
ATOM      7  C   UNL     1      33.101 -23.708 -15.626  0.00  0.00    +0.140 C 
ATOM      8  C   UNL     1      33.575 -23.238 -16.965  0.00  0.00    +0.064 C 
ATOM      9  C   UNL     1      37.326 -23.103 -14.558  0.00  0.00    +0.100 C 
ENDROOT
BRANCH   7  12
ATOM     10  F   UNL     1      31.114 -22.409 -17.152  0.00  0.00    -0.204 F 
ATOM     11  F   UNL     1      32.126 -25.696 -13.875  0.00  0.00    -0.204 F 
ATOM     12  C   UNL     1      31.657 -24.044 -15.517  0.00  0.00    +0.085 C 
ATOM     13  C   UNL     1      30.723 -23.367 -16.300  0.00  0.00    +0.145 C 
ATOM     14  C   UNL     1      31.237 -25.038 -14.633  0.00  0.00    +0.145 C 
ATOM     15  C   UNL     1      29.367 -23.682 -16.199  0.00  0.00    +0.030 C 
ATOM     16  C   UNL     1      29.882 -25.354 -14.532  0.00  0.00    +0.030 C 
ATOM     17  C   UNL     1      28.947 -24.676 -15.314  0.00  0.00    +0.005 C 
ENDBRANCH   7  12
BRANCH   6  18
ATOM     18  N   UNL     1      35.472 -22.493 -18.216  0.00  0.00    -0.316 N 
ATOM     19  H   UNL     1      36.428 -22.261 -18.189  0.00  0.00    +0.148 HD
BRANCH  18  20
ATOM     20  C   UNL     1      34.768 -22.347 -19.463  0.00  0.00    +0.114 C 
BRANCH  20  24
ATOM     21  N   UNL     1      36.935 -19.490 -20.674  0.00  0.00    -0.181 NA
ATOM     22  N   UNL     1      34.750 -19.268 -21.665  0.00  0.00    -0.204 NA
ATOM     23  N   UNL     1      36.445 -17.714 -22.128  0.00  0.00    -0.303 N 
ATOM     24  C   UNL     1      35.219 -21.103 -20.179  0.00  0.00    +0.020 C 
ATOM     25  C   UNL     1      36.498 -20.603 -20.048  0.00  0.00    +0.106 C 
ATOM     26  C   UNL     1      34.379 -20.387 -21.008  0.00  0.00    +0.163 C 
ATOM     27  C   UNL     1      36.023 -18.882 -21.456  0.00  0.00    +0.084 C 
ATOM     28  H   UNL     1      37.366 -17.385 -22.012  0.00  0.00    +0.154 HD
ATOM     29  H   UNL     1      35.820 -17.228 -22.712  0.00  0.00    +0.154 HD
ENDBRANCH  20  24
ENDBRANCH  18  20
ENDBRANCH   6  18
BRANCH   5  30
ATOM     30  C   UNL     1      36.178 -23.914 -12.399  0.00  0.00    +0.015 C 
ATOM     31  C   UNL     1      37.180 -23.133 -11.540  0.00  0.00    +0.001 C 
ENDBRANCH   5  30
TORSDOF 5
ENDMDL
MODEL 7
REMARK VINA RESULT:     -10.4      3.217      7.072
REMARK  Name = 44629554
REMARK  5 active torsions:
REMARK  status: ('A' for Active; 'I' for Inactive)
REMARK    1  A    between atoms: C_5  and  C_30
REMARK    2  A    between atoms: C_6  and  N_18
REMARK    3  A    between atoms: C_7  and  C_12
REMARK    4  A    between atoms: N_18  and  C_20
REMARK    5  A    between atoms: C_20  and  C_24
REMARK                            x       y       z     vdW  Elec       q    Type
REMARK                         _______ _______ _______ _____ _____    ______ ____
ROOT
ATOM      1  N   UNL     1      35.722 -23.104 -15.874  0.00  0.00    -0.152 N 
ATOM      2  N   UNL     1      33.886 -23.860 -14.512  0.00  0.00    -0.389 NA
ATOM      3  N   UNL     1      37.060 -22.864 -15.772  0.00  0.00    -0.174 NA
ATOM      4  C   UNL     1      35.202 -23.552 -14.658  0.00  0.00    +0.189 C 
ATOM      5  C   UNL     1      36.253 -23.591 -13.772  0.00  0.00    +0.112 C 
ATOM      6  C   UNL     1      34.904 -22.942 -17.003  0.00  0.00    +0.126 C 
ATOM      7  C   UNL     1      33.128 -23.724 -15.562  0.00  0.00    +0.140 C 
ATOM      8  C   UNL     1      33.597 -23.237 -16.897  0.00  0.00    +0.064 C 
ATOM      9  C   UNL     1      37.362 -23.161 -14.509  0.00  0.00    +0.100 C 
ENDROOT
BRANCH   7  12
ATOM     10  F   UNL     1      32.138 -25.644 -13.745  0.00  0.00    -0.204 F 
ATOM     11  F   UNL     1      31.153 -22.481 -17.149  0.00  0.00    -0.204 F 
ATOM     12  C   UNL     1      31.683 -24.054 -15.450  0.00  0.00    +0.085 C 
ATOM     13  C   UNL     1      31.255 -25.012 -14.531  0.00  0.00    +0.145 C 
ATOM     14  C   UNL     1      30.754 -23.404 -16.262  0.00  0.00    +0.145 C 
ATOM     15  C   UNL     1      29.898 -25.321 -14.425  0.00  0.00    +0.030 C 
ATOM     16  C   UNL     1      29.398 -23.712 -16.157  0.00  0.00    +0.030 C 
ATOM     17  C   UNL     1      28.970 -24.671 -15.238  0.00  0.00    +0.005 C 
ENDBRANCH   7  12
BRANCH   6  18
ATOM     18  N   UNL     1      35.492 -22.483 -18.148  0.00  0.00    -0.316 N 
ATOM     19  H   UNL     1      36.439 -22.219 -18.112  0.00  0.00    +0.148 HD
BRANCH  18  20
ATOM     20  C   UNL     1      34.795 -22.368 -19.402  0.00  0.00    +0.114 C 
BRANCH  20  24
ATOM     21  N   UNL     1      36.939 -19.515 -20.662  0.00  0.00    -0.181 NA
ATOM     22  N   UNL     1      34.745 -19.313 -21.637  0.00  0.00    -0.204 NA
ATOM     23  N   UNL     1      36.429 -17.757 -22.130  0.00  0.00    -0.303 N 
ATOM     24  C   UNL     1      35.235 -21.131 -20.135  0.00  0.00    +0.020 C 
ATOM     25  C   UNL     1      36.512 -20.623 -20.020  0.00  0.00    +0.106 C 
ATOM     26  C   UNL     1      34.385 -20.427 -20.965  0.00  0.00    +0.163 C 
ATOM     27  C   UNL     1      36.018 -18.920 -21.442  0.00  0.00    +0.084 C 
ATOM     28  H   UNL     1      37.350 -17.423 -22.025  0.00  0.00    +0.154 HD
ATOM     29  H   UNL     1      35.797 -17.280 -22.714  0.00  0.00    +0.154 HD
ENDBRANCH  20  24
ENDBRANCH  18  20
ENDBRANCH   6  18
BRANCH   5  30
ATOM     30  C   UNL     1      36.222 -23.997 -12.357  0.00  0.00    +0.015 C 
ATOM     31  C   UNL     1      37.139 -23.148 -11.468  0.00  0.00    +0.001 C 
ENDBRANCH   5  30
TORSDOF 5
ENDMDL
MODEL 8
REMARK VINA RESULT:      -9.8     12.456     16.280
REMARK  Name = 44629554
REMARK  5 active torsions:
REMARK  status: ('A' for Active; 'I' for Inactive)
REMARK    1  A    between atoms: C_5  and  C_30
REMARK    2  A    between atoms: C_6  and  N_18
REMARK    3  A    between atoms: C_7  and  C_12
REMARK    4  A    between atoms: N_18  and  C_20
REMARK    5  A    between atoms: C_20  and  C_24
REMARK                            x       y       z     vdW  Elec       q    Type
REMARK                         _______ _______ _______ _____ _____    ______ ____
ROOT
ATOM      1  N   UNL     1      32.722 -11.791 -22.670  0.00  0.00    -0.152 N 
ATOM      2  N   UNL     1      32.286  -9.448 -22.323  0.00  0.00    -0.389 NA
ATOM      3  N   UNL     1      32.485 -12.991 -22.069  0.00  0.00    -0.174 NA
ATOM      4  C   UNL     1      32.179 -10.743 -21.924  0.00  0.00    +0.189 C 
ATOM      5  C   UNL     1      31.585 -11.313 -20.821  0.00  0.00    +0.112 C 
ATOM      6  C   UNL     1      33.413 -11.552 -23.868  0.00  0.00    +0.126 C 
ATOM      7  C   UNL     1      32.914  -9.226 -23.442  0.00  0.00    +0.140 C 
ATOM      8  C   UNL     1      33.539 -10.284 -24.296  0.00  0.00    +0.064 C 
ATOM      9  C   UNL     1      31.804 -12.688 -20.966  0.00  0.00    +0.100 C 
ENDROOT
BRANCH   7  12
ATOM     10  F   UNL     1      30.718  -7.703 -24.349  0.00  0.00    -0.204 F 
ATOM     11  F   UNL     1      35.392  -7.876 -23.517  0.00  0.00    -0.204 F 
ATOM     12  C   UNL     1      33.052  -7.825 -23.921  0.00  0.00    +0.085 C 
ATOM     13  C   UNL     1      31.928  -7.124 -24.356  0.00  0.00    +0.145 C 
ATOM     14  C   UNL     1      34.304  -7.211 -23.933  0.00  0.00    +0.145 C 
ATOM     15  C   UNL     1      32.055  -5.808 -24.804  0.00  0.00    +0.030 C 
ATOM     16  C   UNL     1      34.433  -5.897 -24.381  0.00  0.00    +0.030 C 
ATOM     17  C   UNL     1      33.308  -5.196 -24.817  0.00  0.00    +0.005 C 
ENDBRANCH   7  12
BRANCH   6  18
ATOM     18  N   UNL     1      33.926 -12.633 -24.527  0.00  0.00    -0.316 N 
ATOM     19  H   UNL     1      34.894 -12.801 -24.466  0.00  0.00    +0.148 HD
BRANCH  18  20
ATOM     20  C   UNL     1      33.123 -13.538 -25.306  0.00  0.00    +0.114 C 
BRANCH  20  24
ATOM     21  N   UNL     1      33.732 -17.231 -25.870  0.00  0.00    -0.181 NA
ATOM     22  N   UNL     1      34.676 -16.615 -23.741  0.00  0.00    -0.204 NA
ATOM     23  N   UNL     1      34.811 -18.821 -24.524  0.00  0.00    -0.303 N 
ATOM     24  C   UNL     1      33.576 -14.957 -25.097  0.00  0.00    +0.020 C 
ATOM     25  C   UNL     1      33.340 -15.949 -26.026  0.00  0.00    +0.106 C 
ATOM     26  C   UNL     1      34.255 -15.352 -23.961  0.00  0.00    +0.163 C 
ATOM     27  C   UNL     1      34.385 -17.490 -24.722  0.00  0.00    +0.084 C 
ATOM     28  H   UNL     1      34.625 -19.505 -25.209  0.00  0.00    +0.154 HD
ATOM     29  H   UNL     1      35.292 -19.068 -23.702  0.00  0.00    +0.154 HD
ENDBRANCH  20  24
ENDBRANCH  18  20
ENDBRANCH   6  18
BRANCH   5  30
ATOM     30  C   UNL     1      30.874 -10.629 -19.729  0.00  0.00    +0.015 C 
ATOM     31  C   UNL     1      31.818 -10.039 -18.675  0.00  0.00    +0.001 C 
ENDBRANCH   5  30
TORSDOF 5
ENDMDL
MODEL 9
REMARK VINA RESULT:      -9.7     12.426     16.261
REMARK  Name = 44629554
REMARK  5 active torsions:
REMARK  status: ('A' for Active; 'I' for Inactive)
REMARK    1  A    between atoms: C_5  and  C_30
REMARK    2  A    between atoms: C_6  and  N_18
REMARK    3  A    between atoms: C_7  and  C_12
REMARK    4  A    between atoms: N_18  and  C_20
REMARK    5  A    between atoms: C_20  and  C_24
REMARK                            x       y       z     vdW  Elec       q    Type
REMARK                         _______ _______ _______ _____ _____    ______ ____
ROOT
ATOM      1  N   UNL     1      32.729 -11.825 -22.695  0.00  0.00    -0.152 N 
ATOM      2  N   UNL     1      32.309  -9.483 -22.318  0.00  0.00    -0.389 NA
ATOM      3  N   UNL     1      32.493 -13.030 -22.103  0.00  0.00    -0.174 NA
ATOM      4  C   UNL     1      32.200 -10.782 -21.931  0.00  0.00    +0.189 C 
ATOM      5  C   UNL     1      31.618 -11.361 -20.827  0.00  0.00    +0.112 C 
ATOM      6  C   UNL     1      33.405 -11.576 -23.900  0.00  0.00    +0.126 C 
ATOM      7  C   UNL     1      32.923  -9.253 -23.443  0.00  0.00    +0.140 C 
ATOM      8  C   UNL     1      33.532 -10.305 -24.316  0.00  0.00    +0.064 C 
ATOM      9  C   UNL     1      31.828 -12.735 -20.988  0.00  0.00    +0.100 C 
ENDROOT
BRANCH   7  12
ATOM     10  F   UNL     1      35.401  -7.904 -23.506  0.00  0.00    -0.204 F 
ATOM     11  F   UNL     1      30.728  -7.720 -24.335  0.00  0.00    -0.204 F 
ATOM     12  C   UNL     1      33.061  -7.848 -23.909  0.00  0.00    +0.085 C 
ATOM     13  C   UNL     1      34.314  -7.236 -23.918  0.00  0.00    +0.145 C 
ATOM     14  C   UNL     1      31.938  -7.142 -24.339  0.00  0.00    +0.145 C 
ATOM     15  C   UNL     1      34.444  -5.917 -24.356  0.00  0.00    +0.030 C 
ATOM     16  C   UNL     1      32.067  -5.824 -24.777  0.00  0.00    +0.030 C 
ATOM     17  C   UNL     1      33.320  -5.212 -24.785  0.00  0.00    +0.005 C 
ENDBRANCH   7  12
BRANCH   6  18
ATOM     18  N   UNL     1      33.904 -12.653 -24.576  0.00  0.00    -0.316 N 
ATOM     19  H   UNL     1      34.879 -12.789 -24.585  0.00  0.00    +0.148 HD
BRANCH  18  20
ATOM     20  C   UNL     1      33.076 -13.599 -25.277  0.00  0.00    +0.114 C 
BRANCH  20  24
ATOM     21  N   UNL     1      33.789 -17.280 -25.792  0.00  0.00    -0.181 NA
ATOM     22  N   UNL     1      34.727 -16.606 -23.678  0.00  0.00    -0.204 NA
ATOM     23  N   UNL     1      34.922 -18.819 -24.430  0.00  0.00    -0.303 N 
ATOM     24  C   UNL     1      33.572 -15.001 -25.050  0.00  0.00    +0.020 C 
ATOM     25  C   UNL     1      33.359 -16.013 -25.964  0.00  0.00    +0.106 C 
ATOM     26  C   UNL     1      34.269 -15.359 -23.913  0.00  0.00    +0.163 C 
ATOM     27  C   UNL     1      34.456 -17.504 -24.644  0.00  0.00    +0.084 C 
ATOM     28  H   UNL     1      34.752 -19.518 -25.104  0.00  0.00    +0.154 HD
ATOM     29  H   UNL     1      35.415 -19.040 -23.607  0.00  0.00    +0.154 HD
ENDBRANCH  20  24
ENDBRANCH  18  20
ENDBRANCH   6  18
BRANCH   5  30
ATOM     30  C   UNL     1      30.924 -10.685 -19.718  0.00  0.00    +0.015 C 
ATOM     31  C   UNL     1      31.885 -10.002 -18.736  0.00  0.00    +0.001 C 
ENDBRANCH   5  30
TORSDOF 5
ENDMDL
