MODEL 1
REMARK VINA RESULT:     -11.5      0.000      0.000
REMARK  Name = 124173720
REMARK  4 active torsions:
REMARK  status: ('A' for Active; 'I' for Inactive)
REMARK    1  A    between atoms: C_13  and  N_24
REMARK    2  A    between atoms: C_18  and  C_23
REMARK    3  A    between atoms: N_24  and  C_26
REMARK    4  A    between atoms: C_26  and  C_30
REMARK                            x       y       z     vdW  Elec       q    Type
REMARK                         _______ _______ _______ _____ _____    ______ ____
ROOT
ATOM      1  O   UNL     1      32.729 -22.623 -18.774  0.00  0.00    -0.473 OA
ATOM      2  N   UNL     1      34.078 -23.797 -16.325  0.00  0.00    -0.272 N 
ATOM      3  N   UNL     1      36.266 -23.521 -16.324  0.00  0.00    -0.374 NA
ATOM      4  C   UNL     1      35.906 -24.300 -15.261  0.00  0.00    +0.190 C 
ATOM      5  C   UNL     1      35.149 -23.218 -16.977  0.00  0.00    +0.188 C 
ATOM      6  C   UNL     1      32.671 -23.733 -16.658  0.00  0.00    +0.141 C 
ATOM      7  C   UNL     1      34.551 -24.490 -15.241  0.00  0.00    +0.169 C 
ATOM      8  C   UNL     1      35.121 -22.389 -18.199  0.00  0.00    +0.078 C 
ATOM      9  C   UNL     1      32.297 -22.485 -17.424  0.00  0.00    +0.227 C 
ATOM     10  C   UNL     1      33.994 -22.152 -19.004  0.00  0.00    +0.144 C 
ATOM     11  C   UNL     1      36.341 -21.816 -18.618  0.00  0.00    +0.008 C 
ATOM     12  C   UNL     1      34.106 -21.417 -20.198  0.00  0.00    +0.051 C 
ATOM     13  C   UNL     1      35.323 -20.870 -20.586  0.00  0.00    +0.048 C 
ATOM     14  C   UNL     1      36.444 -21.065 -19.791  0.00  0.00    +0.015 C 
ATOM     15  O   UNL     1      38.795 -25.394 -13.447  0.00  0.00    -0.432 OA
ATOM     16  O   UNL     1      38.818 -23.849 -15.135  0.00  0.00    -0.226 OA
ATOM     17  N   UNL     1      36.813 -24.808 -14.362  0.00  0.00    -0.194 N 
ATOM     18  C   UNL     1      36.491 -25.638 -13.223  0.00  0.00    +0.195 C 
ATOM     19  C   UNL     1      37.819 -26.320 -12.959  0.00  0.00    +0.236 C 
ATOM     20  C   UNL     1      38.194 -24.602 -14.401  0.00  0.00    +0.411 C 
ENDROOT
BRANCH  18  23
ATOM     21  F   UNL     1      36.321 -23.510 -12.265  0.00  0.00    -0.196 F 
ATOM     22  F   UNL     1      34.693 -24.911 -11.913  0.00  0.00    -0.196 F 
ATOM     23  C   UNL     1      36.033 -24.806 -12.026  0.00  0.00    +0.340 C 
ENDBRANCH  18  23
BRANCH  13  24
ATOM     24  N   UNL     1      35.418 -20.123 -21.778  0.00  0.00    -0.327 N 
ATOM     25  H   UNL     1      35.924 -20.504 -22.531  0.00  0.00    +0.147 HD
BRANCH  24  26
ATOM     26  C   UNL     1      34.813 -18.838 -21.941  0.00  0.00    +0.146 C 
ATOM     27  C   UNL     1      35.555 -17.815 -21.092  0.00  0.00    +0.031 C 
BRANCH  26  30
ATOM     28  O   UNL     1      34.354 -19.129 -24.305  0.00  0.00    -0.274 OA
ATOM     29  N   UNL     1      35.500 -17.256 -23.634  0.00  0.00    -0.327 N 
ATOM     30  C   UNL     1      34.851 -18.451 -23.409  0.00  0.00    +0.237 C 
ATOM     31  H   UNL     1      35.586 -16.907 -24.550  0.00  0.00    +0.145 HD
ATOM     32  H   UNL     1      35.879 -16.751 -22.878  0.00  0.00    +0.145 HD
ENDBRANCH  26  30
ENDBRANCH  24  26
ENDBRANCH  13  24
TORSDOF 4
ENDMDL
MODEL 2
REMARK VINA RESULT:     -11.3      4.043      6.226
REMARK  Name = 124173720
REMARK  4 active torsions:
REMARK  status: ('A' for Active; 'I' for Inactive)
REMARK    1  A    between atoms: C_13  and  N_24
REMARK    2  A    between atoms: C_18  and  C_23
REMARK    3  A    between atoms: N_24  and  C_26
REMARK    4  A    between atoms: C_26  and  C_30
REMARK                            x       y       z     vdW  Elec       q    Type
REMARK                         _______ _______ _______ _____ _____    ______ ____
ROOT
ATOM      1  O   UNL     1      32.588 -22.603 -17.667  0.00  0.00    -0.473 OA
ATOM      2  N   UNL     1      34.966 -23.539 -16.033  0.00  0.00    -0.272 N 
ATOM      3  N   UNL     1      34.432 -24.105 -13.970  0.00  0.00    -0.374 NA
ATOM      4  C   UNL     1      35.790 -24.154 -14.117  0.00  0.00    +0.190 C 
ATOM      5  C   UNL     1      33.930 -23.724 -15.139  0.00  0.00    +0.188 C 
ATOM      6  C   UNL     1      34.906 -23.138 -17.423  0.00  0.00    +0.141 C 
ATOM      7  C   UNL     1      36.148 -23.803 -15.391  0.00  0.00    +0.169 C 
ATOM      8  C   UNL     1      32.484 -23.544 -15.384  0.00  0.00    +0.078 C 
ATOM      9  C   UNL     1      33.602 -23.510 -18.092  0.00  0.00    +0.227 C 
ATOM     10  C   UNL     1      31.909 -23.014 -16.551  0.00  0.00    +0.144 C 
ATOM     11  C   UNL     1      31.605 -23.900 -14.339  0.00  0.00    +0.008 C 
ATOM     12  C   UNL     1      30.521 -22.806 -16.637  0.00  0.00    +0.051 C 
ATOM     13  C   UNL     1      29.681 -23.162 -15.588  0.00  0.00    +0.048 C 
ATOM     14  C   UNL     1      30.223 -23.716 -14.437  0.00  0.00    +0.015 C 
ATOM     15  O   UNL     1      37.379 -24.991 -11.018  0.00  0.00    -0.432 OA
ATOM     16  O   UNL     1      35.121 -25.051 -11.388  0.00  0.00    -0.226 OA
ATOM     17  N   UNL     1      36.643 -24.508 -13.100  0.00  0.00    -0.194 N 
ATOM     18  C   UNL     1      38.084 -24.575 -13.197  0.00  0.00    +0.195 C 
ATOM     19  C   UNL     1      38.492 -24.456 -11.742  0.00  0.00    +0.236 C 
ATOM     20  C   UNL     1      36.256 -24.863 -11.805  0.00  0.00    +0.411 C 
ENDROOT
BRANCH  18  23
ATOM     21  F   UNL     1      38.828 -25.689 -15.115  0.00  0.00    -0.196 F 
ATOM     22  F   UNL     1      39.693 -26.275 -13.206  0.00  0.00    -0.196 F 
ATOM     23  C   UNL     1      38.549 -25.893 -13.812  0.00  0.00    +0.340 C 
ENDBRANCH  18  23
BRANCH  13  24
ATOM     24  N   UNL     1      28.290 -22.961 -15.693  0.00  0.00    -0.327 N 
ATOM     25  H   UNL     1      27.747 -23.000 -14.873  0.00  0.00    +0.147 HD
BRANCH  24  26
ATOM     26  C   UNL     1      27.633 -22.704 -16.937  0.00  0.00    +0.146 C 
ATOM     27  C   UNL     1      27.511 -24.001 -17.725  0.00  0.00    +0.031 C 
BRANCH  26  30
ATOM     28  O   UNL     1      25.574 -22.403 -15.689  0.00  0.00    -0.274 OA
ATOM     29  N   UNL     1      25.871 -21.198 -17.621  0.00  0.00    -0.327 N 
ATOM     30  C   UNL     1      26.262 -22.108 -16.664  0.00  0.00    +0.237 C 
ATOM     31  H   UNL     1      24.998 -20.748 -17.546  0.00  0.00    +0.145 HD
ATOM     32  H   UNL     1      26.464 -20.997 -18.382  0.00  0.00    +0.145 HD
ENDBRANCH  26  30
ENDBRANCH  24  26
ENDBRANCH  13  24
TORSDOF 4
ENDMDL
MODEL 3
REMARK VINA RESULT:     -10.1      0.936      1.027
REMARK  Name = 124173720
REMARK  4 active torsions:
REMARK  status: ('A' for Active; 'I' for Inactive)
REMARK    1  A    between atoms: C_13  and  N_24
REMARK    2  A    between atoms: C_18  and  C_23
REMARK    3  A    between atoms: N_24  and  C_26
REMARK    4  A    between atoms: C_26  and  C_30
REMARK                            x       y       z     vdW  Elec       q    Type
REMARK                         _______ _______ _______ _____ _____    ______ ____
ROOT
ATOM      1  O   UNL     1      32.889 -21.975 -19.546  0.00  0.00    -0.473 OA
ATOM      2  N   UNL     1      34.052 -23.314 -17.086  0.00  0.00    -0.272 N 
ATOM      3  N   UNL     1      36.238 -23.077 -16.921  0.00  0.00    -0.374 NA
ATOM      4  C   UNL     1      35.796 -23.911 -15.933  0.00  0.00    +0.190 C 
ATOM      5  C   UNL     1      35.173 -22.716 -17.628  0.00  0.00    +0.188 C 
ATOM      6  C   UNL     1      32.671 -23.207 -17.509  0.00  0.00    +0.141 C 
ATOM      7  C   UNL     1      34.440 -24.078 -16.016  0.00  0.00    +0.169 C 
ATOM      8  C   UNL     1      35.239 -21.817 -18.798  0.00  0.00    +0.078 C 
ATOM      9  C   UNL     1      32.368 -21.909 -18.223  0.00  0.00    +0.227 C 
ATOM     10  C   UNL     1      34.173 -21.513 -19.661  0.00  0.00    +0.144 C 
ATOM     11  C   UNL     1      36.493 -21.242 -19.098  0.00  0.00    +0.008 C 
ATOM     12  C   UNL     1      34.376 -20.712 -20.798  0.00  0.00    +0.051 C 
ATOM     13  C   UNL     1      35.625 -20.164 -21.070  0.00  0.00    +0.048 C 
ATOM     14  C   UNL     1      36.685 -20.424 -20.214  0.00  0.00    +0.015 C 
ATOM     15  O   UNL     1      38.539 -25.159 -13.996  0.00  0.00    -0.432 OA
ATOM     16  O   UNL     1      38.698 -23.518 -15.584  0.00  0.00    -0.226 OA
ATOM     17  N   UNL     1      36.632 -24.486 -15.007  0.00  0.00    -0.194 N 
ATOM     18  C   UNL     1      36.222 -25.377 -13.944  0.00  0.00    +0.195 C 
ATOM     19  C   UNL     1      37.519 -26.096 -13.632  0.00  0.00    +0.236 C 
ATOM     20  C   UNL     1      38.015 -24.303 -14.939  0.00  0.00    +0.411 C 
ENDROOT
BRANCH  18  23
ATOM     21  F   UNL     1      34.350 -24.716 -12.704  0.00  0.00    -0.196 F 
ATOM     22  F   UNL     1      36.173 -25.184 -11.611  0.00  0.00    -0.196 F 
ATOM     23  C   UNL     1      35.694 -24.608 -12.733  0.00  0.00    +0.340 C 
ENDBRANCH  18  23
BRANCH  13  24
ATOM     24  N   UNL     1      35.811 -19.350 -22.206  0.00  0.00    -0.327 N 
ATOM     25  H   UNL     1      36.618 -19.484 -22.752  0.00  0.00    +0.147 HD
BRANCH  24  26
ATOM     26  C   UNL     1      34.879 -18.338 -22.599  0.00  0.00    +0.146 C 
ATOM     27  C   UNL     1      35.548 -16.974 -22.522  0.00  0.00    +0.031 C 
BRANCH  26  30
ATOM     28  O   UNL     1      34.020 -19.731 -24.390  0.00  0.00    -0.274 OA
ATOM     29  N   UNL     1      34.428 -17.514 -24.826  0.00  0.00    -0.327 N 
ATOM     30  C   UNL     1      34.399 -18.625 -24.012  0.00  0.00    +0.237 C 
ATOM     31  H   UNL     1      34.139 -17.583 -25.764  0.00  0.00    +0.145 HD
ATOM     32  H   UNL     1      34.739 -16.650 -24.470  0.00  0.00    +0.145 HD
ENDBRANCH  26  30
ENDBRANCH  24  26
ENDBRANCH  13  24
TORSDOF 4
ENDMDL
MODEL 4
REMARK VINA RESULT:     -10.0      3.878      8.910
REMARK  Name = 124173720
REMARK  4 active torsions:
REMARK  status: ('A' for Active; 'I' for Inactive)
REMARK    1  A    between atoms: C_13  and  N_24
REMARK    2  A    between atoms: C_18  and  C_23
REMARK    3  A    between atoms: N_24  and  C_26
REMARK    4  A    between atoms: C_26  and  C_30
REMARK                            x       y       z     vdW  Elec       q    Type
REMARK                         _______ _______ _______ _____ _____    ______ ____
ROOT
ATOM      1  O   UNL     1      33.841 -23.396 -16.666  0.00  0.00    -0.473 OA
ATOM      2  N   UNL     1      34.022 -21.727 -19.191  0.00  0.00    -0.272 N 
ATOM      3  N   UNL     1      36.007 -20.810 -19.484  0.00  0.00    -0.374 NA
ATOM      4  C   UNL     1      35.149 -20.353 -20.445  0.00  0.00    +0.190 C 
ATOM      5  C   UNL     1      35.316 -21.645 -18.715  0.00  0.00    +0.188 C 
ATOM      6  C   UNL     1      32.918 -22.516 -18.688  0.00  0.00    +0.141 C 
ATOM      7  C   UNL     1      33.907 -20.905 -20.283  0.00  0.00    +0.169 C 
ATOM      8  C   UNL     1      35.895 -22.345 -17.550  0.00  0.00    +0.078 C 
ATOM      9  C   UNL     1      33.363 -23.762 -17.957  0.00  0.00    +0.227 C 
ATOM     10  C   UNL     1      35.183 -23.127 -16.626  0.00  0.00    +0.144 C 
ATOM     11  C   UNL     1      37.279 -22.183 -17.323  0.00  0.00    +0.008 C 
ATOM     12  C   UNL     1      35.826 -23.674 -15.502  0.00  0.00    +0.051 C 
ATOM     13  C   UNL     1      37.190 -23.492 -15.303  0.00  0.00    +0.048 C 
ATOM     14  C   UNL     1      37.920 -22.749 -16.219  0.00  0.00    +0.015 C 
ATOM     15  O   UNL     1      36.755 -17.932 -22.540  0.00  0.00    -0.432 OA
ATOM     16  O   UNL     1      37.817 -19.206 -20.963  0.00  0.00    -0.226 OA
ATOM     17  N   UNL     1      35.521 -19.459 -21.419  0.00  0.00    -0.194 N 
ATOM     18  C   UNL     1      34.659 -18.940 -22.457  0.00  0.00    +0.195 C 
ATOM     19  C   UNL     1      35.382 -17.665 -22.844  0.00  0.00    +0.236 C 
ATOM     20  C   UNL     1      36.796 -18.906 -21.567  0.00  0.00    +0.411 C 
ENDROOT
BRANCH  18  23
ATOM     21  F   UNL     1      34.314 -19.198 -24.757  0.00  0.00    -0.196 F 
ATOM     22  F   UNL     1      35.723 -20.544 -23.788  0.00  0.00    -0.196 F 
ATOM     23  C   UNL     1      34.544 -19.908 -23.634  0.00  0.00    +0.340 C 
ENDBRANCH  18  23
BRANCH  13  24
ATOM     24  N   UNL     1      37.826 -24.058 -14.179  0.00  0.00    -0.327 N 
ATOM     25  H   UNL     1      38.797 -24.213 -14.217  0.00  0.00    +0.147 HD
BRANCH  24  26
ATOM     26  C   UNL     1      37.122 -24.418 -12.986  0.00  0.00    +0.146 C 
ATOM     27  C   UNL     1      37.409 -25.872 -12.646  0.00  0.00    +0.031 C 
BRANCH  26  30
ATOM     28  O   UNL     1      38.414 -22.629 -11.978  0.00  0.00    -0.274 OA
ATOM     29  N   UNL     1      36.891 -23.749 -10.675  0.00  0.00    -0.327 N 
ATOM     30  C   UNL     1      37.558 -23.502 -11.855  0.00  0.00    +0.237 C 
ATOM     31  H   UNL     1      37.093 -23.216  -9.873  0.00  0.00    +0.145 HD
ATOM     32  H   UNL     1      36.211 -24.461 -10.633  0.00  0.00    +0.145 HD
ENDBRANCH  26  30
ENDBRANCH  24  26
ENDBRANCH  13  24
TORSDOF 4
ENDMDL
MODEL 5
REMARK VINA RESULT:      -9.1      7.523     11.680
REMARK  Name = 124173720
REMARK  4 active torsions:
REMARK  status: ('A' for Active; 'I' for Inactive)
REMARK    1  A    between atoms: C_13  and  N_24
REMARK    2  A    between atoms: C_18  and  C_23
REMARK    3  A    between atoms: N_24  and  C_26
REMARK    4  A    between atoms: C_26  and  C_30
REMARK                            x       y       z     vdW  Elec       q    Type
REMARK                         _______ _______ _______ _____ _____    ______ ____
ROOT
ATOM      1  O   UNL     1      33.451 -12.169 -26.061  0.00  0.00    -0.473 OA
ATOM      2  N   UNL     1      34.244 -14.863 -24.916  0.00  0.00    -0.272 N 
ATOM      3  N   UNL     1      34.400 -14.858 -22.716  0.00  0.00    -0.374 NA
ATOM      4  C   UNL     1      34.821 -16.065 -23.198  0.00  0.00    +0.190 C 
ATOM      5  C   UNL     1      34.053 -14.122 -23.766  0.00  0.00    +0.188 C 
ATOM      6  C   UNL     1      33.994 -14.486 -26.291  0.00  0.00    +0.141 C 
ATOM      7  C   UNL     1      34.737 -16.093 -24.564  0.00  0.00    +0.169 C 
ATOM      8  C   UNL     1      33.549 -12.738 -23.658  0.00  0.00    +0.078 C 
ATOM      9  C   UNL     1      32.915 -13.436 -26.432  0.00  0.00    +0.227 C 
ATOM     10  C   UNL     1      33.299 -11.869 -24.734  0.00  0.00    +0.144 C 
ATOM     11  C   UNL     1      33.337 -12.229 -22.358  0.00  0.00    +0.008 C 
ATOM     12  C   UNL     1      32.904 -10.539 -24.506  0.00  0.00    +0.051 C 
ATOM     13  C   UNL     1      32.709 -10.066 -23.213  0.00  0.00    +0.048 C 
ATOM     14  C   UNL     1      32.920 -10.914 -22.136  0.00  0.00    +0.015 C 
ATOM     15  O   UNL     1      35.984 -18.166 -20.540  0.00  0.00    -0.432 OA
ATOM     16  O   UNL     1      34.918 -16.160 -20.252  0.00  0.00    -0.226 OA
ATOM     17  N   UNL     1      35.264 -17.084 -22.389  0.00  0.00    -0.194 N 
ATOM     18  C   UNL     1      35.722 -18.378 -22.843  0.00  0.00    +0.195 C 
ATOM     19  C   UNL     1      36.563 -18.832 -21.666  0.00  0.00    +0.236 C 
ATOM     20  C   UNL     1      35.342 -17.035 -20.995  0.00  0.00    +0.411 C 
ENDROOT
BRANCH  18  23
ATOM     21  F   UNL     1      34.883 -20.135 -24.140  0.00  0.00    -0.196 F 
ATOM     22  F   UNL     1      34.379 -20.111 -22.023  0.00  0.00    -0.196 F 
ATOM     23  C   UNL     1      34.558 -19.330 -23.109  0.00  0.00    +0.340 C 
ENDBRANCH  18  23
BRANCH  13  24
ATOM     24  N   UNL     1      32.299  -8.734 -22.999  0.00  0.00    -0.327 N 
ATOM     25  H   UNL     1      31.382  -8.479 -23.246  0.00  0.00    +0.147 HD
BRANCH  24  26
ATOM     26  C   UNL     1      33.159  -7.736 -22.439  0.00  0.00    +0.146 C 
ATOM     27  C   UNL     1      33.332  -6.599 -23.435  0.00  0.00    +0.031 C 
BRANCH  26  30
ATOM     28  O   UNL     1      31.614  -6.440 -21.090  0.00  0.00    -0.274 OA
ATOM     29  N   UNL     1      33.169  -7.750 -20.023  0.00  0.00    -0.327 N 
ATOM     30  C   UNL     1      32.555  -7.230 -21.141  0.00  0.00    +0.237 C 
ATOM     31  H   UNL     1      32.860  -7.491 -19.125  0.00  0.00    +0.145 HD
ATOM     32  H   UNL     1      33.918  -8.382 -20.121  0.00  0.00    +0.145 HD
ENDBRANCH  26  30
ENDBRANCH  24  26
ENDBRANCH  13  24
TORSDOF 4
ENDMDL
MODEL 6
REMARK VINA RESULT:      -8.9     11.528     16.028
REMARK  Name = 124173720
REMARK  4 active torsions:
REMARK  status: ('A' for Active; 'I' for Inactive)
REMARK    1  A    between atoms: C_13  and  N_24
REMARK    2  A    between atoms: C_18  and  C_23
REMARK    3  A    between atoms: N_24  and  C_26
REMARK    4  A    between atoms: C_26  and  C_30
REMARK                            x       y       z     vdW  Elec       q    Type
REMARK                         _______ _______ _______ _____ _____    ______ ____
ROOT
ATOM      1  O   UNL     1      31.487  -7.019 -20.772  0.00  0.00    -0.473 OA
ATOM      2  N   UNL     1      32.311  -9.827 -21.567  0.00  0.00    -0.272 N 
ATOM      3  N   UNL     1      32.947  -9.981 -23.673  0.00  0.00    -0.374 NA
ATOM      4  C   UNL     1      32.913 -11.229 -23.116  0.00  0.00    +0.190 C 
ATOM      5  C   UNL     1      32.574  -9.126 -22.727  0.00  0.00    +0.188 C 
ATOM      6  C   UNL     1      31.888  -9.323 -20.277  0.00  0.00    +0.141 C 
ATOM      7  C   UNL     1      32.517 -11.162 -21.808  0.00  0.00    +0.169 C 
ATOM      8  C   UNL     1      32.476  -7.667 -22.941  0.00  0.00    +0.078 C 
ATOM      9  C   UNL     1      32.323  -7.898 -20.025  0.00  0.00    +0.227 C 
ATOM     10  C   UNL     1      31.959  -6.736 -22.025  0.00  0.00    +0.144 C 
ATOM     11  C   UNL     1      32.904  -7.170 -24.191  0.00  0.00    +0.008 C 
ATOM     12  C   UNL     1      31.832  -5.380 -22.375  0.00  0.00    +0.051 C 
ATOM     13  C   UNL     1      32.258  -4.922 -23.616  0.00  0.00    +0.048 C 
ATOM     14  C   UNL     1      32.801  -5.817 -24.525  0.00  0.00    +0.015 C 
ATOM     15  O   UNL     1      33.714 -13.732 -25.550  0.00  0.00    -0.432 OA
ATOM     16  O   UNL     1      33.901 -11.475 -25.885  0.00  0.00    -0.226 OA
ATOM     17  N   UNL     1      33.235 -12.369 -23.811  0.00  0.00    -0.194 N 
ATOM     18  C   UNL     1      33.214 -13.713 -23.277  0.00  0.00    +0.195 C 
ATOM     19  C   UNL     1      33.100 -14.541 -24.541  0.00  0.00    +0.236 C 
ATOM     20  C   UNL     1      33.638 -12.417 -25.148  0.00  0.00    +0.411 C 
ENDROOT
BRANCH  18  23
ATOM     21  F   UNL     1      34.182 -14.172 -21.196  0.00  0.00    -0.196 F 
ATOM     22  F   UNL     1      34.975 -15.217 -22.933  0.00  0.00    -0.196 F 
ATOM     23  C   UNL     1      34.491 -14.033 -22.502  0.00  0.00    +0.340 C 
ENDBRANCH  18  23
BRANCH  13  24
ATOM     24  N   UNL     1      32.138  -3.557 -23.948  0.00  0.00    -0.327 N 
ATOM     25  H   UNL     1      32.947  -3.067 -24.219  0.00  0.00    +0.147 HD
BRANCH  24  26
ATOM     26  C   UNL     1      30.893  -2.853 -23.908  0.00  0.00    +0.146 C 
ATOM     27  C   UNL     1      30.946  -1.787 -22.823  0.00  0.00    +0.031 C 
BRANCH  26  30
ATOM     28  O   UNL     1      31.483  -2.127 -26.147  0.00  0.00    -0.274 OA
ATOM     29  N   UNL     1      29.334  -1.786 -25.415  0.00  0.00    -0.327 N 
ATOM     30  C   UNL     1      30.631  -2.227 -25.267  0.00  0.00    +0.237 C 
ATOM     31  H   UNL     1      29.050  -1.362 -26.257  0.00  0.00    +0.145 HD
ATOM     32  H   UNL     1      28.689  -1.894 -24.678  0.00  0.00    +0.145 HD
ENDBRANCH  26  30
ENDBRANCH  24  26
ENDBRANCH  13  24
TORSDOF 4
ENDMDL
MODEL 7
REMARK VINA RESULT:      -8.5      3.165      5.185
REMARK  Name = 124173720
REMARK  4 active torsions:
REMARK  status: ('A' for Active; 'I' for Inactive)
REMARK    1  A    between atoms: C_13  and  N_24
REMARK    2  A    between atoms: C_18  and  C_23
REMARK    3  A    between atoms: N_24  and  C_26
REMARK    4  A    between atoms: C_26  and  C_30
REMARK                            x       y       z     vdW  Elec       q    Type
REMARK                         _______ _______ _______ _____ _____    ______ ____
ROOT
ATOM      1  O   UNL     1      35.974 -21.811 -18.402  0.00  0.00    -0.473 OA
ATOM      2  N   UNL     1      33.649 -23.010 -16.869  0.00  0.00    -0.272 N 
ATOM      3  N   UNL     1      31.686 -22.527 -17.751  0.00  0.00    -0.374 NA
ATOM      4  C   UNL     1      31.502 -23.189 -16.571  0.00  0.00    +0.190 C 
ATOM      5  C   UNL     1      32.998 -22.413 -17.930  0.00  0.00    +0.188 C 
ATOM      6  C   UNL     1      35.071 -23.143 -16.635  0.00  0.00    +0.141 C 
ATOM      7  C   UNL     1      32.707 -23.499 -16.000  0.00  0.00    +0.169 C 
ATOM      8  C   UNL     1      33.604 -21.743 -19.099  0.00  0.00    +0.078 C 
ATOM      9  C   UNL     1      35.885 -23.144 -17.908  0.00  0.00    +0.227 C 
ATOM     10  C   UNL     1      34.972 -21.473 -19.272  0.00  0.00    +0.144 C 
ATOM     11  C   UNL     1      32.728 -21.300 -20.114  0.00  0.00    +0.008 C 
ATOM     12  C   UNL     1      35.425 -20.747 -20.388  0.00  0.00    +0.051 C 
ATOM     13  C   UNL     1      34.537 -20.320 -21.368  0.00  0.00    +0.048 C 
ATOM     14  C   UNL     1      33.185 -20.602 -21.235  0.00  0.00    +0.015 C 
ATOM     15  O   UNL     1      28.017 -23.456 -15.788  0.00  0.00    -0.432 OA
ATOM     16  O   UNL     1      28.856 -22.690 -17.775  0.00  0.00    -0.226 OA
ATOM     17  N   UNL     1      30.261 -23.482 -16.060  0.00  0.00    -0.194 N 
ATOM     18  C   UNL     1      30.006 -24.177 -14.818  0.00  0.00    +0.195 C 
ATOM     19  C   UNL     1      28.590 -23.733 -14.506  0.00  0.00    +0.236 C 
ATOM     20  C   UNL     1      29.041 -23.158 -16.659  0.00  0.00    +0.411 C 
ENDROOT
BRANCH  18  23
ATOM     21  F   UNL     1      31.117 -26.150 -14.227  0.00  0.00    -0.196 F 
ATOM     22  F   UNL     1      28.964 -26.253 -14.525  0.00  0.00    -0.196 F 
ATOM     23  C   UNL     1      30.101 -25.692 -14.987  0.00  0.00    +0.340 C 
ENDBRANCH  18  23
BRANCH  13  24
ATOM     24  N   UNL     1      35.006 -19.606 -22.489  0.00  0.00    -0.327 N 
ATOM     25  H   UNL     1      35.587 -20.071 -23.133  0.00  0.00    +0.147 HD
BRANCH  24  26
ATOM     26  C   UNL     1      34.676 -18.235 -22.733  0.00  0.00    +0.146 C 
ATOM     27  C   UNL     1      35.716 -17.339 -22.077  0.00  0.00    +0.031 C 
BRANCH  26  30
ATOM     28  O   UNL     1      35.005 -16.957 -24.768  0.00  0.00    -0.274 OA
ATOM     29  N   UNL     1      34.104 -19.062 -24.930  0.00  0.00    -0.327 N 
ATOM     30  C   UNL     1      34.623 -17.994 -24.231  0.00  0.00    +0.237 C 
ATOM     31  H   UNL     1      34.021 -19.017 -25.910  0.00  0.00    +0.145 HD
ATOM     32  H   UNL     1      33.814 -19.872 -24.449  0.00  0.00    +0.145 HD
ENDBRANCH  26  30
ENDBRANCH  24  26
ENDBRANCH  13  24
TORSDOF 4
ENDMDL
MODEL 8
REMARK VINA RESULT:      -8.5     11.292     15.232
REMARK  Name = 124173720
REMARK  4 active torsions:
REMARK  status: ('A' for Active; 'I' for Inactive)
REMARK    1  A    between atoms: C_13  and  N_24
REMARK    2  A    between atoms: C_18  and  C_23
REMARK    3  A    between atoms: N_24  and  C_26
REMARK    4  A    between atoms: C_26  and  C_30
REMARK                            x       y       z     vdW  Elec       q    Type
REMARK                         _______ _______ _______ _____ _____    ______ ____
ROOT
ATOM      1  O   UNL     1      31.478  -8.547 -20.133  0.00  0.00    -0.473 OA
ATOM      2  N   UNL     1      32.320 -11.115 -21.509  0.00  0.00    -0.272 N 
ATOM      3  N   UNL     1      32.976 -10.808 -23.592  0.00  0.00    -0.374 NA
ATOM      4  C   UNL     1      32.942 -12.146 -23.319  0.00  0.00    +0.190 C 
ATOM      5  C   UNL     1      32.591 -10.179 -22.487  0.00  0.00    +0.188 C 
ATOM      6  C   UNL     1      31.884 -10.903 -20.145  0.00  0.00    +0.141 C 
ATOM      7  C   UNL     1      32.534 -12.365 -22.031  0.00  0.00    +0.169 C 
ATOM      8  C   UNL     1      32.488  -8.709 -22.382  0.00  0.00    +0.078 C 
ATOM      9  C   UNL     1      32.311  -9.565 -19.586  0.00  0.00    +0.227 C 
ATOM     10  C   UNL     1      31.959  -7.999 -21.291  0.00  0.00    +0.144 C 
ATOM     11  C   UNL     1      32.924  -7.952 -23.491  0.00  0.00    +0.008 C 
ATOM     12  C   UNL     1      31.829  -6.600 -21.340  0.00  0.00    +0.051 C 
ATOM     13  C   UNL     1      32.263  -5.882 -22.449  0.00  0.00    +0.048 C 
ATOM     14  C   UNL     1      32.818  -6.559 -23.525  0.00  0.00    +0.015 C 
ATOM     15  O   UNL     1      33.775 -14.062 -26.230  0.00  0.00    -0.432 OA
ATOM     16  O   UNL     1      33.954 -11.786 -26.066  0.00  0.00    -0.226 OA
ATOM     17  N   UNL     1      33.275 -13.109 -24.242  0.00  0.00    -0.194 N 
ATOM     18  C   UNL     1      33.255 -14.536 -24.011  0.00  0.00    +0.195 C 
ATOM     19  C   UNL     1      33.156 -15.071 -25.425  0.00  0.00    +0.236 C 
ATOM     20  C   UNL     1      33.689 -12.865 -25.553  0.00  0.00    +0.411 C 
ENDROOT
BRANCH  18  23
ATOM     21  F   UNL     1      34.308 -15.033 -21.981  0.00  0.00    -0.196 F 
ATOM     22  F   UNL     1      34.786 -16.280 -23.700  0.00  0.00    -0.196 F 
ATOM     23  C   UNL     1      34.527 -15.014 -23.311  0.00  0.00    +0.340 C 
ENDBRANCH  18  23
BRANCH  13  24
ATOM     24  N   UNL     1      32.141  -4.478 -22.479  0.00  0.00    -0.327 N 
ATOM     25  H   UNL     1      32.730  -3.943 -21.901  0.00  0.00    +0.147 HD
BRANCH  24  26
ATOM     26  C   UNL     1      31.198  -3.797 -23.312  0.00  0.00    +0.146 C 
ATOM     27  C   UNL     1      30.464  -2.745 -22.494  0.00  0.00    +0.031 C 
BRANCH  26  30
ATOM     28  O   UNL     1      32.424  -3.800 -25.405  0.00  0.00    -0.274 OA
ATOM     29  N   UNL     1      31.987  -1.786 -24.393  0.00  0.00    -0.327 N 
ATOM     30  C   UNL     1      31.932  -3.160 -24.479  0.00  0.00    +0.237 C 
ATOM     31  H   UNL     1      32.441  -1.266 -25.096  0.00  0.00    +0.145 HD
ATOM     32  H   UNL     1      31.573  -1.322 -23.629  0.00  0.00    +0.145 HD
ENDBRANCH  26  30
ENDBRANCH  24  26
ENDBRANCH  13  24
TORSDOF 4
ENDMDL
MODEL 9
REMARK VINA RESULT:      -8.5     11.009     14.635
REMARK  Name = 124173720
REMARK  4 active torsions:
REMARK  status: ('A' for Active; 'I' for Inactive)
REMARK    1  A    between atoms: C_13  and  N_24
REMARK    2  A    between atoms: C_18  and  C_23
REMARK    3  A    between atoms: N_24  and  C_26
REMARK    4  A    between atoms: C_26  and  C_30
REMARK                            x       y       z     vdW  Elec       q    Type
REMARK                         _______ _______ _______ _____ _____    ______ ____
ROOT
ATOM      1  O   UNL     1      31.537  -9.735 -20.313  0.00  0.00    -0.473 OA
ATOM      2  N   UNL     1      32.420 -12.196 -21.850  0.00  0.00    -0.272 N 
ATOM      3  N   UNL     1      33.061 -11.746 -23.912  0.00  0.00    -0.374 NA
ATOM      4  C   UNL     1      33.053 -13.100 -23.724  0.00  0.00    +0.190 C 
ATOM      5  C   UNL     1      32.670 -11.195 -22.768  0.00  0.00    +0.188 C 
ATOM      6  C   UNL     1      31.986 -12.078 -20.474  0.00  0.00    +0.141 C 
ATOM      7  C   UNL     1      32.655 -13.406 -22.451  0.00  0.00    +0.169 C 
ATOM      8  C   UNL     1      32.541  -9.737 -22.571  0.00  0.00    +0.078 C 
ATOM      9  C   UNL     1      32.391 -10.770 -19.833  0.00  0.00    +0.227 C 
ATOM     10  C   UNL     1      32.003  -9.107 -21.436  0.00  0.00    +0.144 C 
ATOM     11  C   UNL     1      32.958  -8.903 -23.631  0.00  0.00    +0.008 C 
ATOM     12  C   UNL     1      31.848  -7.710 -21.396  0.00  0.00    +0.051 C 
ATOM     13  C   UNL     1      32.264  -6.916 -22.459  0.00  0.00    +0.048 C 
ATOM     14  C   UNL     1      32.827  -7.514 -23.578  0.00  0.00    +0.015 C 
ATOM     15  O   UNL     1      33.908 -14.813 -26.751  0.00  0.00    -0.432 OA
ATOM     16  O   UNL     1      34.047 -12.549 -26.445  0.00  0.00    -0.226 OA
ATOM     17  N   UNL     1      33.399 -13.996 -24.705  0.00  0.00    -0.194 N 
ATOM     18  C   UNL     1      33.407 -15.435 -24.565  0.00  0.00    +0.195 C 
ATOM     19  C   UNL     1      33.311 -15.882 -26.010  0.00  0.00    +0.236 C 
ATOM     20  C   UNL     1      33.804 -13.663 -26.001  0.00  0.00    +0.411 C 
ENDROOT
BRANCH  18  23
ATOM     21  F   UNL     1      34.525 -15.901 -22.563  0.00  0.00    -0.196 F 
ATOM     22  F   UNL     1      34.892 -17.218 -24.256  0.00  0.00    -0.196 F 
ATOM     23  C   UNL     1      34.690 -15.933 -23.901  0.00  0.00    +0.340 C 
ENDBRANCH  18  23
BRANCH  13  24
ATOM     24  N   UNL     1      32.116  -5.516 -22.400  0.00  0.00    -0.327 N 
ATOM     25  H   UNL     1      32.900  -4.970 -22.166  0.00  0.00    +0.147 HD
BRANCH  24  26
ATOM     26  C   UNL     1      30.876  -4.853 -22.666  0.00  0.00    +0.146 C 
ATOM     27  C   UNL     1      30.022  -4.850 -21.407  0.00  0.00    +0.031 C 
BRANCH  26  30
ATOM     28  O   UNL     1      31.951  -3.157 -24.029  0.00  0.00    -0.274 OA
ATOM     29  N   UNL     1      30.432  -2.488 -22.443  0.00  0.00    -0.327 N 
ATOM     30  C   UNL     1      31.159  -3.434 -23.131  0.00  0.00    +0.237 C 
ATOM     31  H   UNL     1      30.535  -1.533 -22.660  0.00  0.00    +0.145 HD
ATOM     32  H   UNL     1      29.808  -2.766 -21.733  0.00  0.00    +0.145 HD
ENDBRANCH  26  30
ENDBRANCH  24  26
ENDBRANCH  13  24
TORSDOF 4
ENDMDL
