MODEL 1
REMARK VINA RESULT:     -11.7      0.000      0.000
REMARK  Name = 42628060
REMARK  6 active torsions:
REMARK  status: ('A' for Active; 'I' for Inactive)
REMARK    1  A    between atoms: N_2  and  C_6
REMARK    2  A    between atoms: C_3  and  C_19
REMARK    3  A    between atoms: C_9  and  N_13
REMARK    4  A    between atoms: C_19  and  N_20
REMARK    5  A    between atoms: C_21  and  N_27
REMARK    6  A    between atoms: C_28  and  C_32
REMARK                            x       y       z     vdW  Elec       q    Type
REMARK                         _______ _______ _______ _____ _____    ______ ____
ROOT
ATOM      1  O   UNL     1      32.758 -13.892 -22.914  0.00  0.00    -0.277 OA
ATOM      2  N   UNL     1      34.509 -14.933 -24.082  0.00  0.00    -0.284 N 
ATOM      3  C   UNL     1      33.563 -13.939 -23.839  0.00  0.00    +0.205 C 
ATOM      4  H   UNL     1      35.073 -14.811 -24.879  0.00  0.00    +0.155 HD
ENDROOT
BRANCH   2   6
ATOM      5  F   UNL     1      34.580 -17.459 -25.255  0.00  0.00    -0.203 F 
ATOM      6  C   UNL     1      34.753 -16.098 -23.317  0.00  0.00    +0.078 C 
ATOM      7  C   UNL     1      34.782 -17.348 -23.935  0.00  0.00    +0.155 C 
ATOM      8  C   UNL     1      34.963 -15.995 -21.942  0.00  0.00    +0.018 C 
ATOM      9  C   UNL     1      35.232 -18.391 -21.802  0.00  0.00    +0.061 C 
ATOM     10  C   UNL     1      35.022 -18.495 -23.177  0.00  0.00    +0.046 C 
ATOM     11  C   UNL     1      35.203 -17.142 -21.184  0.00  0.00    +0.017 C 
BRANCH   9  13
ATOM     12  O   UNL     1      37.813 -19.221 -20.794  0.00  0.00    -0.269 OA
ATOM     13  N   UNL     1      35.480 -19.583 -21.015  0.00  0.00    -0.233 N 
ATOM     14  C   UNL     1      36.803 -19.902 -20.613  0.00  0.00    +0.257 C 
ATOM     15  C   UNL     1      34.423 -20.411 -20.629  0.00  0.00    +0.072 C 
ATOM     16  C   UNL     1      36.977 -21.173 -19.843  0.00  0.00    +0.059 C 
ATOM     17  C   UNL     1      34.602 -21.525 -19.912  0.00  0.00    +0.017 C 
ATOM     18  C   UNL     1      35.920 -21.918 -19.514  0.00  0.00    +0.006 C 
ENDBRANCH   9  13
ENDBRANCH   2   6
BRANCH   3  19
ATOM     19  C   UNL     1      33.641 -12.866 -24.911  0.00  0.00    +0.010 C 
BRANCH  19  20
ATOM     20  N   UNL     1      34.327 -11.699 -24.378  0.00  0.00    +0.394 N 
ATOM     21  C   UNL     1      34.265  -9.513 -23.571  0.00  0.00    +0.049 C 
ATOM     22  C   UNL     1      35.260  -9.579 -24.732  0.00  0.00    -0.005 C 
ATOM     23  C   UNL     1      33.411 -10.769 -23.715  0.00  0.00    -0.057 C 
ATOM     24  C   UNL     1      34.973 -10.906 -25.424  0.00  0.00    -0.075 C 
ATOM     25  H   UNL     1      35.007 -12.087 -23.726  0.00  0.00    -0.079 HD
BRANCH  21  27
ATOM     26  O   UNL     1      33.311  -8.072 -21.278  0.00  0.00    -0.270 OA
ATOM     27  N   UNL     1      33.474  -8.313 -23.579  0.00  0.00    -0.304 N 
ATOM     28  C   UNL     1      33.055  -7.681 -22.415  0.00  0.00    +0.252 C 
ATOM     29  H   UNL     1      33.219  -7.922 -24.447  0.00  0.00    +0.150 HD
BRANCH  28  32
ATOM     30 CL   UNL     1      30.860  -3.031 -24.454  0.00  0.00    -0.075 Cl
ATOM     31  S   UNL     1      32.464  -5.484 -23.977  0.00  0.00    -0.071 S 
ATOM     32  C   UNL     1      32.222  -6.464 -22.594  0.00  0.00    +0.084 C 
ATOM     33  C   UNL     1      31.228  -5.970 -21.778  0.00  0.00    +0.012 C 
ATOM     34  C   UNL     1      30.657  -4.772 -22.296  0.00  0.00    +0.019 C 
ATOM     35  C   UNL     1      31.237  -4.395 -23.487  0.00  0.00    +0.087 C 
ENDBRANCH  28  32
ENDBRANCH  21  27
ENDBRANCH  19  20
ENDBRANCH   3  19
TORSDOF 6
ENDMDL
MODEL 2
REMARK VINA RESULT:     -11.1      4.885      8.225
REMARK  Name = 42628060
REMARK  6 active torsions:
REMARK  status: ('A' for Active; 'I' for Inactive)
REMARK    1  A    between atoms: N_2  and  C_6
REMARK    2  A    between atoms: C_3  and  C_19
REMARK    3  A    between atoms: C_9  and  N_13
REMARK    4  A    between atoms: C_19  and  N_20
REMARK    5  A    between atoms: C_21  and  N_27
REMARK    6  A    between atoms: C_28  and  C_32
REMARK                            x       y       z     vdW  Elec       q    Type
REMARK                         _______ _______ _______ _____ _____    ______ ____
ROOT
ATOM      1  O   UNL     1      36.685 -20.550 -20.026  0.00  0.00    -0.277 OA
ATOM      2  N   UNL     1      34.815 -21.688 -19.176  0.00  0.00    -0.284 N 
ATOM      3  C   UNL     1      35.505 -20.882 -20.080  0.00  0.00    +0.205 C 
ATOM      4  H   UNL     1      33.865 -21.849 -19.375  0.00  0.00    +0.155 HD
ENDROOT
BRANCH   2   6
ATOM      5  F   UNL     1      33.221 -23.327 -17.584  0.00  0.00    -0.203 F 
ATOM      6  C   UNL     1      35.321 -22.301 -18.007  0.00  0.00    +0.078 C 
ATOM      7  C   UNL     1      34.497 -23.116 -17.231  0.00  0.00    +0.155 C 
ATOM      8  C   UNL     1      36.647 -22.089 -17.628  0.00  0.00    +0.018 C 
ATOM      9  C   UNL     1      36.324 -23.507 -15.699  0.00  0.00    +0.061 C 
ATOM     10  C   UNL     1      34.998 -23.720 -16.077  0.00  0.00    +0.046 C 
ATOM     11  C   UNL     1      37.148 -22.692 -16.474  0.00  0.00    +0.017 C 
BRANCH   9  13
ATOM     12  O   UNL     1      36.858 -26.332 -15.385  0.00  0.00    -0.269 OA
ATOM     13  N   UNL     1      36.845 -24.133 -14.499  0.00  0.00    -0.233 N 
ATOM     14  C   UNL     1      37.026 -25.539 -14.458  0.00  0.00    +0.257 C 
ATOM     15  C   UNL     1      37.191 -23.359 -13.389  0.00  0.00    +0.072 C 
ATOM     16  C   UNL     1      37.525 -26.109 -13.167  0.00  0.00    +0.059 C 
ATOM     17  C   UNL     1      37.666 -23.889 -12.258  0.00  0.00    +0.017 C 
ATOM     18  C   UNL     1      37.831 -25.307 -12.144  0.00  0.00    +0.006 C 
ENDBRANCH   9  13
ENDBRANCH   2   6
BRANCH   3  19
ATOM     19  C   UNL     1      34.579 -20.433 -21.197  0.00  0.00    +0.010 C 
BRANCH  19  20
ATOM     20  N   UNL     1      35.250 -19.428 -22.007  0.00  0.00    +0.394 N 
ATOM     21  C   UNL     1      35.447 -17.222 -22.736  0.00  0.00    +0.049 C 
ATOM     22  C   UNL     1      35.316 -18.134 -23.959  0.00  0.00    -0.005 C 
ATOM     23  C   UNL     1      34.950 -18.064 -21.565  0.00  0.00    -0.057 C 
ATOM     24  C   UNL     1      34.829 -19.469 -23.408  0.00  0.00    -0.075 C 
ATOM     25  H   UNL     1      36.240 -19.647 -21.904  0.00  0.00    -0.079 HD
BRANCH  21  27
ATOM     26  O   UNL     1      34.907 -15.308 -20.666  0.00  0.00    -0.270 OA
ATOM     27  N   UNL     1      34.714 -15.994 -22.874  0.00  0.00    -0.304 N 
ATOM     28  C   UNL     1      34.500 -15.124 -21.811  0.00  0.00    +0.252 C 
ATOM     29  H   UNL     1      34.348 -15.759 -23.757  0.00  0.00    +0.150 HD
BRANCH  28  32
ATOM     30 CL   UNL     1      30.750 -11.067 -21.548  0.00  0.00    -0.075 Cl
ATOM     31  S   UNL     1      32.418 -13.474 -21.063  0.00  0.00    -0.071 S 
ATOM     32  C   UNL     1      33.700 -13.908 -22.111  0.00  0.00    +0.084 C 
ATOM     33  C   UNL     1      33.835 -13.022 -23.158  0.00  0.00    +0.012 C 
ATOM     34  C   UNL     1      32.872 -11.974 -23.098  0.00  0.00    +0.019 C 
ATOM     35  C   UNL     1      32.038 -12.098 -22.009  0.00  0.00    +0.087 C 
ENDBRANCH  28  32
ENDBRANCH  21  27
ENDBRANCH  19  20
ENDBRANCH   3  19
TORSDOF 6
ENDMDL
MODEL 3
REMARK VINA RESULT:     -11.0      1.478      1.913
REMARK  Name = 42628060
REMARK  6 active torsions:
REMARK  status: ('A' for Active; 'I' for Inactive)
REMARK    1  A    between atoms: N_2  and  C_6
REMARK    2  A    between atoms: C_3  and  C_19
REMARK    3  A    between atoms: C_9  and  N_13
REMARK    4  A    between atoms: C_19  and  N_20
REMARK    5  A    between atoms: C_21  and  N_27
REMARK    6  A    between atoms: C_28  and  C_32
REMARK                            x       y       z     vdW  Elec       q    Type
REMARK                         _______ _______ _______ _____ _____    ______ ____
ROOT
ATOM      1  O   UNL     1      32.854 -15.273 -25.981  0.00  0.00    -0.277 OA
ATOM      2  N   UNL     1      34.213 -14.392 -24.280  0.00  0.00    -0.284 N 
ATOM      3  C   UNL     1      33.398 -14.333 -25.409  0.00  0.00    +0.205 C 
ATOM      4  H   UNL     1      34.571 -13.534 -23.958  0.00  0.00    +0.155 HD
ENDROOT
BRANCH   2   6
ATOM      5  F   UNL     1      34.509 -14.314 -21.511  0.00  0.00    -0.203 F 
ATOM      6  C   UNL     1      34.584 -15.541 -23.543  0.00  0.00    +0.078 C 
ATOM      7  C   UNL     1      34.724 -15.469 -22.157  0.00  0.00    +0.155 C 
ATOM      8  C   UNL     1      34.812 -16.748 -24.205  0.00  0.00    +0.018 C 
ATOM      9  C   UNL     1      35.319 -17.810 -22.095  0.00  0.00    +0.061 C 
ATOM     10  C   UNL     1      35.092 -16.604 -21.433  0.00  0.00    +0.046 C 
ATOM     11  C   UNL     1      35.179 -17.883 -23.481  0.00  0.00    +0.017 C 
BRANCH   9  13
ATOM     12  O   UNL     1      33.546 -19.976 -21.367  0.00  0.00    -0.269 OA
ATOM     13  N   UNL     1      35.702 -18.989 -21.343  0.00  0.00    -0.233 N 
ATOM     14  C   UNL     1      34.726 -19.964 -21.014  0.00  0.00    +0.257 C 
ATOM     15  C   UNL     1      37.030 -19.183 -20.957  0.00  0.00    +0.072 C 
ATOM     16  C   UNL     1      35.195 -21.127 -20.197  0.00  0.00    +0.059 C 
ATOM     17  C   UNL     1      37.431 -20.248 -20.255  0.00  0.00    +0.017 C 
ATOM     18  C   UNL     1      36.481 -21.245 -19.859  0.00  0.00    +0.006 C 
ENDBRANCH   9  13
ENDBRANCH   2   6
BRANCH   3  19
ATOM     19  C   UNL     1      33.260 -12.896 -25.883  0.00  0.00    +0.010 C 
BRANCH  19  20
ATOM     20  N   UNL     1      33.893 -12.007 -24.921  0.00  0.00    +0.394 N 
ATOM     21  C   UNL     1      33.852 -10.062 -23.636  0.00  0.00    +0.049 C 
ATOM     22  C   UNL     1      35.124 -10.062 -24.487  0.00  0.00    -0.005 C 
ATOM     23  C   UNL     1      32.938 -11.087 -24.299  0.00  0.00    -0.057 C 
ATOM     24  C   UNL     1      34.899 -11.142 -25.538  0.00  0.00    -0.075 C 
ATOM     25  H   UNL     1      34.307 -12.638 -24.236  0.00  0.00    -0.079 HD
BRANCH  21  27
ATOM     26  O   UNL     1      32.614  -8.910 -21.316  0.00  0.00    -0.270 OA
ATOM     27  N   UNL     1      33.240  -8.765 -23.545  0.00  0.00    -0.304 N 
ATOM     28  C   UNL     1      32.662  -8.288 -22.375  0.00  0.00    +0.252 C 
ATOM     29  H   UNL     1      33.229  -8.191 -24.345  0.00  0.00    +0.150 HD
BRANCH  28  32
ATOM     30 CL   UNL     1      30.957  -3.353 -24.201  0.00  0.00    -0.075 Cl
ATOM     31  S   UNL     1      32.149  -6.057 -23.917  0.00  0.00    -0.071 S 
ATOM     32  C   UNL     1      32.048  -6.937 -22.451  0.00  0.00    +0.084 C 
ATOM     33  C   UNL     1      31.371  -6.240 -21.475  0.00  0.00    +0.012 C 
ATOM     34  C   UNL     1      30.928  -4.967 -21.937  0.00  0.00    +0.019 C 
ATOM     35  C   UNL     1      31.284  -4.739 -23.248  0.00  0.00    +0.087 C 
ENDBRANCH  28  32
ENDBRANCH  21  27
ENDBRANCH  19  20
ENDBRANCH   3  19
TORSDOF 6
ENDMDL
MODEL 4
REMARK VINA RESULT:     -10.9      5.384     11.563
REMARK  Name = 42628060
REMARK  6 active torsions:
REMARK  status: ('A' for Active; 'I' for Inactive)
REMARK    1  A    between atoms: N_2  and  C_6
REMARK    2  A    between atoms: C_3  and  C_19
REMARK    3  A    between atoms: C_9  and  N_13
REMARK    4  A    between atoms: C_19  and  N_20
REMARK    5  A    between atoms: C_21  and  N_27
REMARK    6  A    between atoms: C_28  and  C_32
REMARK                            x       y       z     vdW  Elec       q    Type
REMARK                         _______ _______ _______ _____ _____    ______ ____
ROOT
ATOM      1  O   UNL     1      34.148 -14.992 -26.899  0.00  0.00    -0.277 OA
ATOM      2  N   UNL     1      33.313 -14.894 -24.706  0.00  0.00    -0.284 N 
ATOM      3  C   UNL     1      33.710 -15.524 -25.884  0.00  0.00    +0.205 C 
ATOM      4  H   UNL     1      32.979 -15.481 -23.990  0.00  0.00    +0.155 HD
ENDROOT
BRANCH   2   6
ATOM      5  F   UNL     1      32.658 -13.918 -22.180  0.00  0.00    -0.203 F 
ATOM      6  C   UNL     1      33.334 -13.509 -24.420  0.00  0.00    +0.078 C 
ATOM      7  C   UNL     1      33.001 -13.052 -23.145  0.00  0.00    +0.155 C 
ATOM      8  C   UNL     1      33.688 -12.598 -25.416  0.00  0.00    +0.018 C 
ATOM      9  C   UNL     1      33.376 -10.776 -23.862  0.00  0.00    +0.061 C 
ATOM     10  C   UNL     1      33.022 -11.685 -22.865  0.00  0.00    +0.046 C 
ATOM     11  C   UNL     1      33.709 -11.231 -25.137  0.00  0.00    +0.017 C 
BRANCH   9  13
ATOM     12  O   UNL     1      31.161  -9.255 -22.789  0.00  0.00    -0.269 OA
ATOM     13  N   UNL     1      33.397  -9.355 -23.572  0.00  0.00    -0.233 N 
ATOM     14  C   UNL     1      32.228  -8.716 -23.084  0.00  0.00    +0.257 C 
ATOM     15  C   UNL     1      34.567  -8.612 -23.750  0.00  0.00    +0.072 C 
ATOM     16  C   UNL     1      32.322  -7.240 -22.855  0.00  0.00    +0.059 C 
ATOM     17  C   UNL     1      34.634  -7.300 -23.506  0.00  0.00    +0.017 C 
ATOM     18  C   UNL     1      33.474  -6.594 -23.052  0.00  0.00    +0.006 C 
ENDBRANCH   9  13
ENDBRANCH   2   6
BRANCH   3  19
ATOM     19  C   UNL     1      33.520 -17.027 -25.765  0.00  0.00    +0.010 C 
BRANCH  19  20
ATOM     20  N   UNL     1      34.527 -17.572 -24.867  0.00  0.00    +0.394 N 
ATOM     21  C   UNL     1      35.145 -19.082 -23.202  0.00  0.00    +0.049 C 
ATOM     22  C   UNL     1      35.476 -17.664 -22.727  0.00  0.00    -0.005 C 
ATOM     23  C   UNL     1      34.157 -18.890 -24.348  0.00  0.00    -0.057 C 
ATOM     24  C   UNL     1      34.723 -16.742 -23.679  0.00  0.00    -0.075 C 
ATOM     25  H   UNL     1      35.370 -17.616 -25.439  0.00  0.00    -0.079 HD
BRANCH  21  27
ATOM     26  O   UNL     1      36.439 -19.769 -20.733  0.00  0.00    -0.270 OA
ATOM     27  N   UNL     1      34.613 -19.911 -22.156  0.00  0.00    -0.304 N 
ATOM     28  C   UNL     1      35.314 -20.192 -20.990  0.00  0.00    +0.252 C 
ATOM     29  H   UNL     1      33.714 -20.297 -22.271  0.00  0.00    +0.150 HD
BRANCH  28  32
ATOM     30 CL   UNL     1      34.351 -23.828 -16.934  0.00  0.00    -0.075 Cl
ATOM     31  S   UNL     1      35.585 -22.007 -18.928  0.00  0.00    -0.071 S 
ATOM     32  C   UNL     1      34.636 -21.088 -20.018  0.00  0.00    +0.084 C 
ATOM     33  C   UNL     1      33.287 -21.309 -19.842  0.00  0.00    +0.012 C 
ATOM     34  C   UNL     1      33.030 -22.245 -18.800  0.00  0.00    +0.019 C 
ATOM     35  C   UNL     1      34.191 -22.704 -18.218  0.00  0.00    +0.087 C 
ENDBRANCH  28  32
ENDBRANCH  21  27
ENDBRANCH  19  20
ENDBRANCH   3  19
TORSDOF 6
ENDMDL
MODEL 5
REMARK VINA RESULT:     -10.2      5.015     11.401
REMARK  Name = 42628060
REMARK  6 active torsions:
REMARK  status: ('A' for Active; 'I' for Inactive)
REMARK    1  A    between atoms: N_2  and  C_6
REMARK    2  A    between atoms: C_3  and  C_19
REMARK    3  A    between atoms: C_9  and  N_13
REMARK    4  A    between atoms: C_19  and  N_20
REMARK    5  A    between atoms: C_21  and  N_27
REMARK    6  A    between atoms: C_28  and  C_32
REMARK                            x       y       z     vdW  Elec       q    Type
REMARK                         _______ _______ _______ _____ _____    ______ ____
ROOT
ATOM      1  O   UNL     1      33.332 -13.742 -26.227  0.00  0.00    -0.277 OA
ATOM      2  N   UNL     1      33.083 -13.996 -23.906  0.00  0.00    -0.284 N 
ATOM      3  C   UNL     1      33.269 -14.434 -25.216  0.00  0.00    +0.205 C 
ATOM      4  H   UNL     1      33.053 -14.696 -23.214  0.00  0.00    +0.155 HD
ENDROOT
BRANCH   2   6
ATOM      5  F   UNL     1      31.596 -13.387 -21.630  0.00  0.00    -0.203 F 
ATOM      6  C   UNL     1      32.934 -12.664 -23.455  0.00  0.00    +0.078 C 
ATOM      7  C   UNL     1      32.182 -12.392 -22.311  0.00  0.00    +0.155 C 
ATOM      8  C   UNL     1      33.538 -11.620 -24.156  0.00  0.00    +0.018 C 
ATOM      9  C   UNL     1      32.640 -10.034 -22.570  0.00  0.00    +0.061 C 
ATOM     10  C   UNL     1      32.036 -11.077 -21.869  0.00  0.00    +0.046 C 
ATOM     11  C   UNL     1      33.392 -10.305 -23.713  0.00  0.00    +0.017 C 
BRANCH   9  13
ATOM     12  O   UNL     1      32.752  -9.175 -19.811  0.00  0.00    -0.269 OA
ATOM     13  N   UNL     1      32.487  -8.667 -22.111  0.00  0.00    -0.233 N 
ATOM     14  C   UNL     1      32.522  -8.380 -20.722  0.00  0.00    +0.257 C 
ATOM     15  C   UNL     1      32.327  -7.626 -23.028  0.00  0.00    +0.072 C 
ATOM     16  C   UNL     1      32.311  -6.951 -20.332  0.00  0.00    +0.059 C 
ATOM     17  C   UNL     1      32.173  -6.351 -22.655  0.00  0.00    +0.017 C 
ATOM     18  C   UNL     1      32.158  -6.008 -21.265  0.00  0.00    +0.006 C 
ENDBRANCH   9  13
ENDBRANCH   2   6
BRANCH   3  19
ATOM     19  C   UNL     1      33.383 -15.948 -25.253  0.00  0.00    +0.010 C 
BRANCH  19  20
ATOM     20  N   UNL     1      34.546 -16.365 -24.484  0.00  0.00    +0.394 N 
ATOM     21  C   UNL     1      35.585 -17.885 -23.054  0.00  0.00    +0.049 C 
ATOM     22  C   UNL     1      35.656 -16.491 -22.425  0.00  0.00    -0.005 C 
ATOM     23  C   UNL     1      34.493 -17.780 -24.114  0.00  0.00    -0.057 C 
ATOM     24  C   UNL     1      34.661 -15.649 -23.214  0.00  0.00    -0.075 C 
ATOM     25  H   UNL     1      35.334 -16.166 -25.100  0.00  0.00    -0.079 HD
BRANCH  21  27
ATOM     26  O   UNL     1      37.450 -19.024 -21.193  0.00  0.00    -0.270 OA
ATOM     27  N   UNL     1      35.315 -18.919 -22.094  0.00  0.00    -0.304 N 
ATOM     28  C   UNL     1      36.284 -19.412 -21.229  0.00  0.00    +0.252 C 
ATOM     29  H   UNL     1      34.406 -19.294 -22.047  0.00  0.00    +0.150 HD
BRANCH  28  32
ATOM     30 CL   UNL     1      33.201 -23.060 -18.440  0.00  0.00    -0.075 Cl
ATOM     31  S   UNL     1      34.191 -20.904 -20.224  0.00  0.00    -0.071 S 
ATOM     32  C   UNL     1      35.853 -20.499 -20.313  0.00  0.00    +0.084 C 
ATOM     33  C   UNL     1      36.620 -21.280 -19.477  0.00  0.00    +0.012 C 
ATOM     34  C   UNL     1      35.834 -22.223 -18.754  0.00  0.00    +0.019 C 
ATOM     35  C   UNL     1      34.495 -22.127 -19.065  0.00  0.00    +0.087 C 
ENDBRANCH  28  32
ENDBRANCH  21  27
ENDBRANCH  19  20
ENDBRANCH   3  19
TORSDOF 6
ENDMDL
MODEL 6
REMARK VINA RESULT:     -10.2      7.390     13.720
REMARK  Name = 42628060
REMARK  6 active torsions:
REMARK  status: ('A' for Active; 'I' for Inactive)
REMARK    1  A    between atoms: N_2  and  C_6
REMARK    2  A    between atoms: C_3  and  C_19
REMARK    3  A    between atoms: C_9  and  N_13
REMARK    4  A    between atoms: C_19  and  N_20
REMARK    5  A    between atoms: C_21  and  N_27
REMARK    6  A    between atoms: C_28  and  C_32
REMARK                            x       y       z     vdW  Elec       q    Type
REMARK                         _______ _______ _______ _____ _____    ______ ____
ROOT
ATOM      1  O   UNL     1      36.692 -18.821 -20.311  0.00  0.00    -0.277 OA
ATOM      2  N   UNL     1      35.388 -19.555 -22.121  0.00  0.00    -0.284 N 
ATOM      3  C   UNL     1      36.162 -19.708 -20.972  0.00  0.00    +0.205 C 
ATOM      4  H   UNL     1      35.044 -20.383 -22.527  0.00  0.00    +0.155 HD
ENDROOT
BRANCH   2   6
ATOM      5  F   UNL     1      34.358 -19.539 -24.710  0.00  0.00    -0.203 F 
ATOM      6  C   UNL     1      35.038 -18.348 -22.770  0.00  0.00    +0.078 C 
ATOM      7  C   UNL     1      34.525 -18.374 -24.067  0.00  0.00    +0.155 C 
ATOM      8  C   UNL     1      35.209 -17.129 -22.113  0.00  0.00    +0.018 C 
ATOM      9  C   UNL     1      34.353 -15.964 -24.048  0.00  0.00    +0.061 C 
ATOM     10  C   UNL     1      34.182 -17.182 -24.706  0.00  0.00    +0.046 C 
ATOM     11  C   UNL     1      34.866 -15.937 -22.752  0.00  0.00    +0.017 C 
BRANCH   9  13
ATOM     12  O   UNL     1      33.380 -15.742 -26.763  0.00  0.00    -0.269 OA
ATOM     13  N   UNL     1      33.997 -14.725 -24.712  0.00  0.00    -0.233 N 
ATOM     14  C   UNL     1      33.569 -14.746 -26.064  0.00  0.00    +0.257 C 
ATOM     15  C   UNL     1      34.053 -13.511 -24.023  0.00  0.00    +0.072 C 
ATOM     16  C   UNL     1      33.266 -13.419 -26.687  0.00  0.00    +0.059 C 
ATOM     17  C   UNL     1      33.745 -12.342 -24.594  0.00  0.00    +0.017 C 
ATOM     18  C   UNL     1      33.346 -12.297 -25.969  0.00  0.00    +0.006 C 
ENDBRANCH   9  13
ENDBRANCH   2   6
BRANCH   3  19
ATOM     19  C   UNL     1      36.289 -21.180 -20.617  0.00  0.00    +0.010 C 
BRANCH  19  20
ATOM     20  N   UNL     1      35.821 -21.391 -19.256  0.00  0.00    +0.394 N 
ATOM     21  C   UNL     1      36.166 -22.226 -17.107  0.00  0.00    +0.049 C 
ATOM     22  C   UNL     1      34.861 -22.808 -17.656  0.00  0.00    -0.005 C 
ATOM     23  C   UNL     1      36.912 -21.712 -18.334  0.00  0.00    -0.057 C 
ATOM     24  C   UNL     1      34.898 -22.521 -19.152  0.00  0.00    -0.075 C 
ATOM     25  H   UNL     1      35.368 -20.511 -19.011  0.00  0.00    -0.079 HD
BRANCH  21  27
ATOM     26  O   UNL     1      35.730 -23.036 -14.387  0.00  0.00    -0.270 OA
ATOM     27  N   UNL     1      36.936 -23.184 -16.363  0.00  0.00    -0.304 N 
ATOM     28  C   UNL     1      36.651 -23.516 -15.044  0.00  0.00    +0.252 C 
ATOM     29  H   UNL     1      37.698 -23.624 -16.806  0.00  0.00    +0.150 HD
BRANCH  28  32
ATOM     30 CL   UNL     1      40.965 -26.808 -13.972  0.00  0.00    -0.075 Cl
ATOM     31  S   UNL     1      39.061 -24.857 -15.148  0.00  0.00    -0.071 S 
ATOM     32  C   UNL     1      37.558 -24.505 -14.406  0.00  0.00    +0.084 C 
ATOM     33  C   UNL     1      37.373 -25.224 -13.246  0.00  0.00    +0.012 C 
ATOM     34  C   UNL     1      38.480 -26.076 -12.963  0.00  0.00    +0.019 C 
ATOM     35  C   UNL     1      39.468 -25.975 -13.917  0.00  0.00    +0.087 C 
ENDBRANCH  28  32
ENDBRANCH  21  27
ENDBRANCH  19  20
ENDBRANCH   3  19
TORSDOF 6
ENDMDL
MODEL 7
REMARK VINA RESULT:     -10.0      9.378     14.704
REMARK  Name = 42628060
REMARK  6 active torsions:
REMARK  status: ('A' for Active; 'I' for Inactive)
REMARK    1  A    between atoms: N_2  and  C_6
REMARK    2  A    between atoms: C_3  and  C_19
REMARK    3  A    between atoms: C_9  and  N_13
REMARK    4  A    between atoms: C_19  and  N_20
REMARK    5  A    between atoms: C_21  and  N_27
REMARK    6  A    between atoms: C_28  and  C_32
REMARK                            x       y       z     vdW  Elec       q    Type
REMARK                         _______ _______ _______ _____ _____    ______ ____
ROOT
ATOM      1  O   UNL     1      31.048 -22.354 -17.467  0.00  0.00    -0.277 OA
ATOM      2  N   UNL     1      33.257 -22.938 -18.012  0.00  0.00    -0.284 N 
ATOM      3  C   UNL     1      32.050 -23.046 -17.322  0.00  0.00    +0.205 C 
ATOM      4  H   UNL     1      33.960 -23.578 -17.760  0.00  0.00    +0.155 HD
ENDROOT
BRANCH   2   6
ATOM      5  F   UNL     1      35.904 -22.422 -18.708  0.00  0.00    -0.203 F 
ATOM      6  C   UNL     1      33.587 -22.014 -19.031  0.00  0.00    +0.078 C 
ATOM      7  C   UNL     1      34.923 -21.778 -19.355  0.00  0.00    +0.155 C 
ATOM      8  C   UNL     1      32.574 -21.337 -19.710  0.00  0.00    +0.018 C 
ATOM      9  C   UNL     1      34.233 -20.189 -21.039  0.00  0.00    +0.061 C 
ATOM     10  C   UNL     1      35.246 -20.866 -20.360  0.00  0.00    +0.046 C 
ATOM     11  C   UNL     1      32.898 -20.424 -20.715  0.00  0.00    +0.017 C 
BRANCH   9  13
ATOM     12  O   UNL     1      35.744 -17.752 -20.660  0.00  0.00    -0.269 OA
ATOM     13  N   UNL     1      34.569 -19.240 -22.083  0.00  0.00    -0.233 N 
ATOM     14  C   UNL     1      35.283 -18.057 -21.760  0.00  0.00    +0.257 C 
ATOM     15  C   UNL     1      34.212 -19.491 -23.410  0.00  0.00    +0.072 C 
ATOM     16  C   UNL     1      35.548 -17.110 -22.888  0.00  0.00    +0.059 C 
ATOM     17  C   UNL     1      34.490 -18.643 -24.406  0.00  0.00    +0.017 C 
ATOM     18  C   UNL     1      35.173 -17.414 -24.132  0.00  0.00    +0.006 C 
ENDBRANCH   9  13
ENDBRANCH   2   6
BRANCH   3  19
ATOM     19  C   UNL     1      32.125 -24.176 -16.309  0.00  0.00    +0.010 C 
BRANCH  19  20
ATOM     20  N   UNL     1      32.912 -23.748 -15.163  0.00  0.00    +0.394 N 
ATOM     21  C   UNL     1      34.981 -23.428 -14.138  0.00  0.00    +0.049 C 
ATOM     22  C   UNL     1      34.111 -24.299 -13.227  0.00  0.00    -0.005 C 
ATOM     23  C   UNL     1      34.314 -23.506 -15.508  0.00  0.00    -0.057 C 
ATOM     24  C   UNL     1      32.954 -24.758 -14.106  0.00  0.00    -0.075 C 
ATOM     25  H   UNL     1      32.449 -22.895 -14.850  0.00  0.00    -0.079 HD
BRANCH  21  27
ATOM     26  O   UNL     1      36.035 -25.692 -15.554  0.00  0.00    -0.270 OA
ATOM     27  N   UNL     1      36.353 -23.854 -14.175  0.00  0.00    -0.304 N 
ATOM     28  C   UNL     1      36.774 -24.968 -14.891  0.00  0.00    +0.252 C 
ATOM     29  H   UNL     1      37.022 -23.335 -13.672  0.00  0.00    +0.150 HD
BRANCH  28  32
ATOM     30 CL   UNL     1      41.581 -27.408 -13.651  0.00  0.00    -0.075 Cl
ATOM     31  S   UNL     1      38.720 -26.652 -13.893  0.00  0.00    -0.071 S 
ATOM     32  C   UNL     1      38.222 -25.291 -14.806  0.00  0.00    +0.084 C 
ATOM     33  C   UNL     1      39.289 -24.634 -15.378  0.00  0.00    +0.012 C 
ATOM     34  C   UNL     1      40.532 -25.256 -15.063  0.00  0.00    +0.019 C 
ATOM     35  C   UNL     1      40.368 -26.364 -14.263  0.00  0.00    +0.087 C 
ENDBRANCH  28  32
ENDBRANCH  21  27
ENDBRANCH  19  20
ENDBRANCH   3  19
TORSDOF 6
ENDMDL
MODEL 8
REMARK VINA RESULT:     -10.0      5.579     12.012
REMARK  Name = 42628060
REMARK  6 active torsions:
REMARK  status: ('A' for Active; 'I' for Inactive)
REMARK    1  A    between atoms: N_2  and  C_6
REMARK    2  A    between atoms: C_3  and  C_19
REMARK    3  A    between atoms: C_9  and  N_13
REMARK    4  A    between atoms: C_19  and  N_20
REMARK    5  A    between atoms: C_21  and  N_27
REMARK    6  A    between atoms: C_28  and  C_32
REMARK                            x       y       z     vdW  Elec       q    Type
REMARK                         _______ _______ _______ _____ _____    ______ ____
ROOT
ATOM      1  O   UNL     1      35.680 -15.522 -23.480  0.00  0.00    -0.277 OA
ATOM      2  N   UNL     1      33.449 -15.130 -24.103  0.00  0.00    -0.284 N 
ATOM      3  C   UNL     1      34.578 -15.910 -23.856  0.00  0.00    +0.205 C 
ATOM      4  H   UNL     1      32.646 -15.611 -24.406  0.00  0.00    +0.155 HD
ENDROOT
BRANCH   2   6
ATOM      5  F   UNL     1      33.833 -13.419 -26.268  0.00  0.00    -0.203 F 
ATOM      6  C   UNL     1      33.324 -13.727 -23.969  0.00  0.00    +0.078 C 
ATOM      7  C   UNL     1      33.523 -12.898 -25.072  0.00  0.00    +0.155 C 
ATOM      8  C   UNL     1      33.003 -13.173 -22.729  0.00  0.00    +0.018 C 
ATOM      9  C   UNL     1      33.079 -10.961 -23.697  0.00  0.00    +0.061 C 
ATOM     10  C   UNL     1      33.400 -11.514 -24.937  0.00  0.00    +0.046 C 
ATOM     11  C   UNL     1      32.880 -11.790 -22.594  0.00  0.00    +0.017 C 
BRANCH   9  13
ATOM     12  O   UNL     1      35.278  -9.082 -23.684  0.00  0.00    -0.269 OA
ATOM     13  N   UNL     1      32.952  -9.524 -23.556  0.00  0.00    -0.233 N 
ATOM     14  C   UNL     1      34.115  -8.711 -23.524  0.00  0.00    +0.257 C 
ATOM     15  C   UNL     1      31.691  -8.928 -23.472  0.00  0.00    +0.072 C 
ATOM     16  C   UNL     1      33.897  -7.244 -23.330  0.00  0.00    +0.059 C 
ATOM     17  C   UNL     1      31.522  -7.610 -23.331  0.00  0.00    +0.017 C 
ATOM     18  C   UNL     1      32.661  -6.745 -23.251  0.00  0.00    +0.006 C 
ENDBRANCH   9  13
ENDBRANCH   2   6
BRANCH   3  19
ATOM     19  C   UNL     1      34.274 -17.373 -24.128  0.00  0.00    +0.010 C 
BRANCH  19  20
ATOM     20  N   UNL     1      35.175 -18.207 -23.347  0.00  0.00    +0.394 N 
ATOM     21  C   UNL     1      35.513 -19.913 -21.794  0.00  0.00    +0.049 C 
ATOM     22  C   UNL     1      36.240 -18.657 -21.309  0.00  0.00    -0.005 C 
ATOM     23  C   UNL     1      34.517 -19.412 -22.835  0.00  0.00    -0.057 C 
ATOM     24  C   UNL     1      35.679 -17.521 -22.157  0.00  0.00    -0.075 C 
ATOM     25  H   UNL     1      35.927 -18.436 -23.996  0.00  0.00    -0.079 HD
BRANCH  21  27
ATOM     26  O   UNL     1      36.782 -21.644 -19.887  0.00  0.00    -0.270 OA
ATOM     27  N   UNL     1      34.871 -20.633 -20.729  0.00  0.00    -0.304 N 
ATOM     28  C   UNL     1      35.568 -21.452 -19.849  0.00  0.00    +0.252 C 
ATOM     29  H   UNL     1      33.896 -20.543 -20.619  0.00  0.00    +0.150 HD
BRANCH  28  32
ATOM     30 CL   UNL     1      33.989 -24.042 -15.224  0.00  0.00    -0.075 Cl
ATOM     31  S   UNL     1      35.504 -22.648 -17.363  0.00  0.00    -0.071 S 
ATOM     32  C   UNL     1      34.755 -22.149 -18.819  0.00  0.00    +0.084 C 
ATOM     33  C   UNL     1      33.416 -22.474 -18.850  0.00  0.00    +0.012 C 
ATOM     34  C   UNL     1      33.001 -23.142 -17.662  0.00  0.00    +0.019 C 
ATOM     35  C   UNL     1      34.037 -23.302 -16.769  0.00  0.00    +0.087 C 
ENDBRANCH  28  32
ENDBRANCH  21  27
ENDBRANCH  19  20
ENDBRANCH   3  19
TORSDOF 6
ENDMDL
MODEL 9
REMARK VINA RESULT:      -9.9      5.002     11.554
REMARK  Name = 42628060
REMARK  6 active torsions:
REMARK  status: ('A' for Active; 'I' for Inactive)
REMARK    1  A    between atoms: N_2  and  C_6
REMARK    2  A    between atoms: C_3  and  C_19
REMARK    3  A    between atoms: C_9  and  N_13
REMARK    4  A    between atoms: C_19  and  N_20
REMARK    5  A    between atoms: C_21  and  N_27
REMARK    6  A    between atoms: C_28  and  C_32
REMARK                            x       y       z     vdW  Elec       q    Type
REMARK                         _______ _______ _______ _____ _____    ______ ____
ROOT
ATOM      1  O   UNL     1      32.752 -13.615 -25.810  0.00  0.00    -0.277 OA
ATOM      2  N   UNL     1      33.429 -13.377 -23.574  0.00  0.00    -0.284 N 
ATOM      3  C   UNL     1      33.243 -14.057 -24.777  0.00  0.00    +0.205 C 
ATOM      4  H   UNL     1      33.837 -13.892 -22.842  0.00  0.00    +0.155 HD
ENDROOT
BRANCH   2   6
ATOM      5  F   UNL     1      34.778 -11.257 -24.778  0.00  0.00    -0.203 F 
ATOM      6  C   UNL     1      33.101 -12.032 -23.285  0.00  0.00    +0.078 C 
ATOM      7  C   UNL     1      33.796 -10.993 -23.905  0.00  0.00    +0.155 C 
ATOM      8  C   UNL     1      32.082 -11.744 -22.377  0.00  0.00    +0.018 C 
ATOM      9  C   UNL     1      32.452  -9.380 -22.708  0.00  0.00    +0.061 C 
ATOM     10  C   UNL     1      33.471  -9.667 -23.616  0.00  0.00    +0.046 C 
ATOM     11  C   UNL     1      31.757 -10.418 -22.088  0.00  0.00    +0.017 C 
BRANCH   9  13
ATOM     12  O   UNL     1      33.028  -8.023 -20.220  0.00  0.00    -0.269 OA
ATOM     13  N   UNL     1      32.114  -8.002 -22.408  0.00  0.00    -0.233 N 
ATOM     14  C   UNL     1      32.417  -7.463 -21.130  0.00  0.00    +0.257 C 
ATOM     15  C   UNL     1      31.512  -7.193 -23.374  0.00  0.00    +0.072 C 
ATOM     16  C   UNL     1      31.993  -6.049 -20.888  0.00  0.00    +0.059 C 
ATOM     17  C   UNL     1      31.173  -5.921 -23.142  0.00  0.00    +0.017 C 
ATOM     18  C   UNL     1      31.417  -5.336 -21.858  0.00  0.00    +0.006 C 
ENDBRANCH   9  13
ENDBRANCH   2   6
BRANCH   3  19
ATOM     19  C   UNL     1      33.737 -15.488 -24.652  0.00  0.00    +0.010 C 
BRANCH  19  20
ATOM     20  N   UNL     1      34.650 -15.589 -23.523  0.00  0.00    +0.394 N 
ATOM     21  C   UNL     1      35.639 -16.850 -21.831  0.00  0.00    +0.049 C 
ATOM     22  C   UNL     1      34.986 -15.615 -21.205  0.00  0.00    -0.005 C 
ATOM     23  C   UNL     1      34.998 -16.976 -23.209  0.00  0.00    -0.057 C 
ATOM     24  C   UNL     1      34.070 -15.059 -22.289  0.00  0.00    -0.075 C 
ATOM     25  H   UNL     1      35.466 -15.053 -23.817  0.00  0.00    -0.079 HD
BRANCH  21  27
ATOM     26  O   UNL     1      35.312 -19.530 -22.806  0.00  0.00    -0.270 OA
ATOM     27  N   UNL     1      35.465 -18.036 -21.038  0.00  0.00    -0.304 N 
ATOM     28  C   UNL     1      35.313 -19.298 -21.599  0.00  0.00    +0.252 C 
ATOM     29  H   UNL     1      35.453 -17.951 -20.057  0.00  0.00    +0.150 HD
BRANCH  28  32
ATOM     30 CL   UNL     1      33.000 -23.082 -18.293  0.00  0.00    -0.075 Cl
ATOM     31  S   UNL     1      33.526 -20.856 -20.187  0.00  0.00    -0.071 S 
ATOM     32  C   UNL     1      35.117 -20.420 -20.644  0.00  0.00    +0.084 C 
ATOM     33  C   UNL     1      36.066 -21.210 -20.034  0.00  0.00    +0.012 C 
ATOM     34  C   UNL     1      35.479 -22.188 -19.180  0.00  0.00    +0.019 C 
ATOM     35  C   UNL     1      34.104 -22.107 -19.170  0.00  0.00    +0.087 C 
ENDBRANCH  28  32
ENDBRANCH  21  27
ENDBRANCH  19  20
ENDBRANCH   3  19
TORSDOF 6
ENDMDL
