MODEL 1
REMARK VINA RESULT:     -11.3      0.000      0.000
REMARK  Name = 25184541
REMARK  4 active torsions:
REMARK  status: ('A' for Active; 'I' for Inactive)
REMARK    1  A    between atoms: C_4  and  N_19
REMARK    2  A    between atoms: C_5  and  N_11
REMARK    3  A    between atoms: C_20  and  C_23
REMARK    4  A    between atoms: C_23  and  N_25
REMARK                            x       y       z     vdW  Elec       q    Type
REMARK                         _______ _______ _______ _____ _____    ______ ____
ROOT
ATOM      1  F   UNL     1      35.393 -23.233 -17.298  0.00  0.00    -0.200 F 
ATOM      2  F   UNL     1      32.709 -22.837 -17.438  0.00  0.00    -0.200 F 
ATOM      3  F   UNL     1      32.160 -25.114 -13.306  0.00  0.00    -0.203 F 
ATOM      4  C   UNL     1      35.154 -24.376 -15.230  0.00  0.00    +0.089 C 
ATOM      5  C   UNL     1      32.398 -23.971 -15.374  0.00  0.00    +0.110 C 
ATOM      6  C   UNL     1      34.605 -23.696 -16.317  0.00  0.00    +0.182 C 
ATOM      7  C   UNL     1      34.325 -24.852 -14.215  0.00  0.00    +0.048 C 
ATOM      8  C   UNL     1      33.227 -23.494 -16.389  0.00  0.00    +0.184 C 
ATOM      9  C   UNL     1      32.948 -24.650 -14.287  0.00  0.00    +0.157 C 
ENDROOT
BRANCH   5  11
ATOM     10  O   UNL     1      26.974 -23.186 -15.751  0.00  0.00    -0.291 OA
ATOM     11  N   UNL     1      30.995 -23.768 -15.449  0.00  0.00    -0.282 N 
ATOM     12  C   UNL     1      30.168 -24.897 -15.910  0.00  0.00    +0.104 C 
ATOM     13  C   UNL     1      28.883 -24.399 -16.569  0.00  0.00    +0.091 C 
ATOM     14  C   UNL     1      30.362 -22.641 -14.946  0.00  0.00    +0.068 C 
ATOM     15  C   UNL     1      28.195 -23.327 -15.750  0.00  0.00    +0.176 C 
ATOM     16  C   UNL     1      29.053 -22.376 -15.008  0.00  0.00    +0.054 C 
ENDBRANCH   5  11
BRANCH   4  19
ATOM     17  O   UNL     1      38.788 -24.233 -15.056  0.00  0.00    -0.434 OA
ATOM     18  O   UNL     1      37.464 -22.397 -15.193  0.00  0.00    -0.226 OA
ATOM     19  N   UNL     1      36.561 -24.583 -15.153  0.00  0.00    -0.219 N 
ATOM     20  C   UNL     1      38.594 -25.629 -14.792  0.00  0.00    +0.210 C 
ATOM     21  C   UNL     1      37.159 -25.891 -15.196  0.00  0.00    +0.147 C 
ATOM     22  C   UNL     1      37.561 -23.614 -15.131  0.00  0.00    +0.409 C 
BRANCH  20  23
ATOM     23  C   UNL     1      38.858 -25.891 -13.315  0.00  0.00    +0.134 C 
BRANCH  23  25
ATOM     24  O   UNL     1      35.536 -25.464 -10.591  0.00  0.00    -0.349 OA
ATOM     25  N   UNL     1      38.393 -24.778 -12.528  0.00  0.00    -0.312 N 
ATOM     26  N   UNL     1      36.498 -25.892 -11.497  0.00  0.00    -0.062 NA
ATOM     27  C   UNL     1      37.285 -24.830 -11.694  0.00  0.00    +0.171 C 
ATOM     28  C   UNL     1      36.873 -23.715 -10.947  0.00  0.00    +0.081 C 
ATOM     29  C   UNL     1      35.770 -24.165 -10.270  0.00  0.00    +0.215 C 
ATOM     30  H   UNL     1      38.891 -23.930 -12.585  0.00  0.00    +0.148 HD
ENDBRANCH  23  25
ENDBRANCH  20  23
ENDBRANCH   4  19
TORSDOF 4
ENDMDL
MODEL 2
REMARK VINA RESULT:     -11.2      5.585      8.104
REMARK  Name = 25184541
REMARK  4 active torsions:
REMARK  status: ('A' for Active; 'I' for Inactive)
REMARK    1  A    between atoms: C_4  and  N_19
REMARK    2  A    between atoms: C_5  and  N_11
REMARK    3  A    between atoms: C_20  and  C_23
REMARK    4  A    between atoms: C_23  and  N_25
REMARK                            x       y       z     vdW  Elec       q    Type
REMARK                         _______ _______ _______ _____ _____    ______ ____
ROOT
ATOM      1  F   UNL     1      32.416 -21.748 -19.148  0.00  0.00    -0.200 F 
ATOM      2  F   UNL     1      32.470 -20.083 -21.293  0.00  0.00    -0.200 F 
ATOM      3  F   UNL     1      37.219 -20.104 -21.189  0.00  0.00    -0.203 F 
ATOM      4  C   UNL     1      34.789 -21.781 -19.067  0.00  0.00    +0.089 C 
ATOM      5  C   UNL     1      34.845 -20.071 -21.269  0.00  0.00    +0.110 C 
ATOM      6  C   UNL     1      33.596 -21.347 -19.643  0.00  0.00    +0.182 C 
ATOM      7  C   UNL     1      36.011 -21.359 -19.592  0.00  0.00    +0.048 C 
ATOM      8  C   UNL     1      33.624 -20.492 -20.745  0.00  0.00    +0.184 C 
ATOM      9  C   UNL     1      36.038 -20.504 -20.693  0.00  0.00    +0.157 C 
ENDROOT
BRANCH   5  11
ATOM     10  O   UNL     1      34.902 -16.637 -25.557  0.00  0.00    -0.291 OA
ATOM     11  N   UNL     1      34.874 -19.198 -22.389  0.00  0.00    -0.282 N 
ATOM     12  C   UNL     1      35.622 -17.936 -22.248  0.00  0.00    +0.104 C 
ATOM     13  C   UNL     1      35.051 -16.857 -23.167  0.00  0.00    +0.091 C 
ATOM     14  C   UNL     1      34.394 -19.551 -23.641  0.00  0.00    +0.068 C 
ATOM     15  C   UNL     1      34.812 -17.367 -24.573  0.00  0.00    +0.176 C 
ATOM     16  C   UNL     1      34.366 -18.770 -24.726  0.00  0.00    +0.054 C 
ENDBRANCH   5  11
BRANCH   4  19
ATOM     17  O   UNL     1      35.315 -23.726 -16.035  0.00  0.00    -0.434 OA
ATOM     18  O   UNL     1      36.766 -22.154 -16.785  0.00  0.00    -0.226 OA
ATOM     19  N   UNL     1      34.765 -22.655 -17.943  0.00  0.00    -0.219 N 
ATOM     20  C   UNL     1      33.967 -24.115 -16.334  0.00  0.00    +0.210 C 
ATOM     21  C   UNL     1      33.755 -23.664 -17.763  0.00  0.00    +0.147 C 
ATOM     22  C   UNL     1      35.712 -22.758 -16.928  0.00  0.00    +0.409 C 
BRANCH  20  23
ATOM     23  C   UNL     1      33.029 -23.434 -15.345  0.00  0.00    +0.134 C 
BRANCH  23  25
ATOM     24  O   UNL     1      29.177 -22.873 -17.213  0.00  0.00    -0.349 OA
ATOM     25  N   UNL     1      31.795 -24.172 -15.253  0.00  0.00    -0.312 N 
ATOM     26  N   UNL     1      30.493 -22.800 -16.775  0.00  0.00    -0.062 NA
ATOM     27  C   UNL     1      30.639 -23.834 -15.941  0.00  0.00    +0.171 C 
ATOM     28  C   UNL     1      29.460 -24.587 -15.815  0.00  0.00    +0.081 C 
ATOM     29  C   UNL     1      28.572 -23.943 -16.635  0.00  0.00    +0.215 C 
ATOM     30  H   UNL     1      31.771 -24.962 -14.665  0.00  0.00    +0.148 HD
ENDBRANCH  23  25
ENDBRANCH  20  23
ENDBRANCH   4  19
TORSDOF 4
ENDMDL
MODEL 3
REMARK VINA RESULT:     -11.0     15.681     18.010
REMARK  Name = 25184541
REMARK  4 active torsions:
REMARK  status: ('A' for Active; 'I' for Inactive)
REMARK    1  A    between atoms: C_4  and  N_19
REMARK    2  A    between atoms: C_5  and  N_11
REMARK    3  A    between atoms: C_20  and  C_23
REMARK    4  A    between atoms: C_23  and  N_25
REMARK                            x       y       z     vdW  Elec       q    Type
REMARK                         _______ _______ _______ _____ _____    ______ ____
ROOT
ATOM      1  F   UNL     1      33.896  -9.219 -24.056  0.00  0.00    -0.200 F 
ATOM      2  F   UNL     1      34.624 -11.710 -24.855  0.00  0.00    -0.200 F 
ATOM      3  F   UNL     1      31.730 -13.600 -21.597  0.00  0.00    -0.203 F 
ATOM      4  C   UNL     1      32.439 -10.130 -22.416  0.00  0.00    +0.089 C 
ATOM      5  C   UNL     1      33.188 -12.688 -23.236  0.00  0.00    +0.110 C 
ATOM      6  C   UNL     1      33.363 -10.289 -23.449  0.00  0.00    +0.182 C 
ATOM      7  C   UNL     1      31.889 -11.250 -21.794  0.00  0.00    +0.048 C 
ATOM      8  C   UNL     1      33.736 -11.569 -23.859  0.00  0.00    +0.184 C 
ATOM      9  C   UNL     1      32.264 -12.529 -22.203  0.00  0.00    +0.157 C 
ENDROOT
BRANCH   5  11
ATOM     10  O   UNL     1      34.754 -17.704 -24.840  0.00  0.00    -0.291 OA
ATOM     11  N   UNL     1      33.570 -13.991 -23.651  0.00  0.00    -0.282 N 
ATOM     12  C   UNL     1      34.242 -14.850 -22.660  0.00  0.00    +0.104 C 
ATOM     13  C   UNL     1      35.158 -15.863 -23.347  0.00  0.00    +0.091 C 
ATOM     14  C   UNL     1      33.187 -14.547 -24.863  0.00  0.00    +0.068 C 
ATOM     15  C   UNL     1      34.481 -16.551 -24.514  0.00  0.00    +0.176 C 
ATOM     16  C   UNL     1      33.534 -15.752 -25.325  0.00  0.00    +0.054 C 
ENDBRANCH   5  11
BRANCH   4  19
ATOM     17  O   UNL     1      31.672  -6.993 -20.735  0.00  0.00    -0.434 OA
ATOM     18  O   UNL     1      32.579  -8.790 -19.689  0.00  0.00    -0.226 OA
ATOM     19  N   UNL     1      32.054  -8.824 -21.996  0.00  0.00    -0.219 N 
ATOM     20  C   UNL     1      31.448  -6.593 -22.093  0.00  0.00    +0.210 C 
ATOM     21  C   UNL     1      31.376  -7.896 -22.861  0.00  0.00    +0.147 C 
ATOM     22  C   UNL     1      32.161  -8.279 -20.720  0.00  0.00    +0.409 C 
BRANCH  20  23
ATOM     23  C   UNL     1      32.597  -5.698 -22.539  0.00  0.00    +0.134 C 
BRANCH  23  25
ATOM     24  O   UNL     1      34.976  -5.396 -26.129  0.00  0.00    -0.349 OA
ATOM     25  N   UNL     1      32.315  -5.147 -23.840  0.00  0.00    -0.312 N 
ATOM     26  N   UNL     1      34.464  -5.630 -24.858  0.00  0.00    -0.062 NA
ATOM     27  C   UNL     1      33.221  -5.140 -24.889  0.00  0.00    +0.171 C 
ATOM     28  C   UNL     1      32.896  -4.590 -26.140  0.00  0.00    +0.081 C 
ATOM     29  C   UNL     1      34.032  -4.776 -26.884  0.00  0.00    +0.215 C 
ATOM     30  H   UNL     1      31.425  -4.751 -23.992  0.00  0.00    +0.148 HD
ENDBRANCH  23  25
ENDBRANCH  20  23
ENDBRANCH   4  19
TORSDOF 4
ENDMDL
MODEL 4
REMARK VINA RESULT:     -11.0     15.709     18.110
REMARK  Name = 25184541
REMARK  4 active torsions:
REMARK  status: ('A' for Active; 'I' for Inactive)
REMARK    1  A    between atoms: C_4  and  N_19
REMARK    2  A    between atoms: C_5  and  N_11
REMARK    3  A    between atoms: C_20  and  C_23
REMARK    4  A    between atoms: C_23  and  N_25
REMARK                            x       y       z     vdW  Elec       q    Type
REMARK                         _______ _______ _______ _____ _____    ______ ____
ROOT
ATOM      1  F   UNL     1      30.958 -10.951 -20.858  0.00  0.00    -0.200 F 
ATOM      2  F   UNL     1      31.661 -13.455 -21.640  0.00  0.00    -0.200 F 
ATOM      3  F   UNL     1      34.654 -11.615 -24.837  0.00  0.00    -0.203 F 
ATOM      4  C   UNL     1      32.445  -9.998 -22.445  0.00  0.00    +0.089 C 
ATOM      5  C   UNL     1      33.166 -12.569 -23.249  0.00  0.00    +0.110 C 
ATOM      6  C   UNL     1      31.863 -11.108 -21.834  0.00  0.00    +0.182 C 
ATOM      7  C   UNL     1      33.387 -10.173 -23.458  0.00  0.00    +0.048 C 
ATOM      8  C   UNL     1      32.225 -12.394 -22.236  0.00  0.00    +0.184 C 
ATOM      9  C   UNL     1      33.747 -11.458 -23.861  0.00  0.00    +0.157 C 
ENDROOT
BRANCH   5  11
ATOM     10  O   UNL     1      34.665 -17.609 -24.841  0.00  0.00    -0.291 OA
ATOM     11  N   UNL     1      33.531 -13.878 -23.661  0.00  0.00    -0.282 N 
ATOM     12  C   UNL     1      34.187 -14.745 -22.667  0.00  0.00    +0.104 C 
ATOM     13  C   UNL     1      35.091 -15.771 -23.349  0.00  0.00    +0.091 C 
ATOM     14  C   UNL     1      33.144 -14.430 -24.873  0.00  0.00    +0.068 C 
ATOM     15  C   UNL     1      34.408 -16.451 -24.517  0.00  0.00    +0.176 C 
ATOM     16  C   UNL     1      33.475 -15.641 -25.333  0.00  0.00    +0.054 C 
ENDBRANCH   5  11
BRANCH   4  19
ATOM     17  O   UNL     1      31.741  -6.829 -20.796  0.00  0.00    -0.434 OA
ATOM     18  O   UNL     1      32.662  -8.615 -19.744  0.00  0.00    -0.226 OA
ATOM     19  N   UNL     1      32.079  -8.683 -22.036  0.00  0.00    -0.219 N 
ATOM     20  C   UNL     1      31.484  -6.450 -22.154  0.00  0.00    +0.210 C 
ATOM     21  C   UNL     1      31.384  -7.765 -22.898  0.00  0.00    +0.147 C 
ATOM     22  C   UNL     1      32.222  -8.119 -20.772  0.00  0.00    +0.409 C 
BRANCH  20  23
ATOM     23  C   UNL     1      32.627  -5.569 -22.643  0.00  0.00    +0.134 C 
BRANCH  23  25
ATOM     24  O   UNL     1      34.994  -5.322 -26.245  0.00  0.00    -0.349 OA
ATOM     25  N   UNL     1      32.330  -5.067 -23.960  0.00  0.00    -0.312 N 
ATOM     26  N   UNL     1      34.490  -5.529 -24.967  0.00  0.00    -0.062 NA
ATOM     27  C   UNL     1      33.235  -5.070 -25.011  0.00  0.00    +0.171 C 
ATOM     28  C   UNL     1      32.896  -4.567 -26.278  0.00  0.00    +0.081 C 
ATOM     29  C   UNL     1      34.035  -4.749 -27.017  0.00  0.00    +0.215 C 
ATOM     30  H   UNL     1      31.431  -4.698 -24.124  0.00  0.00    +0.148 HD
ENDBRANCH  23  25
ENDBRANCH  20  23
ENDBRANCH   4  19
TORSDOF 4
ENDMDL
MODEL 5
REMARK VINA RESULT:     -10.6     16.133     18.511
REMARK  Name = 25184541
REMARK  4 active torsions:
REMARK  status: ('A' for Active; 'I' for Inactive)
REMARK    1  A    between atoms: C_4  and  N_19
REMARK    2  A    between atoms: C_5  and  N_11
REMARK    3  A    between atoms: C_20  and  C_23
REMARK    4  A    between atoms: C_23  and  N_25
REMARK                            x       y       z     vdW  Elec       q    Type
REMARK                         _______ _______ _______ _____ _____    ______ ____
ROOT
ATOM      1  F   UNL     1      33.961  -9.115 -24.113  0.00  0.00    -0.200 F 
ATOM      2  F   UNL     1      34.674 -11.628 -24.857  0.00  0.00    -0.200 F 
ATOM      3  F   UNL     1      31.671 -13.429 -21.648  0.00  0.00    -0.203 F 
ATOM      4  C   UNL     1      32.450  -9.981 -22.499  0.00  0.00    +0.089 C 
ATOM      5  C   UNL     1      33.183 -12.562 -23.262  0.00  0.00    +0.110 C 
ATOM      6  C   UNL     1      33.397 -10.169 -23.505  0.00  0.00    +0.182 C 
ATOM      7  C   UNL     1      31.868 -11.085 -21.875  0.00  0.00    +0.048 C 
ATOM      8  C   UNL     1      33.763 -11.459 -23.887  0.00  0.00    +0.184 C 
ATOM      9  C   UNL     1      32.235 -12.375 -22.256  0.00  0.00    +0.157 C 
ENDROOT
BRANCH   5  11
ATOM     10  O   UNL     1      34.719 -17.621 -24.755  0.00  0.00    -0.291 OA
ATOM     11  N   UNL     1      33.558 -13.876 -23.648  0.00  0.00    -0.282 N 
ATOM     12  C   UNL     1      34.230 -14.715 -22.640  0.00  0.00    +0.104 C 
ATOM     13  C   UNL     1      35.138 -15.747 -23.307  0.00  0.00    +0.091 C 
ATOM     14  C   UNL     1      33.167 -14.458 -24.845  0.00  0.00    +0.068 C 
ATOM     15  C   UNL     1      34.453 -16.459 -24.455  0.00  0.00    +0.176 C 
ATOM     16  C   UNL     1      33.506 -15.675 -25.281  0.00  0.00    +0.054 C 
ENDBRANCH   5  11
BRANCH   4  19
ATOM     17  O   UNL     1      31.787  -6.771 -20.915  0.00  0.00    -0.434 OA
ATOM     18  O   UNL     1      32.890  -8.470 -19.896  0.00  0.00    -0.226 OA
ATOM     19  N   UNL     1      32.073  -8.665 -22.108  0.00  0.00    -0.219 N 
ATOM     20  C   UNL     1      31.374  -6.464 -22.253  0.00  0.00    +0.210 C 
ATOM     21  C   UNL     1      31.253  -7.813 -22.928  0.00  0.00    +0.147 C 
ATOM     22  C   UNL     1      32.323  -8.038 -20.890  0.00  0.00    +0.409 C 
BRANCH  20  23
ATOM     23  C   UNL     1      32.420  -5.563 -22.897  0.00  0.00    +0.134 C 
BRANCH  23  25
ATOM     24  O   UNL     1      32.575  -3.438 -26.652  0.00  0.00    -0.349 OA
ATOM     25  N   UNL     1      31.807  -4.335 -23.337  0.00  0.00    -0.312 N 
ATOM     26  N   UNL     1      32.713  -4.322 -25.589  0.00  0.00    -0.062 NA
ATOM     27  C   UNL     1      31.976  -3.799 -24.605  0.00  0.00    +0.171 C 
ATOM     28  C   UNL     1      31.356  -2.597 -24.985  0.00  0.00    +0.081 C 
ATOM     29  C   UNL     1      31.764  -2.414 -26.280  0.00  0.00    +0.215 C 
ATOM     30  H   UNL     1      31.235  -3.849 -22.699  0.00  0.00    +0.148 HD
ENDBRANCH  23  25
ENDBRANCH  20  23
ENDBRANCH   4  19
TORSDOF 4
ENDMDL
MODEL 6
REMARK VINA RESULT:     -10.6     16.086     18.561
REMARK  Name = 25184541
REMARK  4 active torsions:
REMARK  status: ('A' for Active; 'I' for Inactive)
REMARK    1  A    between atoms: C_4  and  N_19
REMARK    2  A    between atoms: C_5  and  N_11
REMARK    3  A    between atoms: C_20  and  C_23
REMARK    4  A    between atoms: C_23  and  N_25
REMARK                            x       y       z     vdW  Elec       q    Type
REMARK                         _______ _______ _______ _____ _____    ______ ____
ROOT
ATOM      1  F   UNL     1      30.875 -10.771 -20.909  0.00  0.00    -0.200 F 
ATOM      2  F   UNL     1      31.612 -13.293 -21.598  0.00  0.00    -0.200 F 
ATOM      3  F   UNL     1      34.641 -11.532 -24.805  0.00  0.00    -0.203 F 
ATOM      4  C   UNL     1      32.380  -9.857 -22.503  0.00  0.00    +0.089 C 
ATOM      5  C   UNL     1      33.135 -12.447 -23.211  0.00  0.00    +0.110 C 
ATOM      6  C   UNL     1      31.798 -10.952 -21.865  0.00  0.00    +0.182 C 
ATOM      7  C   UNL     1      33.340 -10.057 -23.495  0.00  0.00    +0.048 C 
ATOM      8  C   UNL     1      32.176 -12.247 -22.219  0.00  0.00    +0.184 C 
ATOM      9  C   UNL     1      33.717 -11.351 -23.849  0.00  0.00    +0.157 C 
ENDROOT
BRANCH   5  11
ATOM     10  O   UNL     1      34.702 -17.522 -24.613  0.00  0.00    -0.291 OA
ATOM     11  N   UNL     1      33.518 -13.765 -23.574  0.00  0.00    -0.282 N 
ATOM     12  C   UNL     1      34.156 -14.597 -22.539  0.00  0.00    +0.104 C 
ATOM     13  C   UNL     1      35.081 -15.637 -23.168  0.00  0.00    +0.091 C 
ATOM     14  C   UNL     1      33.163 -14.356 -24.777  0.00  0.00    +0.068 C 
ATOM     15  C   UNL     1      34.430 -16.357 -24.331  0.00  0.00    +0.176 C 
ATOM     16  C   UNL     1      33.512 -15.578 -25.192  0.00  0.00    +0.054 C 
ENDBRANCH   5  11
BRANCH   4  19
ATOM     17  O   UNL     1      31.638  -6.638 -20.973  0.00  0.00    -0.434 OA
ATOM     18  O   UNL     1      32.593  -8.367 -19.859  0.00  0.00    -0.226 OA
ATOM     19  N   UNL     1      31.997  -8.533 -22.143  0.00  0.00    -0.219 N 
ATOM     20  C   UNL     1      31.368  -6.315 -22.344  0.00  0.00    +0.210 C 
ATOM     21  C   UNL     1      31.283  -7.659 -23.036  0.00  0.00    +0.147 C 
ATOM     22  C   UNL     1      32.139  -7.918 -20.903  0.00  0.00    +0.409 C 
BRANCH  20  23
ATOM     23  C   UNL     1      32.494  -5.437 -22.874  0.00  0.00    +0.134 C 
BRANCH  23  25
ATOM     24  O   UNL     1      30.126  -1.852 -23.291  0.00  0.00    -0.349 OA
ATOM     25  N   UNL     1      32.044  -4.707 -24.032  0.00  0.00    -0.312 N 
ATOM     26  N   UNL     1      30.846  -2.956 -22.853  0.00  0.00    -0.062 NA
ATOM     27  C   UNL     1      31.276  -3.554 -23.968  0.00  0.00    +0.171 C 
ATOM     28  C   UNL     1      30.862  -2.879 -25.128  0.00  0.00    +0.081 C 
ATOM     29  C   UNL     1      30.143  -1.817 -24.649  0.00  0.00    +0.215 C 
ATOM     30  H   UNL     1      32.295  -5.049 -24.921  0.00  0.00    +0.148 HD
ENDBRANCH  23  25
ENDBRANCH  20  23
ENDBRANCH   4  19
TORSDOF 4
ENDMDL
MODEL 7
REMARK VINA RESULT:     -10.5      5.830      8.979
REMARK  Name = 25184541
REMARK  4 active torsions:
REMARK  status: ('A' for Active; 'I' for Inactive)
REMARK    1  A    between atoms: C_4  and  N_19
REMARK    2  A    between atoms: C_5  and  N_11
REMARK    3  A    between atoms: C_20  and  C_23
REMARK    4  A    between atoms: C_23  and  N_25
REMARK                            x       y       z     vdW  Elec       q    Type
REMARK                         _______ _______ _______ _____ _____    ______ ____
ROOT
ATOM      1  F   UNL     1      37.378 -21.219 -18.410  0.00  0.00    -0.200 F 
ATOM      2  F   UNL     1      37.931 -22.609 -16.143  0.00  0.00    -0.200 F 
ATOM      3  F   UNL     1      33.516 -24.361 -16.142  0.00  0.00    -0.203 F 
ATOM      4  C   UNL     1      35.164 -22.077 -18.440  0.00  0.00    +0.089 C 
ATOM      5  C   UNL     1      35.731 -23.503 -16.111  0.00  0.00    +0.110 C 
ATOM      6  C   UNL     1      36.428 -21.987 -17.858  0.00  0.00    +0.182 C 
ATOM      7  C   UNL     1      34.183 -22.880 -17.858  0.00  0.00    +0.048 C 
ATOM      8  C   UNL     1      36.711 -22.701 -16.693  0.00  0.00    +0.184 C 
ATOM      9  C   UNL     1      34.467 -23.593 -16.694  0.00  0.00    +0.157 C 
ENDROOT
BRANCH   5  11
ATOM     10  O   UNL     1      36.893 -26.236 -11.490  0.00  0.00    -0.291 OA
ATOM     11  N   UNL     1      36.018 -24.227 -14.924  0.00  0.00    -0.282 N 
ATOM     12  C   UNL     1      35.413 -23.744 -13.671  0.00  0.00    +0.104 C 
ATOM     13  C   UNL     1      36.271 -24.128 -12.466  0.00  0.00    +0.091 C 
ATOM     14  C   UNL     1      36.680 -25.446 -14.918  0.00  0.00    +0.068 C 
ATOM     15  C   UNL     1      36.709 -25.578 -12.511  0.00  0.00    +0.176 C 
ATOM     16  C   UNL     1      37.005 -26.163 -13.838  0.00  0.00    +0.054 C 
ENDBRANCH   5  11
BRANCH   4  19
ATOM     17  O   UNL     1      33.773 -20.283 -21.287  0.00  0.00    -0.434 OA
ATOM     18  O   UNL     1      32.512 -21.169 -19.623  0.00  0.00    -0.226 OA
ATOM     19  N   UNL     1      34.871 -21.351 -19.630  0.00  0.00    -0.219 N 
ATOM     20  C   UNL     1      35.166 -20.013 -21.496  0.00  0.00    +0.210 C 
ATOM     21  C   UNL     1      35.878 -21.001 -20.596  0.00  0.00    +0.147 C 
ATOM     22  C   UNL     1      33.620 -20.963 -20.100  0.00  0.00    +0.409 C 
BRANCH  20  23
ATOM     23  C   UNL     1      35.445 -18.561 -21.131  0.00  0.00    +0.134 C 
BRANCH  23  25
ATOM     24  O   UNL     1      34.548 -14.354 -21.503  0.00  0.00    -0.349 OA
ATOM     25  N   UNL     1      35.234 -17.717 -22.280  0.00  0.00    -0.312 N 
ATOM     26  N   UNL     1      34.833 -15.646 -21.079  0.00  0.00    -0.062 NA
ATOM     27  C   UNL     1      34.950 -16.362 -22.201  0.00  0.00    +0.171 C 
ATOM     28  C   UNL     1      34.752 -15.583 -23.353  0.00  0.00    +0.081 C 
ATOM     29  C   UNL     1      34.503 -14.329 -22.860  0.00  0.00    +0.215 C 
ATOM     30  H   UNL     1      35.293 -18.128 -23.173  0.00  0.00    +0.148 HD
ENDBRANCH  23  25
ENDBRANCH  20  23
ENDBRANCH   4  19
TORSDOF 4
ENDMDL
MODEL 8
REMARK VINA RESULT:     -10.2      5.814      8.981
REMARK  Name = 25184541
REMARK  4 active torsions:
REMARK  status: ('A' for Active; 'I' for Inactive)
REMARK    1  A    between atoms: C_4  and  N_19
REMARK    2  A    between atoms: C_5  and  N_11
REMARK    3  A    between atoms: C_20  and  C_23
REMARK    4  A    between atoms: C_23  and  N_25
REMARK                            x       y       z     vdW  Elec       q    Type
REMARK                         _______ _______ _______ _____ _____    ______ ____
ROOT
ATOM      1  F   UNL     1      33.172 -22.973 -18.431  0.00  0.00    -0.200 F 
ATOM      2  F   UNL     1      33.722 -24.327 -16.141  0.00  0.00    -0.200 F 
ATOM      3  F   UNL     1      38.098 -22.479 -16.101  0.00  0.00    -0.203 F 
ATOM      4  C   UNL     1      35.352 -22.031 -18.441  0.00  0.00    +0.089 C 
ATOM      5  C   UNL     1      35.917 -23.422 -16.091  0.00  0.00    +0.110 C 
ATOM      6  C   UNL     1      34.381 -22.850 -17.864  0.00  0.00    +0.182 C 
ATOM      7  C   UNL     1      36.606 -21.908 -17.842  0.00  0.00    +0.048 C 
ATOM      8  C   UNL     1      34.664 -23.545 -16.688  0.00  0.00    +0.184 C 
ATOM      9  C   UNL     1      36.888 -22.604 -16.668  0.00  0.00    +0.157 C 
ENDROOT
BRANCH   5  11
ATOM     10  O   UNL     1      36.992 -26.240 -11.499  0.00  0.00    -0.291 OA
ATOM     11  N   UNL     1      36.206 -24.133 -14.896  0.00  0.00    -0.282 N 
ATOM     12  C   UNL     1      37.180 -25.235 -14.979  0.00  0.00    +0.104 C 
ATOM     13  C   UNL     1      36.910 -26.285 -13.902  0.00  0.00    +0.091 C 
ATOM     14  C   UNL     1      35.763 -23.730 -13.645  0.00  0.00    +0.068 C 
ATOM     15  C   UNL     1      36.681 -25.664 -12.539  0.00  0.00    +0.176 C 
ATOM     16  C   UNL     1      35.975 -24.364 -12.488  0.00  0.00    +0.054 C 
ENDBRANCH   5  11
BRANCH   4  19
ATOM     17  O   UNL     1      33.978 -20.265 -21.313  0.00  0.00    -0.434 OA
ATOM     18  O   UNL     1      32.709 -21.114 -19.636  0.00  0.00    -0.226 OA
ATOM     19  N   UNL     1      35.066 -21.319 -19.641  0.00  0.00    -0.219 N 
ATOM     20  C   UNL     1      35.373 -20.012 -21.526  0.00  0.00    +0.210 C 
ATOM     21  C   UNL     1      36.076 -20.994 -20.613  0.00  0.00    +0.147 C 
ATOM     22  C   UNL     1      33.819 -20.925 -20.116  0.00  0.00    +0.409 C 
BRANCH  20  23
ATOM     23  C   UNL     1      35.668 -18.558 -21.183  0.00  0.00    +0.134 C 
BRANCH  23  25
ATOM     24  O   UNL     1      34.523 -14.407 -21.499  0.00  0.00    -0.349 OA
ATOM     25  N   UNL     1      35.387 -17.718 -22.319  0.00  0.00    -0.312 N 
ATOM     26  N   UNL     1      34.890 -15.684 -21.092  0.00  0.00    -0.062 NA
ATOM     27  C   UNL     1      35.027 -16.382 -22.223  0.00  0.00    +0.171 C 
ATOM     28  C   UNL     1      34.762 -15.606 -23.364  0.00  0.00    +0.081 C 
ATOM     29  C   UNL     1      34.450 -14.373 -22.855  0.00  0.00    +0.215 C 
ATOM     30  H   UNL     1      35.452 -18.118 -23.218  0.00  0.00    +0.148 HD
ENDBRANCH  23  25
ENDBRANCH  20  23
ENDBRANCH   4  19
TORSDOF 4
ENDMDL
MODEL 9
REMARK VINA RESULT:     -10.1     15.877     18.279
REMARK  Name = 25184541
REMARK  4 active torsions:
REMARK  status: ('A' for Active; 'I' for Inactive)
REMARK    1  A    between atoms: C_4  and  N_19
REMARK    2  A    between atoms: C_5  and  N_11
REMARK    3  A    between atoms: C_20  and  C_23
REMARK    4  A    between atoms: C_23  and  N_25
REMARK                            x       y       z     vdW  Elec       q    Type
REMARK                         _______ _______ _______ _____ _____    ______ ____
ROOT
ATOM      1  F   UNL     1      32.024 -11.097 -21.227  0.00  0.00    -0.200 F 
ATOM      2  F   UNL     1      32.453 -13.693 -21.901  0.00  0.00    -0.200 F 
ATOM      3  F   UNL     1      34.476 -12.303 -25.967  0.00  0.00    -0.203 F 
ATOM      4  C   UNL     1      33.030 -10.367 -23.251  0.00  0.00    +0.089 C 
ATOM      5  C   UNL     1      33.469 -13.033 -23.943  0.00  0.00    +0.110 C 
ATOM      6  C   UNL     1      32.624 -11.387 -22.391  0.00  0.00    +0.182 C 
ATOM      7  C   UNL     1      33.655 -10.681 -24.458  0.00  0.00    +0.048 C 
ATOM      8  C   UNL     1      32.845 -12.721 -22.737  0.00  0.00    +0.184 C 
ATOM      9  C   UNL     1      33.874 -12.013 -24.804  0.00  0.00    +0.157 C 
ENDROOT
BRANCH   5  11
ATOM     10  O   UNL     1      34.412 -18.267 -25.321  0.00  0.00    -0.291 OA
ATOM     11  N   UNL     1      33.690 -14.390 -24.297  0.00  0.00    -0.282 N 
ATOM     12  C   UNL     1      34.359 -15.251 -23.306  0.00  0.00    +0.104 C 
ATOM     13  C   UNL     1      35.114 -16.389 -23.992  0.00  0.00    +0.091 C 
ATOM     14  C   UNL     1      33.155 -14.977 -25.435  0.00  0.00    +0.068 C 
ATOM     15  C   UNL     1      34.279 -17.075 -25.053  0.00  0.00    +0.176 C 
ATOM     16  C   UNL     1      33.346 -16.236 -25.840  0.00  0.00    +0.054 C 
ENDBRANCH   5  11
BRANCH   4  19
ATOM     17  O   UNL     1      33.122  -6.812 -22.471  0.00  0.00    -0.434 OA
ATOM     18  O   UNL     1      34.943  -8.007 -23.102  0.00  0.00    -0.226 OA
ATOM     19  N   UNL     1      32.808  -9.005 -22.900  0.00  0.00    -0.219 N 
ATOM     20  C   UNL     1      31.703  -7.019 -22.464  0.00  0.00    +0.210 C 
ATOM     21  C   UNL     1      31.543  -8.523 -22.412  0.00  0.00    +0.147 C 
ATOM     22  C   UNL     1      33.743  -7.975 -22.866  0.00  0.00    +0.409 C 
BRANCH  20  23
ATOM     23  C   UNL     1      31.109  -6.396 -23.720  0.00  0.00    +0.134 C 
BRANCH  23  25
ATOM     24  O   UNL     1      30.097  -2.464 -22.254  0.00  0.00    -0.349 OA
ATOM     25  N   UNL     1      31.695  -5.100 -23.950  0.00  0.00    -0.312 N 
ATOM     26  N   UNL     1      30.180  -3.818 -22.553  0.00  0.00    -0.062 NA
ATOM     27  C   UNL     1      31.223  -3.926 -23.381  0.00  0.00    +0.171 C 
ATOM     28  C   UNL     1      31.831  -2.687 -23.638  0.00  0.00    +0.081 C 
ATOM     29  C   UNL     1      31.086  -1.800 -22.906  0.00  0.00    +0.215 C 
ATOM     30  H   UNL     1      32.477  -5.044 -24.548  0.00  0.00    +0.148 HD
ENDBRANCH  23  25
ENDBRANCH  20  23
ENDBRANCH   4  19
TORSDOF 4
ENDMDL
