MODEL 1
REMARK VINA RESULT:     -12.2      0.000      0.000
REMARK  Name = 24779676
REMARK  4 active torsions:
REMARK  status: ('A' for Active; 'I' for Inactive)
REMARK    1  A    between atoms: N_2  and  C_22
REMARK    2  A    between atoms: N_3  and  C_14
REMARK    3  A    between atoms: C_10  and  C_21
REMARK    4  A    between atoms: C_22  and  C_24
REMARK                            x       y       z     vdW  Elec       q    Type
REMARK                         _______ _______ _______ _____ _____    ______ ____
ROOT
ATOM      1  N   UNL     1      32.430 -24.380 -14.197  0.00  0.00    -0.123 N 
ATOM      2  N   UNL     1      34.299 -23.143 -17.513  0.00  0.00    -0.254 N 
ATOM      3  N   UNL     1      34.464 -24.622 -13.023  0.00  0.00    -0.274 N 
ATOM      4  N   UNL     1      34.388 -23.881 -15.272  0.00  0.00    -0.295 NA
ATOM      5  N   UNL     1      32.311 -23.649 -16.429  0.00  0.00    -0.314 NA
ATOM      6  N   UNL     1      31.699 -24.783 -13.143  0.00  0.00    -0.170 NA
ATOM      7  C   UNL     1      33.812 -24.286 -14.177  0.00  0.00    +0.279 C 
ATOM      8  C   UNL     1      31.693 -24.068 -15.303  0.00  0.00    +0.219 C 
ATOM      9  C   UNL     1      33.622 -23.566 -16.393  0.00  0.00    +0.203 C 
ATOM     10  C   UNL     1      30.382 -24.284 -14.944  0.00  0.00    +0.203 C 
ATOM     11  C   UNL     1      30.447 -24.722 -13.606  0.00  0.00    +0.116 C 
ATOM     12  H   UNL     1      35.281 -23.082 -17.483  0.00  0.00    +0.161 HD
ATOM     13  H   UNL     1      33.901 -24.913 -12.268  0.00  0.00    +0.156 HD
ENDROOT
BRANCH   3  14
ATOM     14  C   UNL     1      35.842 -24.599 -12.799  0.00  0.00    +0.051 C 
ATOM     15  C   UNL     1      36.411 -23.560 -12.063  0.00  0.00    +0.015 C 
ATOM     16  C   UNL     1      36.649 -25.614 -13.313  0.00  0.00    +0.015 C 
ATOM     17  C   UNL     1      37.788 -23.537 -11.839  0.00  0.00    +0.001 C 
ATOM     18  C   UNL     1      38.025 -25.591 -13.089  0.00  0.00    +0.001 C 
ATOM     19  C   UNL     1      38.595 -24.552 -12.352  0.00  0.00    +0.000 C 
ENDBRANCH   3  14
BRANCH  10  21
ATOM     20  N   UNL     1      28.297 -23.946 -16.428  0.00  0.00    -0.195 NA
ATOM     21  C   UNL     1      29.235 -24.098 -15.760  0.00  0.00    +0.087 C 
ENDBRANCH  10  21
BRANCH   2  22
ATOM     22  C   UNL     1      33.623 -22.791 -18.722  0.00  0.00    +0.125 C 
BRANCH  22  24
ATOM     23 CL   UNL     1      36.808 -18.739 -21.821  0.00  0.00    -0.082 Cl
ATOM     24  C   UNL     1      34.419 -21.778 -19.495  0.00  0.00    -0.002 C 
ATOM     25  C   UNL     1      35.808 -21.735 -19.367  0.00  0.00    -0.002 C 
ATOM     26  C   UNL     1      33.769 -20.881 -20.344  0.00  0.00    -0.002 C 
ATOM     27  C   UNL     1      36.546 -20.795 -20.086  0.00  0.00    +0.011 C 
ATOM     28  C   UNL     1      34.508 -19.941 -21.063  0.00  0.00    +0.011 C 
ATOM     29  C   UNL     1      35.896 -19.899 -20.934  0.00  0.00    +0.058 C 
ENDBRANCH  22  24
ENDBRANCH   2  22
TORSDOF 4
ENDMDL
MODEL 2
REMARK VINA RESULT:     -11.2      1.498      5.531
REMARK  Name = 24779676
REMARK  4 active torsions:
REMARK  status: ('A' for Active; 'I' for Inactive)
REMARK    1  A    between atoms: N_2  and  C_22
REMARK    2  A    between atoms: N_3  and  C_14
REMARK    3  A    between atoms: C_10  and  C_21
REMARK    4  A    between atoms: C_22  and  C_24
REMARK                            x       y       z     vdW  Elec       q    Type
REMARK                         _______ _______ _______ _____ _____    ______ ____
ROOT
ATOM      1  N   UNL     1      33.745 -23.998 -14.541  0.00  0.00    -0.123 N 
ATOM      2  N   UNL     1      34.238 -22.716 -18.301  0.00  0.00    -0.254 N 
ATOM      3  N   UNL     1      31.392 -23.970 -14.736  0.00  0.00    -0.274 N 
ATOM      4  N   UNL     1      32.812 -23.341 -16.525  0.00  0.00    -0.295 NA
ATOM      5  N   UNL     1      35.190 -23.380 -16.291  0.00  0.00    -0.314 NA
ATOM      6  N   UNL     1      33.699 -24.430 -13.269  0.00  0.00    -0.170 NA
ATOM      7  C   UNL     1      32.616 -23.757 -15.308  0.00  0.00    +0.279 C 
ATOM      8  C   UNL     1      35.008 -23.813 -15.024  0.00  0.00    +0.219 C 
ATOM      9  C   UNL     1      34.108 -23.156 -17.005  0.00  0.00    +0.203 C 
ATOM     10  C   UNL     1      35.851 -24.148 -13.989  0.00  0.00    +0.203 C 
ATOM     11  C   UNL     1      34.990 -24.520 -12.936  0.00  0.00    +0.116 C 
ATOM     12  H   UNL     1      33.426 -22.550 -18.832  0.00  0.00    +0.161 HD
ATOM     13  H   UNL     1      31.391 -24.287 -13.803  0.00  0.00    +0.156 HD
ENDROOT
BRANCH   3  14
ATOM     14  C   UNL     1      30.144 -23.786 -15.332  0.00  0.00    +0.051 C 
ATOM     15  C   UNL     1      29.608 -24.781 -16.151  0.00  0.00    +0.015 C 
ATOM     16  C   UNL     1      29.432 -22.607 -15.110  0.00  0.00    +0.015 C 
ATOM     17  C   UNL     1      28.360 -24.596 -16.746  0.00  0.00    +0.001 C 
ATOM     18  C   UNL     1      28.183 -22.423 -15.705  0.00  0.00    +0.001 C 
ATOM     19  C   UNL     1      27.648 -23.418 -16.523  0.00  0.00    +0.000 C 
ENDBRANCH   3  14
BRANCH  10  21
ATOM     20  N   UNL     1      38.431 -24.095 -14.015  0.00  0.00    -0.195 NA
ATOM     21  C   UNL     1      37.271 -24.119 -14.004  0.00  0.00    +0.087 C 
ENDBRANCH  10  21
BRANCH   2  22
ATOM     22  C   UNL     1      35.514 -22.492 -18.902  0.00  0.00    +0.125 C 
BRANCH  22  24
ATOM     23 CL   UNL     1      35.287 -17.777 -22.630  0.00  0.00    -0.082 Cl
ATOM     24  C   UNL     1      35.458 -21.313 -19.833  0.00  0.00    -0.002 C 
ATOM     25  C   UNL     1      36.620 -20.600 -20.129  0.00  0.00    -0.002 C 
ATOM     26  C   UNL     1      34.242 -20.932 -20.404  0.00  0.00    -0.002 C 
ATOM     27  C   UNL     1      36.567 -19.507 -20.993  0.00  0.00    +0.011 C 
ATOM     28  C   UNL     1      34.190 -19.839 -21.268  0.00  0.00    +0.011 C 
ATOM     29  C   UNL     1      35.352 -19.126 -21.563  0.00  0.00    +0.058 C 
ENDBRANCH  22  24
ENDBRANCH   2  22
TORSDOF 4
ENDMDL
MODEL 3
REMARK VINA RESULT:     -11.1      1.541      5.502
REMARK  Name = 24779676
REMARK  4 active torsions:
REMARK  status: ('A' for Active; 'I' for Inactive)
REMARK    1  A    between atoms: N_2  and  C_22
REMARK    2  A    between atoms: N_3  and  C_14
REMARK    3  A    between atoms: C_10  and  C_21
REMARK    4  A    between atoms: C_22  and  C_24
REMARK                            x       y       z     vdW  Elec       q    Type
REMARK                         _______ _______ _______ _____ _____    ______ ____
ROOT
ATOM      1  N   UNL     1      33.990 -24.105 -14.684  0.00  0.00    -0.123 N 
ATOM      2  N   UNL     1      34.336 -22.645 -18.395  0.00  0.00    -0.254 N 
ATOM      3  N   UNL     1      31.631 -24.051 -14.777  0.00  0.00    -0.274 N 
ATOM      4  N   UNL     1      32.981 -23.345 -16.593  0.00  0.00    -0.295 NA
ATOM      5  N   UNL     1      35.365 -23.413 -16.462  0.00  0.00    -0.314 NA
ATOM      6  N   UNL     1      33.993 -24.599 -13.433  0.00  0.00    -0.170 NA
ATOM      7  C   UNL     1      32.832 -23.819 -15.390  0.00  0.00    +0.279 C 
ATOM      8  C   UNL     1      35.233 -23.906 -15.211  0.00  0.00    +0.219 C 
ATOM      9  C   UNL     1      34.257 -23.146 -17.117  0.00  0.00    +0.203 C 
ATOM     10  C   UNL     1      36.115 -24.297 -14.229  0.00  0.00    +0.203 C 
ATOM     11  C   UNL     1      35.296 -24.714 -13.160  0.00  0.00    +0.116 C 
ATOM     12  H   UNL     1      33.504 -22.446 -18.882  0.00  0.00    +0.161 HD
ATOM     13  H   UNL     1      31.666 -24.413 -13.862  0.00  0.00    +0.156 HD
ENDROOT
BRANCH   3  14
ATOM     14  C   UNL     1      30.360 -23.829 -15.311  0.00  0.00    +0.051 C 
ATOM     15  C   UNL     1      29.674 -22.652 -15.012  0.00  0.00    +0.015 C 
ATOM     16  C   UNL     1      29.777 -24.786 -16.142  0.00  0.00    +0.015 C 
ATOM     17  C   UNL     1      28.404 -22.431 -15.546  0.00  0.00    +0.001 C 
ATOM     18  C   UNL     1      28.507 -24.564 -16.676  0.00  0.00    +0.001 C 
ATOM     19  C   UNL     1      27.821 -23.386 -16.378  0.00  0.00    +0.000 C 
ENDBRANCH   3  14
BRANCH  10  21
ATOM     20  N   UNL     1      38.693 -24.261 -14.363  0.00  0.00    -0.195 NA
ATOM     21  C   UNL     1      37.533 -24.277 -14.303  0.00  0.00    +0.087 C 
ENDBRANCH  10  21
BRANCH   2  22
ATOM     22  C   UNL     1      35.588 -22.400 -19.038  0.00  0.00    +0.125 C 
BRANCH  22  24
ATOM     23 CL   UNL     1      35.195 -17.619 -22.666  0.00  0.00    -0.082 Cl
ATOM     24  C   UNL     1      35.490 -21.206 -19.945  0.00  0.00    -0.002 C 
ATOM     25  C   UNL     1      34.262 -20.856 -20.510  0.00  0.00    -0.002 C 
ATOM     26  C   UNL     1      36.626 -20.444 -20.222  0.00  0.00    -0.002 C 
ATOM     27  C   UNL     1      34.172 -19.747 -21.351  0.00  0.00    +0.011 C 
ATOM     28  C   UNL     1      36.535 -19.335 -21.063  0.00  0.00    +0.011 C 
ATOM     29  C   UNL     1      35.308 -18.987 -21.627  0.00  0.00    +0.058 C 
ENDBRANCH  22  24
ENDBRANCH   2  22
TORSDOF 4
ENDMDL
MODEL 4
REMARK VINA RESULT:     -10.6      1.958      5.390
REMARK  Name = 24779676
REMARK  4 active torsions:
REMARK  status: ('A' for Active; 'I' for Inactive)
REMARK    1  A    between atoms: N_2  and  C_22
REMARK    2  A    between atoms: N_3  and  C_14
REMARK    3  A    between atoms: C_10  and  C_21
REMARK    4  A    between atoms: C_22  and  C_24
REMARK                            x       y       z     vdW  Elec       q    Type
REMARK                         _______ _______ _______ _____ _____    ______ ____
ROOT
ATOM      1  N   UNL     1      36.021 -24.846 -14.322  0.00  0.00    -0.123 N 
ATOM      2  N   UNL     1      35.685 -22.433 -17.498  0.00  0.00    -0.254 N 
ATOM      3  N   UNL     1      33.691 -24.833 -13.942  0.00  0.00    -0.274 N 
ATOM      4  N   UNL     1      34.684 -23.628 -15.725  0.00  0.00    -0.295 NA
ATOM      5  N   UNL     1      37.047 -23.664 -16.078  0.00  0.00    -0.314 NA
ATOM      6  N   UNL     1      36.252 -25.658 -13.275  0.00  0.00    -0.170 NA
ATOM      7  C   UNL     1      34.757 -24.413 -14.689  0.00  0.00    +0.279 C 
ATOM      8  C   UNL     1      37.145 -24.479 -15.004  0.00  0.00    +0.219 C 
ATOM      9  C   UNL     1      35.840 -23.261 -16.412  0.00  0.00    +0.203 C 
ATOM     10  C   UNL     1      38.189 -25.096 -14.353  0.00  0.00    +0.203 C 
ATOM     11  C   UNL     1      37.580 -25.807 -13.299  0.00  0.00    +0.116 C 
ATOM     12  H   UNL     1      34.780 -22.133 -17.744  0.00  0.00    +0.161 HD
ATOM     13  H   UNL     1      33.892 -25.427 -13.182  0.00  0.00    +0.156 HD
ENDROOT
BRANCH   3  14
ATOM     14  C   UNL     1      32.347 -24.511 -14.142  0.00  0.00    +0.051 C 
ATOM     15  C   UNL     1      31.974 -23.186 -14.365  0.00  0.00    +0.015 C 
ATOM     16  C   UNL     1      31.379 -25.514 -14.116  0.00  0.00    +0.015 C 
ATOM     17  C   UNL     1      30.631 -22.864 -14.565  0.00  0.00    +0.001 C 
ATOM     18  C   UNL     1      30.036 -25.193 -14.317  0.00  0.00    +0.001 C 
ATOM     19  C   UNL     1      29.663 -23.868 -14.541  0.00  0.00    +0.000 C 
ENDBRANCH   3  14
BRANCH  10  21
ATOM     20  N   UNL     1      40.692 -24.954 -14.965  0.00  0.00    -0.195 NA
ATOM     21  C   UNL     1      39.566 -25.018 -14.690  0.00  0.00    +0.087 C 
ENDBRANCH  10  21
BRANCH   2  22
ATOM     22  C   UNL     1      36.796 -21.990 -18.280  0.00  0.00    +0.125 C 
BRANCH  22  24
ATOM     23 CL   UNL     1      34.920 -18.580 -22.865  0.00  0.00    -0.082 Cl
ATOM     24  C   UNL     1      36.327 -21.137 -19.425  0.00  0.00    -0.002 C 
ATOM     25  C   UNL     1      37.204 -20.235 -20.029  0.00  0.00    -0.002 C 
ATOM     26  C   UNL     1      35.015 -21.248 -19.886  0.00  0.00    -0.002 C 
ATOM     27  C   UNL     1      36.768 -19.444 -21.092  0.00  0.00    +0.011 C 
ATOM     28  C   UNL     1      34.580 -20.457 -20.950  0.00  0.00    +0.011 C 
ATOM     29  C   UNL     1      35.457 -19.556 -21.552  0.00  0.00    +0.058 C 
ENDBRANCH  22  24
ENDBRANCH   2  22
TORSDOF 4
ENDMDL
MODEL 5
REMARK VINA RESULT:     -10.0      2.642      6.818
REMARK  Name = 24779676
REMARK  4 active torsions:
REMARK  status: ('A' for Active; 'I' for Inactive)
REMARK    1  A    between atoms: N_2  and  C_22
REMARK    2  A    between atoms: N_3  and  C_14
REMARK    3  A    between atoms: C_10  and  C_21
REMARK    4  A    between atoms: C_22  and  C_24
REMARK                            x       y       z     vdW  Elec       q    Type
REMARK                         _______ _______ _______ _____ _____    ______ ____
ROOT
ATOM      1  N   UNL     1      31.613 -23.150 -16.890  0.00  0.00    -0.123 N 
ATOM      2  N   UNL     1      35.243 -23.946 -15.403  0.00  0.00    -0.254 N 
ATOM      3  N   UNL     1      32.516 -22.005 -18.747  0.00  0.00    -0.274 N 
ATOM      4  N   UNL     1      33.888 -22.975 -17.075  0.00  0.00    -0.295 NA
ATOM      5  N   UNL     1      32.938 -24.126 -15.209  0.00  0.00    -0.314 NA
ATOM      6  N   UNL     1      30.348 -22.942 -17.296  0.00  0.00    -0.170 NA
ATOM      7  C   UNL     1      32.723 -22.700 -17.587  0.00  0.00    +0.279 C 
ATOM      8  C   UNL     1      31.719 -23.850 -15.723  0.00  0.00    +0.219 C 
ATOM      9  C   UNL     1      33.980 -23.691 -15.883  0.00  0.00    +0.203 C 
ATOM     10  C   UNL     1      30.425 -24.118 -15.337  0.00  0.00    +0.203 C 
ATOM     11  C   UNL     1      29.626 -23.536 -16.341  0.00  0.00    +0.116 C 
ATOM     12  H   UNL     1      36.021 -23.619 -15.910  0.00  0.00    +0.161 HD
ATOM     13  H   UNL     1      31.580 -21.869 -19.018  0.00  0.00    +0.156 HD
ENDROOT
BRANCH   3  14
ATOM     14  C   UNL     1      33.492 -21.468 -19.588  0.00  0.00    +0.051 C 
ATOM     15  C   UNL     1      33.135 -20.540 -20.567  0.00  0.00    +0.015 C 
ATOM     16  C   UNL     1      34.824 -21.860 -19.451  0.00  0.00    +0.015 C 
ATOM     17  C   UNL     1      34.111 -20.003 -21.407  0.00  0.00    +0.001 C 
ATOM     18  C   UNL     1      35.800 -21.322 -20.291  0.00  0.00    +0.001 C 
ATOM     19  C   UNL     1      35.443 -20.394 -21.269  0.00  0.00    +0.000 C 
ENDBRANCH   3  14
BRANCH  10  21
ATOM     20  N   UNL     1      29.677 -25.407 -13.229  0.00  0.00    -0.195 NA
ATOM     21  C   UNL     1      30.013 -24.827 -14.177  0.00  0.00    +0.087 C 
ENDBRANCH  10  21
BRANCH   2  22
ATOM     22  C   UNL     1      35.463 -24.671 -14.192  0.00  0.00    +0.125 C 
BRANCH  22  24
ATOM     23 CL   UNL     1      41.090 -26.788 -13.998  0.00  0.00    -0.082 Cl
ATOM     24  C   UNL     1      36.869 -25.201 -14.143  0.00  0.00    -0.002 C 
ATOM     25  C   UNL     1      37.267 -26.207 -15.024  0.00  0.00    -0.002 C 
ATOM     26  C   UNL     1      37.778 -24.684 -13.218  0.00  0.00    -0.002 C 
ATOM     27  C   UNL     1      38.572 -26.698 -14.978  0.00  0.00    +0.011 C 
ATOM     28  C   UNL     1      39.082 -25.175 -13.173  0.00  0.00    +0.011 C 
ATOM     29  C   UNL     1      39.479 -26.182 -14.054  0.00  0.00    +0.058 C 
ENDBRANCH  22  24
ENDBRANCH   2  22
TORSDOF 4
ENDMDL
MODEL 6
REMARK VINA RESULT:      -9.3      3.051      7.494
REMARK  Name = 24779676
REMARK  4 active torsions:
REMARK  status: ('A' for Active; 'I' for Inactive)
REMARK    1  A    between atoms: N_2  and  C_22
REMARK    2  A    between atoms: N_3  and  C_14
REMARK    3  A    between atoms: C_10  and  C_21
REMARK    4  A    between atoms: C_22  and  C_24
REMARK                            x       y       z     vdW  Elec       q    Type
REMARK                         _______ _______ _______ _____ _____    ______ ____
ROOT
ATOM      1  N   UNL     1      36.592 -23.123 -16.322  0.00  0.00    -0.123 N 
ATOM      2  N   UNL     1      32.623 -23.504 -16.673  0.00  0.00    -0.254 N 
ATOM      3  N   UNL     1      36.733 -21.777 -18.256  0.00  0.00    -0.274 N 
ATOM      4  N   UNL     1      34.671 -22.639 -17.468  0.00  0.00    -0.295 NA
ATOM      5  N   UNL     1      34.567 -23.999 -15.507  0.00  0.00    -0.314 NA
ATOM      6  N   UNL     1      37.918 -23.063 -16.105  0.00  0.00    -0.170 NA
ATOM      7  C   UNL     1      35.962 -22.494 -17.383  0.00  0.00    +0.279 C 
ATOM      8  C   UNL     1      35.907 -23.862 -15.401  0.00  0.00    +0.219 C 
ATOM      9  C   UNL     1      33.985 -23.397 -16.520  0.00  0.00    +0.203 C 
ATOM     10  C   UNL     1      36.858 -24.320 -14.517  0.00  0.00    +0.203 C 
ATOM     11  C   UNL     1      38.075 -23.798 -15.000  0.00  0.00    +0.116 C 
ATOM     12  H   UNL     1      32.191 -23.051 -17.433  0.00  0.00    +0.161 HD
ATOM     13  H   UNL     1      37.700 -21.751 -18.071  0.00  0.00    +0.156 HD
ENDROOT
BRANCH   3  14
ATOM     14  C   UNL     1      36.296 -21.077 -19.382  0.00  0.00    +0.051 C 
ATOM     15  C   UNL     1      35.004 -21.276 -19.869  0.00  0.00    +0.015 C 
ATOM     16  C   UNL     1      37.152 -20.178 -20.020  0.00  0.00    +0.015 C 
ATOM     17  C   UNL     1      34.568 -20.575 -20.994  0.00  0.00    +0.001 C 
ATOM     18  C   UNL     1      36.715 -19.477 -21.144  0.00  0.00    +0.001 C 
ATOM     19  C   UNL     1      35.423 -19.677 -21.632  0.00  0.00    +0.000 C 
ENDBRANCH   3  14
BRANCH  10  21
ATOM     20  N   UNL     1      36.454 -25.806 -12.445  0.00  0.00    -0.195 NA
ATOM     21  C   UNL     1      36.635 -25.138 -13.377  0.00  0.00    +0.087 C 
ENDBRANCH  10  21
BRANCH   2  22
ATOM     22  C   UNL     1      31.814 -24.253 -15.764  0.00  0.00    +0.125 C 
BRANCH  22  24
ATOM     23 CL   UNL     1      26.126 -22.302 -15.912  0.00  0.00    -0.082 Cl
ATOM     24  C   UNL     1      30.392 -23.766 -15.800  0.00  0.00    -0.002 C 
ATOM     25  C   UNL     1      29.963 -22.796 -14.893  0.00  0.00    -0.002 C 
ATOM     26  C   UNL     1      29.501 -24.282 -16.742  0.00  0.00    -0.002 C 
ATOM     27  C   UNL     1      28.644 -22.344 -14.928  0.00  0.00    +0.011 C 
ATOM     28  C   UNL     1      28.183 -23.830 -16.776  0.00  0.00    +0.011 C 
ATOM     29  C   UNL     1      27.754 -22.860 -15.870  0.00  0.00    +0.058 C 
ENDBRANCH  22  24
ENDBRANCH   2  22
TORSDOF 4
ENDMDL
