MODEL 1
REMARK VINA RESULT:     -12.1      0.000      0.000
REMARK  Name = 9924495
REMARK  4 active torsions:
REMARK  status: ('A' for Active; 'I' for Inactive)
REMARK    1  A    between atoms: N_2  and  C_22
REMARK    2  A    between atoms: C_3  and  C_14
REMARK    3  A    between atoms: C_4  and  C_9
REMARK    4  A    between atoms: C_15  and  C_21
REMARK                            x       y       z     vdW  Elec       q    Type
REMARK                         _______ _______ _______ _____ _____    ______ ____
ROOT
ATOM      1  O   UNL     1      36.877 -23.149 -16.478  0.00  0.00    -0.269 OA
ATOM      2  N   UNL     1      34.619 -22.930 -17.114  0.00  0.00    -0.233 N 
ATOM      3  C   UNL     1      35.286 -23.979 -14.960  0.00  0.00    +0.055 C 
ATOM      4  C   UNL     1      32.961 -23.945 -15.689  0.00  0.00    +0.033 C 
ATOM      5  C   UNL     1      35.676 -23.296 -16.245  0.00  0.00    +0.257 C 
ATOM      6  C   UNL     1      33.997 -24.277 -14.738  0.00  0.00    +0.007 C 
ATOM      7  C   UNL     1      33.306 -23.286 -16.808  0.00  0.00    +0.074 C 
ENDROOT
BRANCH   4   9
ATOM      8  N   UNL     1      31.285 -25.276 -14.609  0.00  0.00    -0.244 NA
ATOM      9  C   UNL     1      31.536 -24.257 -15.459  0.00  0.00    +0.083 C 
ATOM     10  C   UNL     1      30.556 -23.521 -16.102  0.00  0.00    +0.019 C 
ATOM     11  C   UNL     1      29.228 -23.852 -15.854  0.00  0.00    +0.003 C 
ATOM     12  C   UNL     1      29.983 -25.570 -14.393  0.00  0.00    +0.099 C 
ATOM     13  C   UNL     1      28.928 -24.894 -14.985  0.00  0.00    +0.021 C 
ENDBRANCH   4   9
BRANCH   3  14
ATOM     14  C   UNL     1      36.299 -24.321 -13.945  0.00  0.00    +0.014 C 
ATOM     15  C   UNL     1      37.033 -25.504 -14.004  0.00  0.00    +0.069 C 
ATOM     16  C   UNL     1      36.513 -23.419 -12.902  0.00  0.00    +0.001 C 
ATOM     17  C   UNL     1      37.981 -25.788 -13.021  0.00  0.00    +0.010 C 
ATOM     18  C   UNL     1      37.461 -23.702 -11.919  0.00  0.00    +0.000 C 
ATOM     19  C   UNL     1      38.196 -24.886 -11.979  0.00  0.00    +0.001 C 
BRANCH  15  21
ATOM     20  N   UNL     1      36.687 -27.223 -15.912  0.00  0.00    -0.191 NA
ATOM     21  C   UNL     1      36.841 -26.454 -15.060  0.00  0.00    +0.100 C 
ENDBRANCH  15  21
ENDBRANCH   3  14
BRANCH   2  22
ATOM     22  C   UNL     1      34.914 -22.210 -18.339  0.00  0.00    +0.058 C 
ATOM     23  C   UNL     1      36.234 -21.930 -18.671  0.00  0.00    +0.015 C 
ATOM     24  C   UNL     1      33.873 -21.810 -19.168  0.00  0.00    +0.015 C 
ATOM     25  C   UNL     1      36.517 -21.238 -19.848  0.00  0.00    +0.001 C 
ATOM     26  C   UNL     1      34.156 -21.118 -20.346  0.00  0.00    +0.001 C 
ATOM     27  C   UNL     1      35.479 -20.833 -20.686  0.00  0.00    +0.000 C 
ENDBRANCH   2  22
TORSDOF 4
ENDMDL
MODEL 2
REMARK VINA RESULT:     -11.9      1.195      5.156
REMARK  Name = 9924495
REMARK  4 active torsions:
REMARK  status: ('A' for Active; 'I' for Inactive)
REMARK    1  A    between atoms: N_2  and  C_22
REMARK    2  A    between atoms: C_3  and  C_14
REMARK    3  A    between atoms: C_4  and  C_9
REMARK    4  A    between atoms: C_15  and  C_21
REMARK                            x       y       z     vdW  Elec       q    Type
REMARK                         _______ _______ _______ _____ _____    ______ ____
ROOT
ATOM      1  O   UNL     1      33.509 -24.674 -13.339  0.00  0.00    -0.269 OA
ATOM      2  N   UNL     1      32.879 -23.919 -15.481  0.00  0.00    -0.233 N 
ATOM      3  C   UNL     1      35.253 -23.945 -14.737  0.00  0.00    +0.055 C 
ATOM      4  C   UNL     1      34.603 -22.974 -16.876  0.00  0.00    +0.033 C 
ATOM      5  C   UNL     1      33.801 -24.235 -14.453  0.00  0.00    +0.257 C 
ATOM      6  C   UNL     1      35.589 -23.341 -15.887  0.00  0.00    +0.007 C 
ATOM      7  C   UNL     1      33.316 -23.284 -16.644  0.00  0.00    +0.074 C 
ENDROOT
BRANCH   4   9
ATOM      8  N   UNL     1      36.272 -22.087 -18.351  0.00  0.00    -0.244 NA
ATOM      9  C   UNL     1      34.955 -22.316 -18.150  0.00  0.00    +0.083 C 
ATOM     10  C   UNL     1      33.960 -21.973 -19.049  0.00  0.00    +0.019 C 
ATOM     11  C   UNL     1      34.341 -21.355 -20.235  0.00  0.00    +0.003 C 
ATOM     12  C   UNL     1      36.604 -21.484 -19.515  0.00  0.00    +0.099 C 
ATOM     13  C   UNL     1      35.685 -21.102 -20.480  0.00  0.00    +0.021 C 
ENDBRANCH   4   9
BRANCH   3  14
ATOM     14  C   UNL     1      36.303 -24.317 -13.773  0.00  0.00    +0.014 C 
ATOM     15  C   UNL     1      37.021 -25.507 -13.886  0.00  0.00    +0.069 C 
ATOM     16  C   UNL     1      36.572 -23.438 -12.724  0.00  0.00    +0.001 C 
ATOM     17  C   UNL     1      38.006 -25.820 -12.950  0.00  0.00    +0.010 C 
ATOM     18  C   UNL     1      37.558 -23.750 -11.787  0.00  0.00    +0.000 C 
ATOM     19  C   UNL     1      38.275 -24.941 -11.901  0.00  0.00    +0.001 C 
BRANCH  15  21
ATOM     20  N   UNL     1      36.574 -27.183 -15.811  0.00  0.00    -0.191 NA
ATOM     21  C   UNL     1      36.773 -26.434 -14.950  0.00  0.00    +0.100 C 
ENDBRANCH  15  21
ENDBRANCH   3  14
BRANCH   2  22
ATOM     22  C   UNL     1      31.474 -24.231 -15.304  0.00  0.00    +0.058 C 
ATOM     23  C   UNL     1      31.102 -25.483 -14.828  0.00  0.00    +0.015 C 
ATOM     24  C   UNL     1      30.513 -23.275 -15.611  0.00  0.00    +0.015 C 
ATOM     25  C   UNL     1      29.750 -25.782 -14.657  0.00  0.00    +0.001 C 
ATOM     26  C   UNL     1      29.161 -23.574 -15.441  0.00  0.00    +0.001 C 
ATOM     27  C   UNL     1      28.780 -24.829 -14.963  0.00  0.00    +0.000 C 
ENDBRANCH   2  22
TORSDOF 4
ENDMDL
MODEL 3
REMARK VINA RESULT:      -9.7      2.008      5.585
REMARK  Name = 9924495
REMARK  4 active torsions:
REMARK  status: ('A' for Active; 'I' for Inactive)
REMARK    1  A    between atoms: N_2  and  C_22
REMARK    2  A    between atoms: C_3  and  C_14
REMARK    3  A    between atoms: C_4  and  C_9
REMARK    4  A    between atoms: C_15  and  C_21
REMARK                            x       y       z     vdW  Elec       q    Type
REMARK                         _______ _______ _______ _____ _____    ______ ____
ROOT
ATOM      1  O   UNL     1      33.305 -24.620 -14.638  0.00  0.00    -0.269 OA
ATOM      2  N   UNL     1      32.319 -23.530 -16.480  0.00  0.00    -0.233 N 
ATOM      3  C   UNL     1      34.784 -23.776 -16.258  0.00  0.00    +0.055 C 
ATOM      4  C   UNL     1      33.796 -22.472 -18.064  0.00  0.00    +0.033 C 
ATOM      5  C   UNL     1      33.401 -24.037 -15.719  0.00  0.00    +0.257 C 
ATOM      6  C   UNL     1      34.930 -23.026 -17.361  0.00  0.00    +0.007 C 
ATOM      7  C   UNL     1      32.563 -22.752 -17.612  0.00  0.00    +0.074 C 
ENDROOT
BRANCH   4   9
ATOM      8  N   UNL     1      32.784 -21.215 -19.837  0.00  0.00    -0.244 NA
ATOM      9  C   UNL     1      33.937 -21.652 -19.284  0.00  0.00    +0.083 C 
ATOM     10  C   UNL     1      35.195 -21.378 -19.791  0.00  0.00    +0.019 C 
ATOM     11  C   UNL     1      35.277 -20.602 -20.942  0.00  0.00    +0.003 C 
ATOM     12  C   UNL     1      32.903 -20.464 -20.955  0.00  0.00    +0.099 C 
ATOM     13  C   UNL     1      34.114 -20.133 -21.541  0.00  0.00    +0.021 C 
ENDBRANCH   4   9
BRANCH   3  14
ATOM     14  C   UNL     1      35.975 -24.336 -15.594  0.00  0.00    +0.014 C 
ATOM     15  C   UNL     1      37.168 -23.622 -15.494  0.00  0.00    +0.069 C 
ATOM     16  C   UNL     1      35.883 -25.619 -15.055  0.00  0.00    +0.001 C 
ATOM     17  C   UNL     1      38.271 -24.191 -14.857  0.00  0.00    +0.010 C 
ATOM     18  C   UNL     1      36.985 -26.189 -14.417  0.00  0.00    +0.000 C 
ATOM     19  C   UNL     1      38.179 -25.474 -14.317  0.00  0.00    +0.001 C 
BRANCH  15  21
ATOM     20  N   UNL     1      37.409 -21.235 -16.472  0.00  0.00    -0.191 NA
ATOM     21  C   UNL     1      37.300 -22.302 -16.035  0.00  0.00    +0.100 C 
ENDBRANCH  15  21
ENDBRANCH   3  14
BRANCH   2  22
ATOM     22  C   UNL     1      30.958 -23.799 -16.058  0.00  0.00    +0.058 C 
ATOM     23  C   UNL     1      30.671 -24.966 -15.361  0.00  0.00    +0.015 C 
ATOM     24  C   UNL     1      29.953 -22.884 -16.353  0.00  0.00    +0.015 C 
ATOM     25  C   UNL     1      29.363 -25.224 -14.954  0.00  0.00    +0.001 C 
ATOM     26  C   UNL     1      28.644 -23.142 -15.946  0.00  0.00    +0.001 C 
ATOM     27  C   UNL     1      28.349 -24.312 -15.247  0.00  0.00    +0.000 C 
ENDBRANCH   2  22
TORSDOF 4
ENDMDL
MODEL 4
REMARK VINA RESULT:      -9.5      1.647      2.404
REMARK  Name = 9924495
REMARK  4 active torsions:
REMARK  status: ('A' for Active; 'I' for Inactive)
REMARK    1  A    between atoms: N_2  and  C_22
REMARK    2  A    between atoms: C_3  and  C_14
REMARK    3  A    between atoms: C_4  and  C_9
REMARK    4  A    between atoms: C_15  and  C_21
REMARK                            x       y       z     vdW  Elec       q    Type
REMARK                         _______ _______ _______ _____ _____    ______ ____
ROOT
ATOM      1  O   UNL     1      36.239 -22.784 -17.488  0.00  0.00    -0.269 OA
ATOM      2  N   UNL     1      33.990 -22.389 -18.071  0.00  0.00    -0.233 N 
ATOM      3  C   UNL     1      34.620 -23.603 -15.993  0.00  0.00    +0.055 C 
ATOM      4  C   UNL     1      32.292 -23.382 -16.678  0.00  0.00    +0.033 C 
ATOM      5  C   UNL     1      35.035 -22.870 -17.244  0.00  0.00    +0.257 C 
ATOM      6  C   UNL     1      33.318 -23.833 -15.767  0.00  0.00    +0.007 C 
ATOM      7  C   UNL     1      32.661 -22.680 -17.763  0.00  0.00    +0.074 C 
ENDROOT
BRANCH   4   9
ATOM      8  N   UNL     1      30.006 -22.772 -17.067  0.00  0.00    -0.244 NA
ATOM      9  C   UNL     1      30.854 -23.618 -16.442  0.00  0.00    +0.083 C 
ATOM     10  C   UNL     1      30.451 -24.655 -15.617  0.00  0.00    +0.019 C 
ATOM     11  C   UNL     1      29.085 -24.837 -15.424  0.00  0.00    +0.003 C 
ATOM     12  C   UNL     1      28.687 -22.980 -16.855  0.00  0.00    +0.099 C 
ATOM     13  C   UNL     1      28.181 -23.989 -16.050  0.00  0.00    +0.021 C 
ENDBRANCH   4   9
BRANCH   3  14
ATOM     14  C   UNL     1      35.624 -24.067 -15.018  0.00  0.00    +0.014 C 
ATOM     15  C   UNL     1      35.282 -24.396 -13.707  0.00  0.00    +0.069 C 
ATOM     16  C   UNL     1      36.949 -24.172 -15.441  0.00  0.00    +0.001 C 
ATOM     17  C   UNL     1      36.265 -24.829 -12.817  0.00  0.00    +0.010 C 
ATOM     18  C   UNL     1      37.932 -24.607 -14.552  0.00  0.00    +0.000 C 
ATOM     19  C   UNL     1      37.590 -24.936 -13.240  0.00  0.00    +0.001 C 
BRANCH  15  21
ATOM     20  N   UNL     1      32.840 -24.223 -12.858  0.00  0.00    -0.191 NA
ATOM     21  C   UNL     1      33.932 -24.299 -13.237  0.00  0.00    +0.100 C 
ENDBRANCH  15  21
ENDBRANCH   3  14
BRANCH   2  22
ATOM     22  C   UNL     1      34.313 -21.617 -19.256  0.00  0.00    +0.058 C 
ATOM     23  C   UNL     1      33.291 -21.054 -20.010  0.00  0.00    +0.015 C 
ATOM     24  C   UNL     1      35.642 -21.446 -19.624  0.00  0.00    +0.015 C 
ATOM     25  C   UNL     1      33.602 -20.312 -21.149  0.00  0.00    +0.001 C 
ATOM     26  C   UNL     1      35.954 -20.704 -20.763  0.00  0.00    +0.001 C 
ATOM     27  C   UNL     1      34.933 -20.136 -21.525  0.00  0.00    +0.000 C 
ENDBRANCH   2  22
TORSDOF 4
ENDMDL
MODEL 5
REMARK VINA RESULT:      -9.2      1.756      5.498
REMARK  Name = 9924495
REMARK  4 active torsions:
REMARK  status: ('A' for Active; 'I' for Inactive)
REMARK    1  A    between atoms: N_2  and  C_22
REMARK    2  A    between atoms: C_3  and  C_14
REMARK    3  A    between atoms: C_4  and  C_9
REMARK    4  A    between atoms: C_15  and  C_21
REMARK                            x       y       z     vdW  Elec       q    Type
REMARK                         _______ _______ _______ _____ _____    ______ ____
ROOT
ATOM      1  O   UNL     1      33.073 -25.248 -13.962  0.00  0.00    -0.269 OA
ATOM      2  N   UNL     1      32.528 -24.008 -15.890  0.00  0.00    -0.233 N 
ATOM      3  C   UNL     1      34.877 -24.593 -15.319  0.00  0.00    +0.055 C 
ATOM      4  C   UNL     1      34.352 -23.141 -17.205  0.00  0.00    +0.033 C 
ATOM      5  C   UNL     1      33.406 -24.669 -14.997  0.00  0.00    +0.257 C 
ATOM      6  C   UNL     1      35.284 -23.855 -16.363  0.00  0.00    +0.007 C 
ATOM      7  C   UNL     1      33.039 -23.257 -16.948  0.00  0.00    +0.074 C 
ENDROOT
BRANCH   4   9
ATOM      8  N   UNL     1      36.113 -22.155 -18.498  0.00  0.00    -0.244 NA
ATOM      9  C   UNL     1      34.781 -22.332 -18.363  0.00  0.00    +0.083 C 
ATOM     10  C   UNL     1      33.835 -21.805 -19.225  0.00  0.00    +0.019 C 
ATOM     11  C   UNL     1      34.287 -21.048 -20.301  0.00  0.00    +0.003 C 
ATOM     12  C   UNL     1      36.515 -21.414 -19.555  0.00  0.00    +0.099 C 
ATOM     13  C   UNL     1      35.650 -20.844 -20.476  0.00  0.00    +0.021 C 
ENDBRANCH   4   9
BRANCH   3  14
ATOM     14  C   UNL     1      35.870 -25.319 -14.507  0.00  0.00    +0.014 C 
ATOM     15  C   UNL     1      36.009 -25.095 -13.138  0.00  0.00    +0.069 C 
ATOM     16  C   UNL     1      36.684 -26.253 -15.147  0.00  0.00    +0.001 C 
ATOM     17  C   UNL     1      36.963 -25.804 -12.408  0.00  0.00    +0.010 C 
ATOM     18  C   UNL     1      37.638 -26.964 -14.418  0.00  0.00    +0.000 C 
ATOM     19  C   UNL     1      37.777 -26.739 -13.048  0.00  0.00    +0.001 C 
BRANCH  15  21
ATOM     20  N   UNL     1      34.532 -23.374 -11.886  0.00  0.00    -0.191 NA
ATOM     21  C   UNL     1      35.191 -24.143 -12.446  0.00  0.00    +0.100 C 
ENDBRANCH  15  21
ENDBRANCH   3  14
BRANCH   2  22
ATOM     22  C   UNL     1      31.095 -24.094 -15.680  0.00  0.00    +0.058 C 
ATOM     23  C   UNL     1      30.286 -23.010 -15.998  0.00  0.00    +0.015 C 
ATOM     24  C   UNL     1      30.545 -25.262 -15.163  0.00  0.00    +0.015 C 
ATOM     25  C   UNL     1      28.909 -23.093 -15.796  0.00  0.00    +0.001 C 
ATOM     26  C   UNL     1      29.167 -25.345 -14.961  0.00  0.00    +0.001 C 
ATOM     27  C   UNL     1      28.349 -24.261 -15.278  0.00  0.00    +0.000 C 
ENDBRANCH   2  22
TORSDOF 4
ENDMDL
MODEL 6
REMARK VINA RESULT:      -9.2      1.729      6.297
REMARK  Name = 9924495
REMARK  4 active torsions:
REMARK  status: ('A' for Active; 'I' for Inactive)
REMARK    1  A    between atoms: N_2  and  C_22
REMARK    2  A    between atoms: C_3  and  C_14
REMARK    3  A    between atoms: C_4  and  C_9
REMARK    4  A    between atoms: C_15  and  C_21
REMARK                            x       y       z     vdW  Elec       q    Type
REMARK                         _______ _______ _______ _____ _____    ______ ____
ROOT
ATOM      1  O   UNL     1      32.189 -22.955 -18.006  0.00  0.00    -0.269 OA
ATOM      2  N   UNL     1      32.324 -23.831 -15.822  0.00  0.00    -0.233 N 
ATOM      3  C   UNL     1      34.333 -23.020 -17.044  0.00  0.00    +0.055 C 
ATOM      4  C   UNL     1      34.521 -24.106 -14.870  0.00  0.00    +0.033 C 
ATOM      5  C   UNL     1      32.842 -23.244 -17.002  0.00  0.00    +0.257 C 
ATOM      6  C   UNL     1      35.091 -23.449 -16.024  0.00  0.00    +0.007 C 
ATOM      7  C   UNL     1      33.187 -24.254 -14.812  0.00  0.00    +0.074 C 
ENDROOT
BRANCH   4   9
ATOM      8  N   UNL     1      34.844 -24.317 -12.504  0.00  0.00    -0.244 NA
ATOM      9  C   UNL     1      35.338 -24.576 -13.735  0.00  0.00    +0.083 C 
ATOM     10  C   UNL     1      36.533 -25.235 -13.970  0.00  0.00    +0.019 C 
ATOM     11  C   UNL     1      37.269 -25.659 -12.868  0.00  0.00    +0.003 C 
ATOM     12  C   UNL     1      35.587 -24.743 -11.458  0.00  0.00    +0.099 C 
ATOM     13  C   UNL     1      36.794 -25.412 -11.586  0.00  0.00    +0.021 C 
ENDBRANCH   4   9
BRANCH   3  14
ATOM     14  C   UNL     1      34.965 -22.335 -18.186  0.00  0.00    +0.014 C 
ATOM     15  C   UNL     1      36.319 -22.005 -18.191  0.00  0.00    +0.069 C 
ATOM     16  C   UNL     1      34.165 -22.017 -19.284  0.00  0.00    +0.001 C 
ATOM     17  C   UNL     1      36.876 -21.356 -19.293  0.00  0.00    +0.010 C 
ATOM     18  C   UNL     1      34.721 -21.369 -20.387  0.00  0.00    +0.000 C 
ATOM     19  C   UNL     1      36.076 -21.039 -20.392  0.00  0.00    +0.001 C 
BRANCH  15  21
ATOM     20  N   UNL     1      37.861 -22.567 -16.186  0.00  0.00    -0.191 NA
ATOM     21  C   UNL     1      37.171 -22.316 -17.082  0.00  0.00    +0.100 C 
ENDBRANCH  15  21
ENDBRANCH   3  14
BRANCH   2  22
ATOM     22  C   UNL     1      30.891 -24.017 -15.684  0.00  0.00    +0.058 C 
ATOM     23  C   UNL     1      30.024 -23.024 -16.123  0.00  0.00    +0.015 C 
ATOM     24  C   UNL     1      30.402 -25.187 -15.116  0.00  0.00    +0.015 C 
ATOM     25  C   UNL     1      28.647 -23.203 -15.991  0.00  0.00    +0.001 C 
ATOM     26  C   UNL     1      29.025 -25.366 -14.984  0.00  0.00    +0.001 C 
ATOM     27  C   UNL     1      28.147 -24.374 -15.421  0.00  0.00    +0.000 C 
ENDBRANCH   2  22
TORSDOF 4
ENDMDL
