MODEL 1
REMARK VINA RESULT:     -11.3      0.000      0.000
REMARK  Name = 24988948
REMARK  5 active torsions:
REMARK  status: ('A' for Active; 'I' for Inactive)
REMARK    1  A    between atoms: N_2  and  C_21
REMARK    2  A    between atoms: C_6  and  O_11
REMARK    3  A    between atoms: O_11  and  C_13
REMARK    4  A    between atoms: C_16  and  C_20
REMARK    5  A    between atoms: C_21  and  C_25
REMARK                            x       y       z     vdW  Elec       q    Type
REMARK                         _______ _______ _______ _____ _____    ______ ____
ROOT
ATOM      1 CL   UNL     1      31.958  -7.459 -20.536  0.00  0.00    -0.079 Cl
ATOM      2  N   UNL     1      33.564 -11.583 -24.322  0.00  0.00    -0.205 N 
ATOM      3  N   UNL     1      34.615 -11.046 -24.966  0.00  0.00    -0.176 NA
ATOM      4  C   UNL     1      33.016 -10.768 -23.367  0.00  0.00    +0.074 C 
ATOM      5  C   UNL     1      33.778  -9.606 -23.397  0.00  0.00    +0.071 C 
ATOM      6  C   UNL     1      33.464  -8.555 -22.519  0.00  0.00    +0.158 C 
ATOM      7  C   UNL     1      34.742  -9.844 -24.400  0.00  0.00    +0.122 C 
ATOM      8  C   UNL     1      31.938 -10.951 -22.499  0.00  0.00    +0.017 C 
ATOM      9  C   UNL     1      32.386  -8.718 -21.639  0.00  0.00    +0.092 C 
ATOM     10  C   UNL     1      31.637  -9.896 -21.631  0.00  0.00    +0.016 C 
ENDROOT
BRANCH   6  11
ATOM     11  O   UNL     1      34.197  -7.400 -22.527  0.00  0.00    -0.453 OA
BRANCH  11  13
ATOM     12 CL   UNL     1      35.396  -5.135 -26.942  0.00  0.00    -0.082 Cl
ATOM     13  C   UNL     1      33.882  -6.454 -23.483  0.00  0.00    +0.147 C 
ATOM     14  C   UNL     1      32.745  -5.661 -23.331  0.00  0.00    +0.048 C 
ATOM     15  C   UNL     1      34.702  -6.290 -24.599  0.00  0.00    +0.049 C 
ATOM     16  C   UNL     1      32.427  -4.705 -24.296  0.00  0.00    +0.072 C 
ATOM     17  C   UNL     1      34.385  -5.335 -25.565  0.00  0.00    +0.061 C 
ATOM     18  C   UNL     1      33.247  -4.542 -25.413  0.00  0.00    +0.022 C 
BRANCH  16  20
ATOM     19  N   UNL     1      30.315  -3.235 -24.015  0.00  0.00    -0.191 NA
ATOM     20  C   UNL     1      31.261  -3.894 -24.141  0.00  0.00    +0.101 C 
ENDBRANCH  16  20
ENDBRANCH  11  13
ENDBRANCH   6  11
BRANCH   2  21
ATOM     21  C   UNL     1      33.125 -12.912 -24.679  0.00  0.00    +0.159 C 
BRANCH  21  25
ATOM     22  N   UNL     1      34.417 -13.784 -22.704  0.00  0.00    -0.230 N 
ATOM     23  N   UNL     1      35.028 -14.861 -22.168  0.00  0.00    -0.128 NA
ATOM     24  N   UNL     1      35.269 -17.110 -23.044  0.00  0.00    -0.192 NA
ATOM     25  C   UNL     1      33.851 -14.002 -23.930  0.00  0.00    +0.071 C 
ATOM     26  C   UNL     1      34.114 -15.315 -24.206  0.00  0.00    +0.058 C 
ATOM     27  C   UNL     1      34.846 -15.816 -23.087  0.00  0.00    +0.049 C 
ATOM     28  C   UNL     1      33.732 -15.999 -25.351  0.00  0.00    +0.065 C 
ATOM     29  C   UNL     1      34.176 -17.325 -25.286  0.00  0.00    +0.001 C 
ATOM     30  C   UNL     1      34.901 -17.803 -24.169  0.00  0.00    +0.105 C 
ATOM     31  H   UNL     1      34.383 -12.911 -22.250  0.00  0.00    +0.175 HD
ENDBRANCH  21  25
ENDBRANCH   2  21
TORSDOF 5
ENDMDL
MODEL 2
REMARK VINA RESULT:     -11.1      1.615      2.016
REMARK  Name = 24988948
REMARK  5 active torsions:
REMARK  status: ('A' for Active; 'I' for Inactive)
REMARK    1  A    between atoms: N_2  and  C_21
REMARK    2  A    between atoms: C_6  and  O_11
REMARK    3  A    between atoms: O_11  and  C_13
REMARK    4  A    between atoms: C_16  and  C_20
REMARK    5  A    between atoms: C_21  and  C_25
REMARK                            x       y       z     vdW  Elec       q    Type
REMARK                         _______ _______ _______ _____ _____    ______ ____
ROOT
ATOM      1 CL   UNL     1      31.953  -7.402 -20.791  0.00  0.00    -0.079 Cl
ATOM      2  N   UNL     1      33.633 -11.665 -24.386  0.00  0.00    -0.205 N 
ATOM      3  N   UNL     1      34.698 -11.155 -25.026  0.00  0.00    -0.176 NA
ATOM      4  C   UNL     1      33.066 -10.815 -23.474  0.00  0.00    +0.074 C 
ATOM      5  C   UNL     1      33.830  -9.656 -23.530  0.00  0.00    +0.071 C 
ATOM      6  C   UNL     1      33.500  -8.573 -22.698  0.00  0.00    +0.158 C 
ATOM      7  C   UNL     1      34.816  -9.932 -24.502  0.00  0.00    +0.122 C 
ATOM      8  C   UNL     1      31.968 -10.964 -22.624  0.00  0.00    +0.017 C 
ATOM      9  C   UNL     1      32.402  -8.702 -21.837  0.00  0.00    +0.092 C 
ATOM     10  C   UNL     1      31.651  -9.877 -21.802  0.00  0.00    +0.016 C 
ENDROOT
BRANCH   6  11
ATOM     11  O   UNL     1      34.236  -7.420 -22.733  0.00  0.00    -0.453 OA
BRANCH  11  13
ATOM     12 CL   UNL     1      30.818  -3.849 -24.012  0.00  0.00    -0.082 Cl
ATOM     13  C   UNL     1      33.840  -6.440 -23.623  0.00  0.00    +0.147 C 
ATOM     14  C   UNL     1      34.616  -6.169 -24.751  0.00  0.00    +0.048 C 
ATOM     15  C   UNL     1      32.666  -5.723 -23.395  0.00  0.00    +0.049 C 
ATOM     16  C   UNL     1      34.217  -5.180 -25.650  0.00  0.00    +0.072 C 
ATOM     17  C   UNL     1      32.267  -4.734 -24.294  0.00  0.00    +0.061 C 
ATOM     18  C   UNL     1      33.042  -4.462 -25.422  0.00  0.00    +0.022 C 
BRANCH  16  20
ATOM     19  N   UNL     1      35.657  -4.676 -27.741  0.00  0.00    -0.191 NA
ATOM     20  C   UNL     1      35.011  -4.902 -26.804  0.00  0.00    +0.101 C 
ENDBRANCH  16  20
ENDBRANCH  11  13
ENDBRANCH   6  11
BRANCH   2  21
ATOM     21  C   UNL     1      33.199 -13.006 -24.702  0.00  0.00    +0.159 C 
BRANCH  21  25
ATOM     22  N   UNL     1      34.444 -13.807 -22.669  0.00  0.00    -0.230 N 
ATOM     23  N   UNL     1      35.041 -14.865 -22.080  0.00  0.00    -0.128 NA
ATOM     24  N   UNL     1      35.300 -17.144 -22.869  0.00  0.00    -0.192 NA
ATOM     25  C   UNL     1      33.906 -14.069 -23.898  0.00  0.00    +0.071 C 
ATOM     26  C   UNL     1      34.173 -15.391 -24.121  0.00  0.00    +0.058 C 
ATOM     27  C   UNL     1      34.879 -15.851 -22.969  0.00  0.00    +0.049 C 
ATOM     28  C   UNL     1      33.816 -16.116 -25.249  0.00  0.00    +0.065 C 
ATOM     29  C   UNL     1      34.257 -17.438 -25.126  0.00  0.00    +0.001 C 
ATOM     30  C   UNL     1      34.956 -17.877 -23.976  0.00  0.00    +0.105 C 
ATOM     31  H   UNL     1      34.401 -12.918 -22.247  0.00  0.00    +0.175 HD
ENDBRANCH  21  25
ENDBRANCH   2  21
TORSDOF 5
ENDMDL
MODEL 3
REMARK VINA RESULT:     -10.6      5.052      8.679
REMARK  Name = 24988948
REMARK  5 active torsions:
REMARK  status: ('A' for Active; 'I' for Inactive)
REMARK    1  A    between atoms: N_2  and  C_21
REMARK    2  A    between atoms: C_6  and  O_11
REMARK    3  A    between atoms: O_11  and  C_13
REMARK    4  A    between atoms: C_16  and  C_20
REMARK    5  A    between atoms: C_21  and  C_25
REMARK                            x       y       z     vdW  Elec       q    Type
REMARK                         _______ _______ _______ _____ _____    ______ ____
ROOT
ATOM      1 CL   UNL     1      33.986 -15.843 -26.162  0.00  0.00    -0.079 Cl
ATOM      2  N   UNL     1      35.072 -19.497 -21.760  0.00  0.00    -0.205 N 
ATOM      3  N   UNL     1      35.675 -18.729 -20.836  0.00  0.00    -0.176 NA
ATOM      4  C   UNL     1      34.723 -18.829 -22.903  0.00  0.00    +0.074 C 
ATOM      5  C   UNL     1      35.134 -17.517 -22.701  0.00  0.00    +0.071 C 
ATOM      6  C   UNL     1      34.914 -16.564 -23.709  0.00  0.00    +0.158 C 
ATOM      7  C   UNL     1      35.710 -17.525 -21.412  0.00  0.00    +0.122 C 
ATOM      8  C   UNL     1      34.093 -19.259 -24.073  0.00  0.00    +0.017 C 
ATOM      9  C   UNL     1      34.284 -16.974 -24.891  0.00  0.00    +0.092 C 
ATOM     10  C   UNL     1      33.881 -18.299 -25.068  0.00  0.00    +0.016 C 
ENDROOT
BRANCH   6  11
ATOM     11  O   UNL     1      35.309 -15.265 -23.536  0.00  0.00    -0.453 OA
BRANCH  11  13
ATOM     12 CL   UNL     1      31.902 -14.326 -19.853  0.00  0.00    -0.082 Cl
ATOM     13  C   UNL     1      34.397 -14.392 -22.979  0.00  0.00    +0.147 C 
ATOM     14  C   UNL     1      34.178 -13.144 -23.563  0.00  0.00    +0.048 C 
ATOM     15  C   UNL     1      33.692 -14.757 -21.832  0.00  0.00    +0.049 C 
ATOM     16  C   UNL     1      33.256 -12.262 -23.001  0.00  0.00    +0.072 C 
ATOM     17  C   UNL     1      32.770 -13.875 -21.268  0.00  0.00    +0.061 C 
ATOM     18  C   UNL     1      32.552 -12.627 -21.853  0.00  0.00    +0.022 C 
BRANCH  16  20
ATOM     19  N   UNL     1      32.854  -9.946 -24.085  0.00  0.00    -0.191 NA
ATOM     20  C   UNL     1      33.034 -10.984 -23.599  0.00  0.00    +0.101 C 
ENDBRANCH  16  20
ENDBRANCH  11  13
ENDBRANCH   6  11
BRANCH   2  21
ATOM     21  C   UNL     1      34.857 -20.897 -21.477  0.00  0.00    +0.159 C 
BRANCH  21  25
ATOM     22  N   UNL     1      36.669 -21.022 -19.736  0.00  0.00    -0.230 N 
ATOM     23  N   UNL     1      36.997 -21.477 -18.509  0.00  0.00    -0.128 NA
ATOM     24  N   UNL     1      35.678 -22.742 -16.914  0.00  0.00    -0.192 NA
ATOM     25  C   UNL     1      35.397 -21.326 -20.135  0.00  0.00    +0.071 C 
ATOM     26  C   UNL     1      34.862 -22.027 -19.090  0.00  0.00    +0.058 C 
ATOM     27  C   UNL     1      35.887 -22.100 -18.098  0.00  0.00    +0.049 C 
ATOM     28  C   UNL     1      33.579 -22.550 -19.031  0.00  0.00    +0.065 C 
ATOM     29  C   UNL     1      33.385 -23.204 -17.809  0.00  0.00    +0.001 C 
ATOM     30  C   UNL     1      34.412 -23.266 -16.837  0.00  0.00    +0.105 C 
ATOM     31  H   UNL     1      37.297 -20.514 -20.300  0.00  0.00    +0.175 HD
ENDBRANCH  21  25
ENDBRANCH   2  21
TORSDOF 5
ENDMDL
MODEL 4
REMARK VINA RESULT:     -10.5      2.878      9.204
REMARK  Name = 24988948
REMARK  5 active torsions:
REMARK  status: ('A' for Active; 'I' for Inactive)
REMARK    1  A    between atoms: N_2  and  C_21
REMARK    2  A    between atoms: C_6  and  O_11
REMARK    3  A    between atoms: O_11  and  C_13
REMARK    4  A    between atoms: C_16  and  C_20
REMARK    5  A    between atoms: C_21  and  C_25
REMARK                            x       y       z     vdW  Elec       q    Type
REMARK                         _______ _______ _______ _____ _____    ______ ____
ROOT
ATOM      1 CL   UNL     1      35.072 -11.538 -26.244  0.00  0.00    -0.079 Cl
ATOM      2  N   UNL     1      32.645  -8.540 -21.881  0.00  0.00    -0.205 N 
ATOM      3  N   UNL     1      31.626  -9.316 -21.476  0.00  0.00    -0.176 NA
ATOM      4  C   UNL     1      33.368  -9.060 -22.920  0.00  0.00    +0.074 C 
ATOM      5  C   UNL     1      32.764 -10.278 -23.213  0.00  0.00    +0.071 C 
ATOM      6  C   UNL     1      33.281 -11.071 -24.251  0.00  0.00    +0.158 C 
ATOM      7  C   UNL     1      31.701 -10.373 -22.289  0.00  0.00    +0.122 C 
ATOM      8  C   UNL     1      34.478  -8.574 -23.614  0.00  0.00    +0.017 C 
ATOM      9  C   UNL     1      34.395 -10.602 -24.959  0.00  0.00    +0.092 C 
ATOM     10  C   UNL     1      34.982  -9.375 -24.645  0.00  0.00    +0.016 C 
ENDROOT
BRANCH   6  11
ATOM     11  O   UNL     1      32.705 -12.273 -24.560  0.00  0.00    -0.453 OA
BRANCH  11  13
ATOM     12 CL   UNL     1      35.055 -14.662 -20.708  0.00  0.00    -0.082 Cl
ATOM     13  C   UNL     1      33.327 -13.414 -24.093  0.00  0.00    +0.147 C 
ATOM     14  C   UNL     1      33.464 -14.525 -24.927  0.00  0.00    +0.048 C 
ATOM     15  C   UNL     1      33.820 -13.457 -22.789  0.00  0.00    +0.049 C 
ATOM     16  C   UNL     1      34.093 -15.677 -24.456  0.00  0.00    +0.072 C 
ATOM     17  C   UNL     1      34.448 -14.610 -22.317  0.00  0.00    +0.061 C 
ATOM     18  C   UNL     1      34.585 -15.720 -23.151  0.00  0.00    +0.022 C 
BRANCH  16  20
ATOM     19  N   UNL     1      34.345 -17.738 -26.003  0.00  0.00    -0.191 NA
ATOM     20  C   UNL     1      34.232 -16.814 -25.310  0.00  0.00    +0.101 C 
ENDBRANCH  16  20
ENDBRANCH  11  13
ENDBRANCH   6  11
BRANCH   2  21
ATOM     21  C   UNL     1      32.877  -7.280 -21.212  0.00  0.00    +0.159 C 
BRANCH  21  25
ATOM     22  N   UNL     1      30.961  -5.654 -21.103  0.00  0.00    -0.230 N 
ATOM     23  N   UNL     1      30.330  -4.641 -21.734  0.00  0.00    -0.128 NA
ATOM     24  N   UNL     1      30.832  -3.573 -23.853  0.00  0.00    -0.192 NA
ATOM     25  C   UNL     1      32.049  -6.148 -21.768  0.00  0.00    +0.071 C 
ATOM     26  C   UNL     1      32.129  -5.401 -22.911  0.00  0.00    +0.058 C 
ATOM     27  C   UNL     1      31.043  -4.475 -22.853  0.00  0.00    +0.049 C 
ATOM     28  C   UNL     1      33.083  -5.536 -23.908  0.00  0.00    +0.065 C 
ATOM     29  C   UNL     1      32.848  -4.602 -24.923  0.00  0.00    +0.001 C 
ATOM     30  C   UNL     1      31.767  -3.692 -24.850  0.00  0.00    +0.105 C 
ATOM     31  H   UNL     1      30.661  -6.009 -20.235  0.00  0.00    +0.175 HD
ENDBRANCH  21  25
ENDBRANCH   2  21
TORSDOF 5
ENDMDL
MODEL 5
REMARK VINA RESULT:     -10.0      3.623      6.222
REMARK  Name = 24988948
REMARK  5 active torsions:
REMARK  status: ('A' for Active; 'I' for Inactive)
REMARK    1  A    between atoms: N_2  and  C_21
REMARK    2  A    between atoms: C_6  and  O_11
REMARK    3  A    between atoms: O_11  and  C_13
REMARK    4  A    between atoms: C_16  and  C_20
REMARK    5  A    between atoms: C_21  and  C_25
REMARK                            x       y       z     vdW  Elec       q    Type
REMARK                         _______ _______ _______ _____ _____    ______ ____
ROOT
ATOM      1 CL   UNL     1      32.504 -13.944 -26.066  0.00  0.00    -0.079 Cl
ATOM      2  N   UNL     1      35.615 -17.094 -22.283  0.00  0.00    -0.205 N 
ATOM      3  N   UNL     1      35.379 -16.510 -21.096  0.00  0.00    -0.176 NA
ATOM      4  C   UNL     1      34.971 -16.504 -23.337  0.00  0.00    +0.074 C 
ATOM      5  C   UNL     1      34.257 -15.447 -22.784  0.00  0.00    +0.071 C 
ATOM      6  C   UNL     1      33.477 -14.631 -23.621  0.00  0.00    +0.158 C 
ATOM      7  C   UNL     1      34.551 -15.508 -21.405  0.00  0.00    +0.122 C 
ATOM      8  C   UNL     1      34.956 -16.803 -24.701  0.00  0.00    +0.017 C 
ATOM      9  C   UNL     1      33.448 -14.914 -24.993  0.00  0.00    +0.092 C 
ATOM     10  C   UNL     1      34.175 -15.981 -25.521  0.00  0.00    +0.016 C 
ENDROOT
BRANCH   6  11
ATOM     11  O   UNL     1      32.765 -13.584 -23.103  0.00  0.00    -0.453 OA
BRANCH  11  13
ATOM     12 CL   UNL     1      35.767 -10.587 -25.945  0.00  0.00    -0.082 Cl
ATOM     13  C   UNL     1      33.199 -12.308 -23.406  0.00  0.00    +0.147 C 
ATOM     14  C   UNL     1      32.684 -11.213 -22.711  0.00  0.00    +0.048 C 
ATOM     15  C   UNL     1      34.152 -12.114 -24.405  0.00  0.00    +0.049 C 
ATOM     16  C   UNL     1      33.122  -9.925 -23.017  0.00  0.00    +0.072 C 
ATOM     17  C   UNL     1      34.591 -10.826 -24.711  0.00  0.00    +0.061 C 
ATOM     18  C   UNL     1      34.076  -9.731 -24.017  0.00  0.00    +0.022 C 
BRANCH  16  20
ATOM     19  N   UNL     1      32.165  -7.893 -21.729  0.00  0.00    -0.191 NA
ATOM     20  C   UNL     1      32.594  -8.803 -22.306  0.00  0.00    +0.101 C 
ENDBRANCH  16  20
ENDBRANCH  11  13
ENDBRANCH   6  11
BRANCH   2  21
ATOM     21  C   UNL     1      36.490 -18.243 -22.339  0.00  0.00    +0.159 C 
BRANCH  21  25
ATOM     22  N   UNL     1      37.095 -19.848 -20.499  0.00  0.00    -0.230 N 
ATOM     23  N   UNL     1      36.626 -20.784 -19.646  0.00  0.00    -0.128 NA
ATOM     24  N   UNL     1      34.374 -21.637 -19.355  0.00  0.00    -0.192 NA
ATOM     25  C   UNL     1      36.148 -19.304 -21.322  0.00  0.00    +0.071 C 
ATOM     26  C   UNL     1      34.983 -19.931 -20.977  0.00  0.00    +0.058 C 
ATOM     27  C   UNL     1      35.321 -20.844 -19.932  0.00  0.00    +0.049 C 
ATOM     28  C   UNL     1      33.737 -19.706 -21.543  0.00  0.00    +0.065 C 
ATOM     29  C   UNL     1      32.781 -20.529 -20.938  0.00  0.00    +0.001 C 
ATOM     30  C   UNL     1      33.134 -21.428 -19.904  0.00  0.00    +0.105 C 
ATOM     31  H   UNL     1      38.042 -19.581 -20.527  0.00  0.00    +0.175 HD
ENDBRANCH  21  25
ENDBRANCH   2  21
TORSDOF 5
ENDMDL
MODEL 6
REMARK VINA RESULT:     -10.0     10.829     16.236
REMARK  Name = 24988948
REMARK  5 active torsions:
REMARK  status: ('A' for Active; 'I' for Inactive)
REMARK    1  A    between atoms: N_2  and  C_21
REMARK    2  A    between atoms: C_6  and  O_11
REMARK    3  A    between atoms: O_11  and  C_13
REMARK    4  A    between atoms: C_16  and  C_20
REMARK    5  A    between atoms: C_21  and  C_25
REMARK                            x       y       z     vdW  Elec       q    Type
REMARK                         _______ _______ _______ _____ _____    ______ ____
ROOT
ATOM      1 CL   UNL     1      31.034 -23.979 -14.054  0.00  0.00    -0.079 Cl
ATOM      2  N   UNL     1      34.648 -22.491 -18.372  0.00  0.00    -0.205 N 
ATOM      3  N   UNL     1      35.860 -22.463 -17.791  0.00  0.00    -0.176 NA
ATOM      4  C   UNL     1      33.627 -22.825 -17.523  0.00  0.00    +0.074 C 
ATOM      5  C   UNL     1      34.230 -23.030 -16.288  0.00  0.00    +0.071 C 
ATOM      6  C   UNL     1      33.437 -23.391 -15.186  0.00  0.00    +0.158 C 
ATOM      7  C   UNL     1      35.601 -22.792 -16.523  0.00  0.00    +0.122 C 
ATOM      8  C   UNL     1      32.253 -22.960 -17.732  0.00  0.00    +0.017 C 
ATOM      9  C   UNL     1      32.056 -23.533 -15.374  0.00  0.00    +0.092 C 
ATOM     10  C   UNL     1      31.476 -23.320 -16.626  0.00  0.00    +0.016 C 
ENDROOT
BRANCH   6  11
ATOM     11  O   UNL     1      34.005 -23.599 -13.958  0.00  0.00    -0.453 OA
BRANCH  11  13
ATOM     12 CL   UNL     1      38.561 -24.311 -11.768  0.00  0.00    -0.082 Cl
ATOM     13  C   UNL     1      35.188 -24.310 -13.918  0.00  0.00    +0.147 C 
ATOM     14  C   UNL     1      35.408 -25.350 -14.822  0.00  0.00    +0.048 C 
ATOM     15  C   UNL     1      36.164 -23.989 -12.974  0.00  0.00    +0.049 C 
ATOM     16  C   UNL     1      36.603 -26.068 -14.781  0.00  0.00    +0.072 C 
ATOM     17  C   UNL     1      37.359 -24.707 -12.933  0.00  0.00    +0.061 C 
ATOM     18  C   UNL     1      37.579 -25.747 -13.837  0.00  0.00    +0.022 C 
BRANCH  16  20
ATOM     19  N   UNL     1      37.010 -27.998 -16.459  0.00  0.00    -0.191 NA
ATOM     20  C   UNL     1      36.828 -27.133 -15.707  0.00  0.00    +0.101 C 
ENDBRANCH  16  20
ENDBRANCH  11  13
ENDBRANCH   6  11
BRANCH   2  21
ATOM     21  C   UNL     1      34.535 -22.180 -19.778  0.00  0.00    +0.159 C 
BRANCH  21  25
ATOM     22  N   UNL     1      36.579 -20.729 -19.565  0.00  0.00    -0.230 N 
ATOM     23  N   UNL     1      37.243 -19.669 -20.072  0.00  0.00    -0.128 NA
ATOM     24  N   UNL     1      36.678 -18.226 -21.938  0.00  0.00    -0.192 NA
ATOM     25  C   UNL     1      35.409 -21.028 -20.207  0.00  0.00    +0.071 C 
ATOM     26  C   UNL     1      35.309 -20.095 -21.202  0.00  0.00    +0.058 C 
ATOM     27  C   UNL     1      36.468 -19.268 -21.086  0.00  0.00    +0.049 C 
ATOM     28  C   UNL     1      34.279 -19.995 -22.125  0.00  0.00    +0.065 C 
ATOM     29  C   UNL     1      34.514 -18.920 -22.989  0.00  0.00    +0.001 C 
ATOM     30  C   UNL     1      35.668 -18.111 -22.859  0.00  0.00    +0.105 C 
ATOM     31  H   UNL     1      36.910 -21.244 -18.794  0.00  0.00    +0.175 HD
ENDBRANCH  21  25
ENDBRANCH   2  21
TORSDOF 5
ENDMDL
MODEL 7
REMARK VINA RESULT:     -10.0     10.180     15.779
REMARK  Name = 24988948
REMARK  5 active torsions:
REMARK  status: ('A' for Active; 'I' for Inactive)
REMARK    1  A    between atoms: N_2  and  C_21
REMARK    2  A    between atoms: C_6  and  O_11
REMARK    3  A    between atoms: O_11  and  C_13
REMARK    4  A    between atoms: C_16  and  C_20
REMARK    5  A    between atoms: C_21  and  C_25
REMARK                            x       y       z     vdW  Elec       q    Type
REMARK                         _______ _______ _______ _____ _____    ______ ____
ROOT
ATOM      1 CL   UNL     1      33.652 -23.963 -14.833  0.00  0.00    -0.079 Cl
ATOM      2  N   UNL     1      35.797 -21.521 -19.665  0.00  0.00    -0.205 N 
ATOM      3  N   UNL     1      37.004 -21.062 -19.294  0.00  0.00    -0.176 NA
ATOM      4  C   UNL     1      35.101 -22.145 -18.664  0.00  0.00    +0.074 C 
ATOM      5  C   UNL     1      35.930 -22.083 -17.550  0.00  0.00    +0.071 C 
ATOM      6  C   UNL     1      35.496 -22.646 -16.338  0.00  0.00    +0.158 C 
ATOM      7  C   UNL     1      37.081 -21.407 -18.006  0.00  0.00    +0.122 C 
ATOM      8  C   UNL     1      33.840 -22.744 -18.644  0.00  0.00    +0.017 C 
ATOM      9  C   UNL     1      34.234 -23.253 -16.296  0.00  0.00    +0.092 C 
ATOM     10  C   UNL     1      33.422 -23.300 -17.430  0.00  0.00    +0.016 C 
ENDROOT
BRANCH   6  11
ATOM     11  O   UNL     1      36.292 -22.600 -15.225  0.00  0.00    -0.453 OA
BRANCH  11  13
ATOM     12 CL   UNL     1      37.823 -27.469 -15.149  0.00  0.00    -0.082 Cl
ATOM     13  C   UNL     1      36.448 -23.768 -14.506  0.00  0.00    +0.147 C 
ATOM     14  C   UNL     1      36.061 -23.820 -13.167  0.00  0.00    +0.048 C 
ATOM     15  C   UNL     1      36.992 -24.897 -15.119  0.00  0.00    +0.049 C 
ATOM     16  C   UNL     1      36.218 -25.001 -12.441  0.00  0.00    +0.072 C 
ATOM     17  C   UNL     1      37.151 -26.077 -14.393  0.00  0.00    +0.061 C 
ATOM     18  C   UNL     1      36.763 -26.130 -13.054  0.00  0.00    +0.022 C 
BRANCH  16  20
ATOM     19  N   UNL     1      35.500 -25.096  -9.956  0.00  0.00    -0.191 NA
ATOM     20  C   UNL     1      35.822 -25.053 -11.069  0.00  0.00    +0.101 C 
ENDBRANCH  16  20
ENDBRANCH  11  13
ENDBRANCH   6  11
BRANCH   2  21
ATOM     21  C   UNL     1      35.359 -21.325 -21.028  0.00  0.00    +0.159 C 
BRANCH  21  25
ATOM     22  N   UNL     1      35.742 -18.875 -20.604  0.00  0.00    -0.230 N 
ATOM     23  N   UNL     1      35.693 -17.636 -21.140  0.00  0.00    -0.128 NA
ATOM     24  N   UNL     1      35.044 -16.928 -23.367  0.00  0.00    -0.192 NA
ATOM     25  C   UNL     1      35.366 -19.877 -21.454  0.00  0.00    +0.071 C 
ATOM     26  C   UNL     1      35.051 -19.243 -22.625  0.00  0.00    +0.058 C 
ATOM     27  C   UNL     1      35.268 -17.851 -22.390  0.00  0.00    +0.049 C 
ATOM     28  C   UNL     1      34.613 -19.854 -23.790  0.00  0.00    +0.065 C 
ATOM     29  C   UNL     1      34.389 -18.890 -24.779  0.00  0.00    +0.001 C 
ATOM     30  C   UNL     1      34.609 -17.514 -24.529  0.00  0.00    +0.105 C 
ATOM     31  H   UNL     1      36.025 -19.041 -19.676  0.00  0.00    +0.175 HD
ENDBRANCH  21  25
ENDBRANCH   2  21
TORSDOF 5
ENDMDL
MODEL 8
REMARK VINA RESULT:      -9.9     11.227     16.334
REMARK  Name = 24988948
REMARK  5 active torsions:
REMARK  status: ('A' for Active; 'I' for Inactive)
REMARK    1  A    between atoms: N_2  and  C_21
REMARK    2  A    between atoms: C_6  and  O_11
REMARK    3  A    between atoms: O_11  and  C_13
REMARK    4  A    between atoms: C_16  and  C_20
REMARK    5  A    between atoms: C_21  and  C_25
REMARK                            x       y       z     vdW  Elec       q    Type
REMARK                         _______ _______ _______ _____ _____    ______ ____
ROOT
ATOM      1 CL   UNL     1      30.823 -24.296 -13.610  0.00  0.00    -0.079 Cl
ATOM      2  N   UNL     1      34.346 -22.701 -17.965  0.00  0.00    -0.205 N 
ATOM      3  N   UNL     1      35.576 -22.751 -17.427  0.00  0.00    -0.176 NA
ATOM      4  C   UNL     1      33.341 -23.044 -17.100  0.00  0.00    +0.074 C 
ATOM      5  C   UNL     1      33.977 -23.341 -15.900  0.00  0.00    +0.071 C 
ATOM      6  C   UNL     1      33.207 -23.735 -14.792  0.00  0.00    +0.158 C 
ATOM      7  C   UNL     1      35.348 -23.141 -16.170  0.00  0.00    +0.122 C 
ATOM      8  C   UNL     1      31.957 -23.116 -17.267  0.00  0.00    +0.017 C 
ATOM      9  C   UNL     1      31.817 -23.814 -14.939  0.00  0.00    +0.092 C 
ATOM     10  C   UNL     1      31.204 -23.510 -16.155  0.00  0.00    +0.016 C 
ENDROOT
BRANCH   6  11
ATOM     11  O   UNL     1      33.808 -24.033 -13.599  0.00  0.00    -0.453 OA
BRANCH  11  13
ATOM     12 CL   UNL     1      37.152 -27.371 -15.533  0.00  0.00    -0.082 Cl
ATOM     13  C   UNL     1      35.107 -24.502 -13.641  0.00  0.00    +0.147 C 
ATOM     14  C   UNL     1      36.089 -23.902 -12.853  0.00  0.00    +0.048 C 
ATOM     15  C   UNL     1      35.435 -25.575 -14.468  0.00  0.00    +0.049 C 
ATOM     16  C   UNL     1      37.401 -24.375 -12.894  0.00  0.00    +0.072 C 
ATOM     17  C   UNL     1      36.747 -26.048 -14.510  0.00  0.00    +0.061 C 
ATOM     18  C   UNL     1      37.730 -25.448 -13.722  0.00  0.00    +0.022 C 
BRANCH  16  20
ATOM     19  N   UNL     1      39.225 -23.261 -11.433  0.00  0.00    -0.191 NA
ATOM     20  C   UNL     1      38.407 -23.760 -12.087  0.00  0.00    +0.101 C 
ENDBRANCH  16  20
ENDBRANCH  11  13
ENDBRANCH   6  11
BRANCH   2  21
ATOM     21  C   UNL     1      34.198 -22.307 -19.347  0.00  0.00    +0.159 C 
BRANCH  21  25
ATOM     22  N   UNL     1      36.471 -21.237 -19.211  0.00  0.00    -0.230 N 
ATOM     23  N   UNL     1      37.285 -20.295 -19.731  0.00  0.00    -0.128 NA
ATOM     24  N   UNL     1      36.894 -18.727 -21.541  0.00  0.00    -0.192 NA
ATOM     25  C   UNL     1      35.238 -21.312 -19.798  0.00  0.00    +0.071 C 
ATOM     26  C   UNL     1      35.256 -20.350 -20.770  0.00  0.00    +0.058 C 
ATOM     27  C   UNL     1      36.545 -19.740 -20.698  0.00  0.00    +0.049 C 
ATOM     28  C   UNL     1      34.217 -20.049 -21.638  0.00  0.00    +0.065 C 
ATOM     29  C   UNL     1      34.596 -19.008 -22.494  0.00  0.00    +0.001 C 
ATOM     30  C   UNL     1      35.878 -18.415 -22.408  0.00  0.00    +0.105 C 
ATOM     31  H   UNL     1      36.742 -21.822 -18.467  0.00  0.00    +0.175 HD
ENDBRANCH  21  25
ENDBRANCH   2  21
TORSDOF 5
ENDMDL
MODEL 9
REMARK VINA RESULT:      -9.9      8.625     12.939
REMARK  Name = 24988948
REMARK  5 active torsions:
REMARK  status: ('A' for Active; 'I' for Inactive)
REMARK    1  A    between atoms: N_2  and  C_21
REMARK    2  A    between atoms: C_6  and  O_11
REMARK    3  A    between atoms: O_11  and  C_13
REMARK    4  A    between atoms: C_16  and  C_20
REMARK    5  A    between atoms: C_21  and  C_25
REMARK                            x       y       z     vdW  Elec       q    Type
REMARK                         _______ _______ _______ _____ _____    ______ ____
ROOT
ATOM      1 CL   UNL     1      33.049 -19.912 -22.139  0.00  0.00    -0.079 Cl
ATOM      2  N   UNL     1      35.450 -22.637 -17.586  0.00  0.00    -0.205 N 
ATOM      3  N   UNL     1      36.768 -22.417 -17.729  0.00  0.00    -0.176 NA
ATOM      4  C   UNL     1      34.678 -22.075 -18.567  0.00  0.00    +0.074 C 
ATOM      5  C   UNL     1      35.574 -21.437 -19.418  0.00  0.00    +0.071 C 
ATOM      6  C   UNL     1      35.086 -20.754 -20.544  0.00  0.00    +0.158 C 
ATOM      7  C   UNL     1      36.839 -21.686 -18.845  0.00  0.00    +0.122 C 
ATOM      8  C   UNL     1      33.297 -22.074 -18.775  0.00  0.00    +0.017 C 
ATOM      9  C   UNL     1      33.703 -20.740 -20.771  0.00  0.00    +0.092 C 
ATOM     10  C   UNL     1      32.826 -21.390 -19.901  0.00  0.00    +0.016 C 
ENDROOT
BRANCH   6  11
ATOM     11  O   UNL     1      35.945 -20.117 -21.398  0.00  0.00    -0.453 OA
BRANCH  11  13
ATOM     12 CL   UNL     1      34.971 -15.235 -20.265  0.00  0.00    -0.082 Cl
ATOM     13  C   UNL     1      35.586 -18.860 -21.842  0.00  0.00    +0.147 C 
ATOM     14  C   UNL     1      35.334 -18.644 -23.197  0.00  0.00    +0.048 C 
ATOM     15  C   UNL     1      35.472 -17.806 -20.936  0.00  0.00    +0.049 C 
ATOM     16  C   UNL     1      34.970 -17.375 -23.645  0.00  0.00    +0.072 C 
ATOM     17  C   UNL     1      35.109 -16.536 -21.383  0.00  0.00    +0.061 C 
ATOM     18  C   UNL     1      34.857 -16.320 -22.739  0.00  0.00    +0.022 C 
BRANCH  16  20
ATOM     19  N   UNL     1      34.506 -16.976 -26.161  0.00  0.00    -0.191 NA
ATOM     20  C   UNL     1      34.714 -17.154 -25.034  0.00  0.00    +0.101 C 
ENDBRANCH  16  20
ENDBRANCH  11  13
ENDBRANCH   6  11
BRANCH   2  21
ATOM     21  C   UNL     1      34.986 -23.413 -16.460  0.00  0.00    +0.159 C 
BRANCH  21  25
ATOM     22  N   UNL     1      36.721 -22.681 -14.792  0.00  0.00    -0.230 N 
ATOM     23  N   UNL     1      37.655 -23.096 -13.910  0.00  0.00    -0.128 NA
ATOM     24  N   UNL     1      38.336 -25.344 -13.306  0.00  0.00    -0.192 NA
ATOM     25  C   UNL     1      36.063 -23.689 -15.440  0.00  0.00    +0.071 C 
ATOM     26  C   UNL     1      36.610 -24.840 -14.942  0.00  0.00    +0.058 C 
ATOM     27  C   UNL     1      37.595 -24.430 -13.993  0.00  0.00    +0.049 C 
ATOM     28  C   UNL     1      36.258 -26.132 -15.302  0.00  0.00    +0.065 C 
ATOM     29  C   UNL     1      37.029 -27.054 -14.586  0.00  0.00    +0.001 C 
ATOM     30  C   UNL     1      38.002 -26.630 -13.650  0.00  0.00    +0.105 C 
ATOM     31  H   UNL     1      36.530 -21.729 -14.955  0.00  0.00    +0.175 HD
ENDBRANCH  21  25
ENDBRANCH   2  21
TORSDOF 5
ENDMDL
