MODEL 1
REMARK VINA RESULT:     -12.3      0.000      0.000
REMARK  Name = 51049992
REMARK  10 active torsions:
REMARK  status: ('A' for Active; 'I' for Inactive)
REMARK    1  A    between atoms: C_1  and  C_7
REMARK    2  A    between atoms: C_6  and  C_23
REMARK    3  A    between atoms: C_7  and  N_8
REMARK    4  A    between atoms: C_23  and  O_24
REMARK    5  A    between atoms: O_24  and  C_25
REMARK    6  A    between atoms: C_26  and  C_31
REMARK    7  A    between atoms: C_31  and  C_32
REMARK    8  A    between atoms: C_31  and  C_35
REMARK    9  A    between atoms: C_35  and  C_37
REMARK   10  A    between atoms: C_37  and  O_38
REMARK                            x       y       z     vdW  Elec       q    Type
REMARK                         _______ _______ _______ _____ _____    ______ ____
ROOT
ATOM      1  C   UNL     1      33.822 -13.764 -23.319  0.00  0.00    -0.043 C 
ATOM      2  C   UNL     1      32.991 -13.984 -22.220  0.00  0.00    -0.007 C 
ATOM      3  C   UNL     1      33.852 -12.509 -23.928  0.00  0.00    -0.007 C 
ATOM      4  C   UNL     1      32.193 -12.951 -21.731  0.00  0.00    -0.001 C 
ATOM      5  C   UNL     1      33.054 -11.475 -23.439  0.00  0.00    -0.001 C 
ATOM      6  C   UNL     1      32.224 -11.696 -22.340  0.00  0.00    +0.021 C 
ENDROOT
BRANCH   1   7
ATOM      7  C   UNL     1      34.683 -14.879 -23.847  0.00  0.00    -0.050 C 
BRANCH   7   8
ATOM      8  N   UNL     1      34.478 -16.123 -23.105  0.00  0.00    +0.390 N 
ATOM      9  C   UNL     1      35.302 -18.557 -21.661  0.00  0.00    +0.033 C 
ATOM     10  C   UNL     1      34.795 -17.292 -20.945  0.00  0.00    -0.015 C 
ATOM     11  C   UNL     1      34.785 -18.581 -23.111  0.00  0.00    -0.015 C 
ATOM     12  C   UNL     1      35.046 -17.260 -23.842  0.00  0.00    -0.076 C 
ATOM     13  C   UNL     1      35.056 -16.020 -21.759  0.00  0.00    -0.076 C 
ATOM     14  C   UNL     1      34.926 -19.817 -20.909  0.00  0.00    -0.019 C 
ATOM     15  C   UNL     1      36.825 -18.662 -21.606  0.00  0.00    -0.023 C 
ATOM     16  C   UNL     1      36.090 -20.495 -20.513  0.00  0.00    -0.004 C 
ATOM     17  C   UNL     1      37.254 -19.756 -20.958  0.00  0.00    -0.005 C 
ATOM     18  C   UNL     1      33.673 -20.321 -20.601  0.00  0.00    -0.004 C 
ATOM     19  C   UNL     1      36.024 -21.684 -19.804  0.00  0.00    -0.000 C 
ATOM     20  C   UNL     1      33.596 -21.520 -19.888  0.00  0.00    -0.000 C 
ATOM     21  C   UNL     1      34.762 -22.196 -19.492  0.00  0.00    -0.000 C 
ATOM     22  H   UNL     1      33.477 -16.284 -23.005  0.00  0.00    -0.079 HD
ENDBRANCH   7   8
ENDBRANCH   1   7
BRANCH   6  23
ATOM     23  C   UNL     1      31.373 -10.591 -21.814  0.00  0.00    +0.232 C 
BRANCH  23  24
ATOM     24  O   UNL     1      32.199  -9.609 -21.199  0.00  0.00    -0.471 OA
BRANCH  24  25
ATOM     25  C   UNL     1      32.193  -8.359 -21.758  0.00  0.00    +0.139 C 
ATOM     26  C   UNL     1      32.184  -5.812 -22.896  0.00  0.00    -0.010 C 
ATOM     27  C   UNL     1      32.074  -8.212 -23.140  0.00  0.00    +0.037 C 
ATOM     28  C   UNL     1      32.308  -7.231 -20.945  0.00  0.00    +0.037 C 
ATOM     29  C   UNL     1      32.069  -6.939 -23.709  0.00  0.00    -0.000 C 
ATOM     30  C   UNL     1      32.304  -5.957 -21.514  0.00  0.00    -0.000 C 
BRANCH  26  31
ATOM     31  C   UNL     1      32.179  -4.450 -23.504  0.00  0.00    +0.097 C 
BRANCH  31  32
ATOM     32  C   UNL     1      32.725  -4.463 -24.889  0.00  0.00    -0.087 C 
ATOM     33  C   UNL     1      33.167  -4.457 -26.007  0.00  0.00    -0.090 C 
ATOM     34  C   UNL     1      33.701  -4.449 -27.367  0.00  0.00    +0.090 C 
ENDBRANCH  31  32
BRANCH  31  35
ATOM     35  C   UNL     1      30.766  -3.805 -23.497  0.00  0.00    +0.127 C 
BRANCH  35  37
ATOM     36  O   UNL     1      29.681  -1.914 -22.401  0.00  0.00    -0.250 OA
ATOM     37  C   UNL     1      30.700  -2.462 -22.796  0.00  0.00    +0.315 C 
BRANCH  37  38
ATOM     38  O   UNL     1      31.939  -1.926 -22.640  0.00  0.00    -0.480 OA
ATOM     39  H   UNL     1      32.036  -1.008 -22.486  0.00  0.00    +0.295 HD
ENDBRANCH  37  38
ENDBRANCH  35  37
ENDBRANCH  31  35
ENDBRANCH  26  31
ENDBRANCH  24  25
ENDBRANCH  23  24
ENDBRANCH   6  23
TORSDOF 10
ENDMDL
MODEL 2
REMARK VINA RESULT:     -12.2      5.986     14.435
REMARK  Name = 51049992
REMARK  10 active torsions:
REMARK  status: ('A' for Active; 'I' for Inactive)
REMARK    1  A    between atoms: C_1  and  C_7
REMARK    2  A    between atoms: C_6  and  C_23
REMARK    3  A    between atoms: C_7  and  N_8
REMARK    4  A    between atoms: C_23  and  O_24
REMARK    5  A    between atoms: O_24  and  C_25
REMARK    6  A    between atoms: C_26  and  C_31
REMARK    7  A    between atoms: C_31  and  C_32
REMARK    8  A    between atoms: C_31  and  C_35
REMARK    9  A    between atoms: C_35  and  C_37
REMARK   10  A    between atoms: C_37  and  O_38
REMARK                            x       y       z     vdW  Elec       q    Type
REMARK                         _______ _______ _______ _____ _____    ______ ____
ROOT
ATOM      1  C   UNL     1      35.264 -18.133 -23.106  0.00  0.00    -0.043 C 
ATOM      2  C   UNL     1      36.482 -18.072 -22.429  0.00  0.00    -0.007 C 
ATOM      3  C   UNL     1      34.332 -19.118 -22.776  0.00  0.00    -0.007 C 
ATOM      4  C   UNL     1      36.768 -18.995 -21.423  0.00  0.00    -0.001 C 
ATOM      5  C   UNL     1      34.618 -20.040 -21.770  0.00  0.00    -0.001 C 
ATOM      6  C   UNL     1      35.836 -19.979 -21.093  0.00  0.00    +0.021 C 
ENDROOT
BRANCH   1   7
ATOM      7  C   UNL     1      34.956 -17.138 -24.192  0.00  0.00    -0.050 C 
BRANCH   7   8
ATOM      8  N   UNL     1      34.206 -15.989 -23.681  0.00  0.00    +0.390 N 
ATOM      9  C   UNL     1      33.520 -13.136 -23.403  0.00  0.00    +0.033 C 
ATOM     10  C   UNL     1      32.692 -14.116 -24.255  0.00  0.00    -0.015 C 
ATOM     11  C   UNL     1      34.314 -13.912 -22.336  0.00  0.00    -0.015 C 
ATOM     12  C   UNL     1      35.094 -15.088 -22.933  0.00  0.00    -0.076 C 
ATOM     13  C   UNL     1      33.534 -15.284 -24.779  0.00  0.00    -0.076 C 
ATOM     14  C   UNL     1      32.655 -12.057 -22.786  0.00  0.00    -0.019 C 
ATOM     15  C   UNL     1      34.438 -12.275 -24.269  0.00  0.00    -0.023 C 
ATOM     16  C   UNL     1      33.059 -10.799 -23.260  0.00  0.00    -0.004 C 
ATOM     17  C   UNL     1      34.168 -10.963 -24.179  0.00  0.00    -0.005 C 
ATOM     18  C   UNL     1      31.605 -12.173 -21.889  0.00  0.00    -0.004 C 
ATOM     19  C   UNL     1      32.426  -9.638 -22.848  0.00  0.00    -0.000 C 
ATOM     20  C   UNL     1      30.961 -11.007 -21.468  0.00  0.00    -0.000 C 
ATOM     21  C   UNL     1      31.368  -9.750 -21.943  0.00  0.00    -0.000 C 
ATOM     22  H   UNL     1      33.489 -16.325 -23.039  0.00  0.00    -0.079 HD
ENDBRANCH   7   8
ENDBRANCH   1   7
BRANCH   6  23
ATOM     23  C   UNL     1      36.140 -20.963 -20.016  0.00  0.00    +0.232 C 
BRANCH  23  24
ATOM     24  O   UNL     1      35.068 -21.892 -19.906  0.00  0.00    -0.471 OA
BRANCH  24  25
ATOM     25  C   UNL     1      34.825 -22.411 -18.662  0.00  0.00    +0.139 C 
ATOM     26  C   UNL     1      34.332 -23.472 -16.130  0.00  0.00    -0.010 C 
ATOM     27  C   UNL     1      35.826 -22.392 -17.691  0.00  0.00    +0.037 C 
ATOM     28  C   UNL     1      33.578 -22.962 -18.367  0.00  0.00    +0.037 C 
ATOM     29  C   UNL     1      35.579 -22.922 -16.424  0.00  0.00    -0.000 C 
ATOM     30  C   UNL     1      33.332 -23.493 -17.101  0.00  0.00    -0.000 C 
BRANCH  26  31
ATOM     31  C   UNL     1      34.067 -24.039 -14.776  0.00  0.00    +0.097 C 
BRANCH  31  32
ATOM     32  C   UNL     1      35.209 -23.805 -13.849  0.00  0.00    -0.087 C 
ATOM     33  C   UNL     1      36.141 -23.626 -13.112  0.00  0.00    -0.090 C 
ATOM     34  C   UNL     1      37.274 -23.410 -12.215  0.00  0.00    +0.090 C 
ENDBRANCH  31  32
BRANCH  31  35
ATOM     35  C   UNL     1      32.756 -23.489 -14.152  0.00  0.00    +0.127 C 
BRANCH  35  37
ATOM     36  O   UNL     1      30.897 -24.352 -12.827  0.00  0.00    -0.250 OA
ATOM     37  C   UNL     1      31.858 -24.555 -13.555  0.00  0.00    +0.315 C 
BRANCH  37  38
ATOM     38  O   UNL     1      32.243 -25.799 -13.944  0.00  0.00    -0.480 OA
ATOM     39  H   UNL     1      32.070 -26.537 -13.394  0.00  0.00    +0.295 HD
ENDBRANCH  37  38
ENDBRANCH  35  37
ENDBRANCH  31  35
ENDBRANCH  26  31
ENDBRANCH  24  25
ENDBRANCH  23  24
ENDBRANCH   6  23
TORSDOF 10
ENDMDL
MODEL 3
REMARK VINA RESULT:     -12.2      6.017     14.503
REMARK  Name = 51049992
REMARK  10 active torsions:
REMARK  status: ('A' for Active; 'I' for Inactive)
REMARK    1  A    between atoms: C_1  and  C_7
REMARK    2  A    between atoms: C_6  and  C_23
REMARK    3  A    between atoms: C_7  and  N_8
REMARK    4  A    between atoms: C_23  and  O_24
REMARK    5  A    between atoms: O_24  and  C_25
REMARK    6  A    between atoms: C_26  and  C_31
REMARK    7  A    between atoms: C_31  and  C_32
REMARK    8  A    between atoms: C_31  and  C_35
REMARK    9  A    between atoms: C_35  and  C_37
REMARK   10  A    between atoms: C_37  and  O_38
REMARK                            x       y       z     vdW  Elec       q    Type
REMARK                         _______ _______ _______ _____ _____    ______ ____
ROOT
ATOM      1  C   UNL     1      35.264 -18.203 -23.073  0.00  0.00    -0.043 C 
ATOM      2  C   UNL     1      36.470 -18.119 -22.377  0.00  0.00    -0.007 C 
ATOM      3  C   UNL     1      34.345 -19.204 -22.755  0.00  0.00    -0.007 C 
ATOM      4  C   UNL     1      36.758 -19.034 -21.365  0.00  0.00    -0.001 C 
ATOM      5  C   UNL     1      34.632 -20.120 -21.742  0.00  0.00    -0.001 C 
ATOM      6  C   UNL     1      35.838 -20.035 -21.048  0.00  0.00    +0.021 C 
ENDROOT
BRANCH   1   7
ATOM      7  C   UNL     1      34.954 -17.216 -24.165  0.00  0.00    -0.050 C 
BRANCH   7   8
ATOM      8  N   UNL     1      34.207 -16.063 -23.661  0.00  0.00    +0.390 N 
ATOM      9  C   UNL     1      33.531 -13.206 -23.395  0.00  0.00    +0.033 C 
ATOM     10  C   UNL     1      32.703 -14.185 -24.247  0.00  0.00    -0.015 C 
ATOM     11  C   UNL     1      34.317 -13.982 -22.322  0.00  0.00    -0.015 C 
ATOM     12  C   UNL     1      35.095 -15.163 -22.912  0.00  0.00    -0.076 C 
ATOM     13  C   UNL     1      33.543 -15.358 -24.765  0.00  0.00    -0.076 C 
ATOM     14  C   UNL     1      32.667 -12.122 -22.785  0.00  0.00    -0.019 C 
ATOM     15  C   UNL     1      34.456 -12.351 -24.259  0.00  0.00    -0.023 C 
ATOM     16  C   UNL     1      33.079 -10.867 -23.260  0.00  0.00    -0.004 C 
ATOM     17  C   UNL     1      34.191 -11.038 -24.174  0.00  0.00    -0.005 C 
ATOM     18  C   UNL     1      31.613 -12.231 -21.892  0.00  0.00    -0.004 C 
ATOM     19  C   UNL     1      32.448  -9.702 -22.855  0.00  0.00    -0.000 C 
ATOM     20  C   UNL     1      30.971 -11.061 -21.477  0.00  0.00    -0.000 C 
ATOM     21  C   UNL     1      31.385  -9.807 -21.955  0.00  0.00    -0.000 C 
ATOM     22  H   UNL     1      33.485 -16.394 -23.021  0.00  0.00    -0.079 HD
ENDBRANCH   7   8
ENDBRANCH   1   7
BRANCH   6  23
ATOM     23  C   UNL     1      36.144 -21.011 -19.963  0.00  0.00    +0.232 C 
BRANCH  23  24
ATOM     24  O   UNL     1      35.089 -21.961 -19.871  0.00  0.00    -0.471 OA
BRANCH  24  25
ATOM     25  C   UNL     1      34.758 -22.396 -18.615  0.00  0.00    +0.139 C 
ATOM     26  C   UNL     1      34.083 -23.279 -16.056  0.00  0.00    -0.010 C 
ATOM     27  C   UNL     1      33.449 -22.790 -18.335  0.00  0.00    +0.037 C 
ATOM     28  C   UNL     1      35.729 -22.443 -17.615  0.00  0.00    +0.037 C 
ATOM     29  C   UNL     1      33.112 -23.232 -17.056  0.00  0.00    -0.000 C 
ATOM     30  C   UNL     1      35.391 -22.884 -16.335  0.00  0.00    -0.000 C 
BRANCH  26  31
ATOM     31  C   UNL     1      33.723 -23.751 -14.687  0.00  0.00    +0.097 C 
BRANCH  31  32
ATOM     32  C   UNL     1      32.367 -24.363 -14.656  0.00  0.00    -0.087 C 
ATOM     33  C   UNL     1      31.266 -24.845 -14.640  0.00  0.00    -0.090 C 
ATOM     34  C   UNL     1      29.926 -25.428 -14.618  0.00  0.00    +0.090 C 
ENDBRANCH  31  32
BRANCH  31  35
ATOM     35  C   UNL     1      34.769 -24.744 -14.112  0.00  0.00    +0.127 C 
BRANCH  35  37
ATOM     36  O   UNL     1      34.949 -25.004 -11.692  0.00  0.00    -0.250 OA
ATOM     37  C   UNL     1      35.246 -24.402 -12.714  0.00  0.00    +0.315 C 
BRANCH  37  38
ATOM     38  O   UNL     1      36.079 -23.328 -12.726  0.00  0.00    -0.480 OA
ATOM     39  H   UNL     1      36.735 -23.237 -12.065  0.00  0.00    +0.295 HD
ENDBRANCH  37  38
ENDBRANCH  35  37
ENDBRANCH  31  35
ENDBRANCH  26  31
ENDBRANCH  24  25
ENDBRANCH  23  24
ENDBRANCH   6  23
TORSDOF 10
ENDMDL
MODEL 4
REMARK VINA RESULT:     -12.2      4.671      9.169
REMARK  Name = 51049992
REMARK  10 active torsions:
REMARK  status: ('A' for Active; 'I' for Inactive)
REMARK    1  A    between atoms: C_1  and  C_7
REMARK    2  A    between atoms: C_6  and  C_23
REMARK    3  A    between atoms: C_7  and  N_8
REMARK    4  A    between atoms: C_23  and  O_24
REMARK    5  A    between atoms: O_24  and  C_25
REMARK    6  A    between atoms: C_26  and  C_31
REMARK    7  A    between atoms: C_31  and  C_32
REMARK    8  A    between atoms: C_31  and  C_35
REMARK    9  A    between atoms: C_35  and  C_37
REMARK   10  A    between atoms: C_37  and  O_38
REMARK                            x       y       z     vdW  Elec       q    Type
REMARK                         _______ _______ _______ _____ _____    ______ ____
ROOT
ATOM      1  C   UNL     1      33.680 -21.976 -19.103  0.00  0.00    -0.043 C 
ATOM      2  C   UNL     1      32.851 -21.167 -19.880  0.00  0.00    -0.007 C 
ATOM      3  C   UNL     1      35.063 -21.937 -19.287  0.00  0.00    -0.007 C 
ATOM      4  C   UNL     1      33.404 -20.321 -20.841  0.00  0.00    -0.001 C 
ATOM      5  C   UNL     1      35.615 -21.090 -20.247  0.00  0.00    -0.001 C 
ATOM      6  C   UNL     1      34.786 -20.282 -21.024  0.00  0.00    +0.021 C 
ENDROOT
BRANCH   1   7
ATOM      7  C   UNL     1      33.083 -22.890 -18.067  0.00  0.00    -0.050 C 
BRANCH   7   8
ATOM      8  N   UNL     1      33.919 -22.974 -16.868  0.00  0.00    +0.390 N 
ATOM      9  C   UNL     1      35.722 -24.279 -14.936  0.00  0.00    +0.033 C 
ATOM     10  C   UNL     1      36.216 -23.275 -15.994  0.00  0.00    -0.015 C 
ATOM     11  C   UNL     1      34.224 -24.054 -14.661  0.00  0.00    -0.015 C 
ATOM     12  C   UNL     1      33.399 -23.996 -15.950  0.00  0.00    -0.076 C 
ATOM     13  C   UNL     1      35.315 -23.247 -17.233  0.00  0.00    -0.076 C 
ATOM     14  C   UNL     1      36.545 -24.208 -13.666  0.00  0.00    -0.019 C 
ATOM     15  C   UNL     1      36.006 -25.721 -15.354  0.00  0.00    -0.023 C 
ATOM     16  C   UNL     1      37.175 -25.441 -13.442  0.00  0.00    -0.004 C 
ATOM     17  C   UNL     1      36.824 -26.363 -14.505  0.00  0.00    -0.005 C 
ATOM     18  C   UNL     1      36.721 -23.152 -12.787  0.00  0.00    -0.004 C 
ATOM     19  C   UNL     1      37.991 -25.643 -12.341  0.00  0.00    -0.000 C 
ATOM     20  C   UNL     1      37.543 -23.345 -11.673  0.00  0.00    -0.000 C 
ATOM     21  C   UNL     1      38.172 -24.581 -11.452  0.00  0.00    -0.000 C 
ATOM     22  H   UNL     1      33.891 -22.077 -16.385  0.00  0.00    -0.079 HD
ENDBRANCH   7   8
ENDBRANCH   1   7
BRANCH   6  23
ATOM     23  C   UNL     1      35.377 -19.375 -22.049  0.00  0.00    +0.232 C 
BRANCH  23  24
ATOM     24  O   UNL     1      35.917 -18.225 -21.408  0.00  0.00    -0.471 OA
BRANCH  24  25
ATOM     25  C   UNL     1      35.364 -17.016 -21.740  0.00  0.00    +0.139 C 
ATOM     26  C   UNL     1      34.236 -14.556 -22.416  0.00  0.00    -0.010 C 
ATOM     27  C   UNL     1      34.985 -16.123 -20.738  0.00  0.00    +0.037 C 
ATOM     28  C   UNL     1      35.179 -16.679 -23.080  0.00  0.00    +0.037 C 
ATOM     29  C   UNL     1      34.421 -14.893 -21.076  0.00  0.00    -0.000 C 
ATOM     30  C   UNL     1      34.614 -15.449 -23.419  0.00  0.00    -0.000 C 
BRANCH  26  31
ATOM     31  C   UNL     1      33.633 -13.241 -22.779  0.00  0.00    +0.097 C 
BRANCH  31  32
ATOM     32  C   UNL     1      33.551 -13.062 -24.255  0.00  0.00    -0.087 C 
ATOM     33  C   UNL     1      33.469 -12.926 -25.446  0.00  0.00    -0.090 C 
ATOM     34  C   UNL     1      33.370 -12.764 -26.895  0.00  0.00    +0.090 C 
ENDBRANCH  31  32
BRANCH  31  35
ATOM     35  C   UNL     1      32.232 -13.038 -22.140  0.00  0.00    +0.127 C 
BRANCH  35  37
ATOM     36  O   UNL     1      32.479 -10.619 -22.354  0.00  0.00    -0.250 OA
ATOM     37  C   UNL     1      31.813 -11.586 -22.014  0.00  0.00    +0.315 C 
BRANCH  37  38
ATOM     38  O   UNL     1      30.569 -11.477 -21.476  0.00  0.00    -0.480 OA
ATOM     39  H   UNL     1      30.065 -12.246 -21.302  0.00  0.00    +0.295 HD
ENDBRANCH  37  38
ENDBRANCH  35  37
ENDBRANCH  31  35
ENDBRANCH  26  31
ENDBRANCH  24  25
ENDBRANCH  23  24
ENDBRANCH   6  23
TORSDOF 10
ENDMDL
MODEL 5
REMARK VINA RESULT:     -12.1      4.906     13.837
REMARK  Name = 51049992
REMARK  10 active torsions:
REMARK  status: ('A' for Active; 'I' for Inactive)
REMARK    1  A    between atoms: C_1  and  C_7
REMARK    2  A    between atoms: C_6  and  C_23
REMARK    3  A    between atoms: C_7  and  N_8
REMARK    4  A    between atoms: C_23  and  O_24
REMARK    5  A    between atoms: O_24  and  C_25
REMARK    6  A    between atoms: C_26  and  C_31
REMARK    7  A    between atoms: C_31  and  C_32
REMARK    8  A    between atoms: C_31  and  C_35
REMARK    9  A    between atoms: C_35  and  C_37
REMARK   10  A    between atoms: C_37  and  O_38
REMARK                            x       y       z     vdW  Elec       q    Type
REMARK                         _______ _______ _______ _____ _____    ______ ____
ROOT
ATOM      1  C   UNL     1      34.164 -14.674 -23.539  0.00  0.00    -0.043 C 
ATOM      2  C   UNL     1      34.424 -15.884 -24.183  0.00  0.00    -0.007 C 
ATOM      3  C   UNL     1      34.404 -14.548 -22.170  0.00  0.00    -0.007 C 
ATOM      4  C   UNL     1      34.924 -16.966 -23.460  0.00  0.00    -0.001 C 
ATOM      5  C   UNL     1      34.904 -15.631 -21.447  0.00  0.00    -0.001 C 
ATOM      6  C   UNL     1      35.164 -16.840 -22.092  0.00  0.00    +0.021 C 
ENDROOT
BRANCH   1   7
ATOM      7  C   UNL     1      33.624 -13.506 -24.320  0.00  0.00    -0.050 C 
BRANCH   7   8
ATOM      8  N   UNL     1      33.493 -12.309 -23.488  0.00  0.00    +0.390 N 
ATOM      9  C   UNL     1      32.509  -9.621 -22.784  0.00  0.00    +0.033 C 
ATOM     10  C   UNL     1      31.952 -10.908 -22.149  0.00  0.00    -0.015 C 
ATOM     11  C   UNL     1      33.928  -9.876 -23.325  0.00  0.00    -0.015 C 
ATOM     12  C   UNL     1      33.999 -11.129 -24.204  0.00  0.00    -0.076 C 
ATOM     13  C   UNL     1      32.097 -12.122 -23.073  0.00  0.00    -0.076 C 
ATOM     14  C   UNL     1      32.477  -8.456 -21.816  0.00  0.00    -0.019 C 
ATOM     15  C   UNL     1      31.582  -9.084 -23.874  0.00  0.00    -0.023 C 
ATOM     16  C   UNL     1      31.649  -7.444 -22.324  0.00  0.00    -0.004 C 
ATOM     17  C   UNL     1      31.106  -7.859 -23.602  0.00  0.00    -0.005 C 
ATOM     18  C   UNL     1      33.120  -8.303 -20.598  0.00  0.00    -0.004 C 
ATOM     19  C   UNL     1      31.446  -6.263 -21.628  0.00  0.00    -0.000 C 
ATOM     20  C   UNL     1      32.922  -7.115 -19.889  0.00  0.00    -0.000 C 
ATOM     21  C   UNL     1      32.092  -6.104 -20.399  0.00  0.00    -0.000 C 
ATOM     22  H   UNL     1      34.057 -12.430 -22.648  0.00  0.00    -0.079 HD
ENDBRANCH   7   8
ENDBRANCH   1   7
BRANCH   6  23
ATOM     23  C   UNL     1      35.701 -17.996 -21.319  0.00  0.00    +0.232 C 
BRANCH  23  24
ATOM     24  O   UNL     1      35.152 -19.204 -21.833  0.00  0.00    -0.471 OA
BRANCH  24  25
ATOM     25  C   UNL     1      34.755 -20.141 -20.915  0.00  0.00    +0.139 C 
ATOM     26  C   UNL     1      33.945 -22.045 -19.045  0.00  0.00    -0.010 C 
ATOM     27  C   UNL     1      33.397 -20.347 -20.672  0.00  0.00    +0.037 C 
ATOM     28  C   UNL     1      35.708 -20.887 -20.222  0.00  0.00    +0.037 C 
ATOM     29  C   UNL     1      32.992 -21.300 -19.737  0.00  0.00    -0.000 C 
ATOM     30  C   UNL     1      35.303 -21.839 -19.286  0.00  0.00    -0.000 C 
BRANCH  26  31
ATOM     31  C   UNL     1      33.513 -23.064 -18.044  0.00  0.00    +0.097 C 
BRANCH  31  32
ATOM     32  C   UNL     1      34.510 -23.216 -16.949  0.00  0.00    -0.087 C 
ATOM     33  C   UNL     1      35.315 -23.322 -16.063  0.00  0.00    -0.090 C 
ATOM     34  C   UNL     1      36.297 -23.449 -14.988  0.00  0.00    +0.090 C 
ENDBRANCH  31  32
BRANCH  31  35
ATOM     35  C   UNL     1      32.114 -22.750 -17.449  0.00  0.00    +0.127 C 
BRANCH  35  37
ATOM     36  O   UNL     1      31.426 -24.685 -16.130  0.00  0.00    -0.250 OA
ATOM     37  C   UNL     1      31.791 -23.519 -16.183  0.00  0.00    +0.315 C 
BRANCH  37  38
ATOM     38  O   UNL     1      31.973 -22.749 -15.077  0.00  0.00    -0.480 OA
ATOM     39  H   UNL     1      31.753 -23.084 -14.232  0.00  0.00    +0.295 HD
ENDBRANCH  37  38
ENDBRANCH  35  37
ENDBRANCH  31  35
ENDBRANCH  26  31
ENDBRANCH  24  25
ENDBRANCH  23  24
ENDBRANCH   6  23
TORSDOF 10
ENDMDL
MODEL 6
REMARK VINA RESULT:     -12.0      5.876     14.375
REMARK  Name = 51049992
REMARK  10 active torsions:
REMARK  status: ('A' for Active; 'I' for Inactive)
REMARK    1  A    between atoms: C_1  and  C_7
REMARK    2  A    between atoms: C_6  and  C_23
REMARK    3  A    between atoms: C_7  and  N_8
REMARK    4  A    between atoms: C_23  and  O_24
REMARK    5  A    between atoms: O_24  and  C_25
REMARK    6  A    between atoms: C_26  and  C_31
REMARK    7  A    between atoms: C_31  and  C_32
REMARK    8  A    between atoms: C_31  and  C_35
REMARK    9  A    between atoms: C_35  and  C_37
REMARK   10  A    between atoms: C_37  and  O_38
REMARK                            x       y       z     vdW  Elec       q    Type
REMARK                         _______ _______ _______ _____ _____    ______ ____
ROOT
ATOM      1  C   UNL     1      34.852 -18.120 -23.649  0.00  0.00    -0.043 C 
ATOM      2  C   UNL     1      36.075 -17.702 -23.123  0.00  0.00    -0.007 C 
ATOM      3  C   UNL     1      34.178 -19.197 -23.072  0.00  0.00    -0.007 C 
ATOM      4  C   UNL     1      36.623 -18.360 -22.022  0.00  0.00    -0.001 C 
ATOM      5  C   UNL     1      34.725 -19.855 -21.971  0.00  0.00    -0.001 C 
ATOM      6  C   UNL     1      35.948 -19.436 -21.446  0.00  0.00    +0.021 C 
ENDROOT
BRANCH   1   7
ATOM      7  C   UNL     1      34.262 -17.410 -24.837  0.00  0.00    -0.050 C 
BRANCH   7   8
ATOM      8  N   UNL     1      34.324 -15.955 -24.688  0.00  0.00    +0.390 N 
ATOM      9  C   UNL     1      33.458 -13.316 -23.703  0.00  0.00    +0.033 C 
ATOM     10  C   UNL     1      34.663 -14.073 -23.116  0.00  0.00    -0.015 C 
ATOM     11  C   UNL     1      33.182 -13.804 -25.137  0.00  0.00    -0.015 C 
ATOM     12  C   UNL     1      33.107 -15.332 -25.226  0.00  0.00    -0.076 C 
ATOM     13  C   UNL     1      34.532 -15.591 -23.281  0.00  0.00    -0.076 C 
ATOM     14  C   UNL     1      33.656 -11.815 -23.649  0.00  0.00    -0.019 C 
ATOM     15  C   UNL     1      32.221 -13.451 -22.816  0.00  0.00    -0.023 C 
ATOM     16  C   UNL     1      32.662 -11.236 -22.845  0.00  0.00    -0.004 C 
ATOM     17  C   UNL     1      31.784 -12.274 -22.341  0.00  0.00    -0.005 C 
ATOM     18  C   UNL     1      34.625 -11.030 -24.252  0.00  0.00    -0.004 C 
ATOM     19  C   UNL     1      32.616  -9.869 -22.630  0.00  0.00    -0.000 C 
ATOM     20  C   UNL     1      34.587  -9.649 -24.041  0.00  0.00    -0.000 C 
ATOM     21  C   UNL     1      33.591  -9.074 -23.236  0.00  0.00    -0.000 C 
ATOM     22  H   UNL     1      35.118 -15.604 -25.223  0.00  0.00    -0.079 HD
ENDBRANCH   7   8
ENDBRANCH   1   7
BRANCH   6  23
ATOM     23  C   UNL     1      36.531 -20.138 -20.267  0.00  0.00    +0.232 C 
BRANCH  23  24
ATOM     24  O   UNL     1      36.077 -21.486 -20.246  0.00  0.00    -0.471 OA
BRANCH  24  25
ATOM     25  C   UNL     1      35.742 -22.005 -19.024  0.00  0.00    +0.139 C 
ATOM     26  C   UNL     1      35.061 -23.066 -16.535  0.00  0.00    -0.010 C 
ATOM     27  C   UNL     1      36.661 -21.970 -17.975  0.00  0.00    +0.037 C 
ATOM     28  C   UNL     1      34.483 -22.572 -18.828  0.00  0.00    +0.037 C 
ATOM     29  C   UNL     1      36.320 -22.499 -16.730  0.00  0.00    -0.000 C 
ATOM     30  C   UNL     1      34.142 -23.103 -17.583  0.00  0.00    -0.000 C 
BRANCH  26  31
ATOM     31  C   UNL     1      34.696 -23.633 -15.204  0.00  0.00    +0.097 C 
BRANCH  31  32
ATOM     32  C   UNL     1      33.236 -23.514 -14.938  0.00  0.00    -0.087 C 
ATOM     33  C   UNL     1      32.059 -23.401 -14.724  0.00  0.00    -0.090 C 
ATOM     34  C   UNL     1      30.628 -23.262 -14.461  0.00  0.00    +0.090 C 
ENDBRANCH  31  32
BRANCH  31  35
ATOM     35  C   UNL     1      35.146 -25.111 -15.049  0.00  0.00    +0.127 C 
BRANCH  35  37
ATOM     36  O   UNL     1      37.310 -24.642 -14.024  0.00  0.00    -0.250 OA
ATOM     37  C   UNL     1      36.633 -25.286 -14.813  0.00  0.00    +0.315 C 
BRANCH  37  38
ATOM     38  O   UNL     1      37.143 -26.278 -15.590  0.00  0.00    -0.480 OA
ATOM     39  H   UNL     1      37.565 -27.013 -15.194  0.00  0.00    +0.295 HD
ENDBRANCH  37  38
ENDBRANCH  35  37
ENDBRANCH  31  35
ENDBRANCH  26  31
ENDBRANCH  24  25
ENDBRANCH  23  24
ENDBRANCH   6  23
TORSDOF 10
ENDMDL
MODEL 7
REMARK VINA RESULT:     -12.0      1.633      2.303
REMARK  Name = 51049992
REMARK  10 active torsions:
REMARK  status: ('A' for Active; 'I' for Inactive)
REMARK    1  A    between atoms: C_1  and  C_7
REMARK    2  A    between atoms: C_6  and  C_23
REMARK    3  A    between atoms: C_7  and  N_8
REMARK    4  A    between atoms: C_23  and  O_24
REMARK    5  A    between atoms: O_24  and  C_25
REMARK    6  A    between atoms: C_26  and  C_31
REMARK    7  A    between atoms: C_31  and  C_32
REMARK    8  A    between atoms: C_31  and  C_35
REMARK    9  A    between atoms: C_35  and  C_37
REMARK   10  A    between atoms: C_37  and  O_38
REMARK                            x       y       z     vdW  Elec       q    Type
REMARK                         _______ _______ _______ _____ _____    ______ ____
ROOT
ATOM      1  C   UNL     1      33.877 -13.751 -23.400  0.00  0.00    -0.043 C 
ATOM      2  C   UNL     1      33.094 -13.941 -22.261  0.00  0.00    -0.007 C 
ATOM      3  C   UNL     1      33.880 -12.513 -24.044  0.00  0.00    -0.007 C 
ATOM      4  C   UNL     1      32.315 -12.895 -21.767  0.00  0.00    -0.001 C 
ATOM      5  C   UNL     1      33.102 -11.467 -23.550  0.00  0.00    -0.001 C 
ATOM      6  C   UNL     1      32.319 -11.658 -22.411  0.00  0.00    +0.021 C 
ENDROOT
BRANCH   1   7
ATOM      7  C   UNL     1      34.717 -14.880 -23.933  0.00  0.00    -0.050 C 
BRANCH   7   8
ATOM      8  N   UNL     1      34.503 -16.118 -23.183  0.00  0.00    +0.390 N 
ATOM      9  C   UNL     1      35.310 -18.543 -21.715  0.00  0.00    +0.033 C 
ATOM     10  C   UNL     1      34.800 -17.272 -21.012  0.00  0.00    -0.015 C 
ATOM     11  C   UNL     1      34.804 -18.576 -23.169  0.00  0.00    -0.015 C 
ATOM     12  C   UNL     1      35.074 -17.262 -23.908  0.00  0.00    -0.076 C 
ATOM     13  C   UNL     1      35.070 -16.006 -21.834  0.00  0.00    -0.076 C 
ATOM     14  C   UNL     1      34.926 -19.797 -20.957  0.00  0.00    -0.019 C 
ATOM     15  C   UNL     1      36.833 -18.651 -21.648  0.00  0.00    -0.023 C 
ATOM     16  C   UNL     1      36.084 -20.475 -20.547  0.00  0.00    -0.004 C 
ATOM     17  C   UNL     1      37.254 -19.741 -20.989  0.00  0.00    -0.005 C 
ATOM     18  C   UNL     1      33.669 -20.296 -20.656  0.00  0.00    -0.004 C 
ATOM     19  C   UNL     1      36.010 -21.658 -19.830  0.00  0.00    -0.000 C 
ATOM     20  C   UNL     1      33.584 -21.490 -19.934  0.00  0.00    -0.000 C 
ATOM     21  C   UNL     1      34.745 -22.165 -19.525  0.00  0.00    -0.000 C 
ATOM     22  H   UNL     1      33.501 -16.276 -23.090  0.00  0.00    -0.079 HD
ENDBRANCH   7   8
ENDBRANCH   1   7
BRANCH   6  23
ATOM     23  C   UNL     1      31.489 -10.538 -21.881  0.00  0.00    +0.232 C 
BRANCH  23  24
ATOM     24  O   UNL     1      32.333  -9.446 -21.536  0.00  0.00    -0.471 OA
BRANCH  24  25
ATOM     25  C   UNL     1      32.433  -8.430 -22.450  0.00  0.00    +0.139 C 
ATOM     26  C   UNL     1      32.635  -6.364 -24.314  0.00  0.00    -0.010 C 
ATOM     27  C   UNL     1      31.294  -7.975 -23.115  0.00  0.00    +0.037 C 
ATOM     28  C   UNL     1      33.673  -7.851 -22.718  0.00  0.00    +0.037 C 
ATOM     29  C   UNL     1      31.395  -6.942 -24.046  0.00  0.00    -0.000 C 
ATOM     30  C   UNL     1      33.775  -6.819 -23.650  0.00  0.00    -0.000 C 
BRANCH  26  31
ATOM     31  C   UNL     1      32.745  -5.259 -25.310  0.00  0.00    +0.097 C 
BRANCH  31  32
ATOM     32  C   UNL     1      32.111  -4.007 -24.813  0.00  0.00    -0.087 C 
ATOM     33  C   UNL     1      31.593  -3.005 -24.399  0.00  0.00    -0.090 C 
ATOM     34  C   UNL     1      30.961  -1.787 -23.895  0.00  0.00    +0.090 C 
ENDBRANCH  31  32
BRANCH  31  35
ATOM     35  C   UNL     1      34.215  -4.982 -25.724  0.00  0.00    +0.127 C 
BRANCH  35  37
ATOM     36  O   UNL     1      34.793  -2.930 -26.913  0.00  0.00    -0.250 OA
ATOM     37  C   UNL     1      34.360  -4.073 -26.930  0.00  0.00    +0.315 C 
BRANCH  37  38
ATOM     38  O   UNL     1      33.954  -4.696 -28.068  0.00  0.00    -0.480 OA
ATOM     39  H   UNL     1      34.465  -5.392 -28.429  0.00  0.00    +0.295 HD
ENDBRANCH  37  38
ENDBRANCH  35  37
ENDBRANCH  31  35
ENDBRANCH  26  31
ENDBRANCH  24  25
ENDBRANCH  23  24
ENDBRANCH   6  23
TORSDOF 10
ENDMDL
MODEL 8
REMARK VINA RESULT:     -11.9      4.885      9.138
REMARK  Name = 51049992
REMARK  10 active torsions:
REMARK  status: ('A' for Active; 'I' for Inactive)
REMARK    1  A    between atoms: C_1  and  C_7
REMARK    2  A    between atoms: C_6  and  C_23
REMARK    3  A    between atoms: C_7  and  N_8
REMARK    4  A    between atoms: C_23  and  O_24
REMARK    5  A    between atoms: O_24  and  C_25
REMARK    6  A    between atoms: C_26  and  C_31
REMARK    7  A    between atoms: C_31  and  C_32
REMARK    8  A    between atoms: C_31  and  C_35
REMARK    9  A    between atoms: C_35  and  C_37
REMARK   10  A    between atoms: C_37  and  O_38
REMARK                            x       y       z     vdW  Elec       q    Type
REMARK                         _______ _______ _______ _____ _____    ______ ____
ROOT
ATOM      1  C   UNL     1      33.919 -21.783 -19.355  0.00  0.00    -0.043 C 
ATOM      2  C   UNL     1      35.304 -21.670 -19.482  0.00  0.00    -0.007 C 
ATOM      3  C   UNL     1      33.081 -20.976 -20.124  0.00  0.00    -0.007 C 
ATOM      4  C   UNL     1      35.849 -20.751 -20.377  0.00  0.00    -0.001 C 
ATOM      5  C   UNL     1      33.626 -20.057 -21.020  0.00  0.00    -0.001 C 
ATOM      6  C   UNL     1      35.011 -19.944 -21.146  0.00  0.00    +0.021 C 
ENDROOT
BRANCH   1   7
ATOM      7  C   UNL     1      33.331 -22.776 -18.388  0.00  0.00    -0.050 C 
BRANCH   7   8
ATOM      8  N   UNL     1      34.107 -22.856 -17.150  0.00  0.00    +0.390 N 
ATOM      9  C   UNL     1      35.794 -24.162 -15.116  0.00  0.00    +0.033 C 
ATOM     10  C   UNL     1      36.355 -23.183 -16.163  0.00  0.00    -0.015 C 
ATOM     11  C   UNL     1      34.288 -23.908 -14.916  0.00  0.00    -0.015 C 
ATOM     12  C   UNL     1      33.526 -23.856 -16.244  0.00  0.00    -0.076 C 
ATOM     13  C   UNL     1      35.514 -23.158 -17.444  0.00  0.00    -0.076 C 
ATOM     14  C   UNL     1      36.556 -24.086 -13.809  0.00  0.00    -0.019 C 
ATOM     15  C   UNL     1      36.072 -25.615 -15.499  0.00  0.00    -0.023 C 
ATOM     16  C   UNL     1      37.153 -25.326 -13.538  0.00  0.00    -0.004 C 
ATOM     17  C   UNL     1      36.837 -26.258 -14.603  0.00  0.00    -0.005 C 
ATOM     18  C   UNL     1      36.709 -23.020 -12.938  0.00  0.00    -0.004 C 
ATOM     19  C   UNL     1      37.912 -25.525 -12.396  0.00  0.00    -0.000 C 
ATOM     20  C   UNL     1      37.473 -23.211 -11.783  0.00  0.00    -0.000 C 
ATOM     21  C   UNL     1      38.069 -24.453 -11.515  0.00  0.00    -0.000 C 
ATOM     22  H   UNL     1      34.072 -21.951 -16.682  0.00  0.00    -0.079 HD
ENDBRANCH   7   8
ENDBRANCH   1   7
BRANCH   6  23
ATOM     23  C   UNL     1      35.594 -18.963 -22.106  0.00  0.00    +0.232 C 
BRANCH  23  24
ATOM     24  O   UNL     1      35.851 -17.737 -21.432  0.00  0.00    -0.471 OA
BRANCH  24  25
ATOM     25  C   UNL     1      35.223 -16.621 -21.919  0.00  0.00    +0.139 C 
ATOM     26  C   UNL     1      33.941 -14.350 -22.911  0.00  0.00    -0.010 C 
ATOM     27  C   UNL     1      34.851 -15.594 -21.051  0.00  0.00    +0.037 C 
ATOM     28  C   UNL     1      34.953 -16.513 -23.283  0.00  0.00    +0.037 C 
ATOM     29  C   UNL     1      34.211 -14.459 -21.547  0.00  0.00    -0.000 C 
ATOM     30  C   UNL     1      34.311 -15.377 -23.779  0.00  0.00    -0.000 C 
BRANCH  26  31
ATOM     31  C   UNL     1      33.256 -13.137 -23.442  0.00  0.00    +0.097 C 
BRANCH  31  32
ATOM     32  C   UNL     1      32.446 -12.459 -22.393  0.00  0.00    -0.087 C 
ATOM     33  C   UNL     1      31.796 -11.896 -21.554  0.00  0.00    -0.090 C 
ATOM     34  C   UNL     1      31.007 -11.210 -20.532  0.00  0.00    +0.090 C 
ENDBRANCH  31  32
BRANCH  31  35
ATOM     35  C   UNL     1      34.251 -12.129 -24.080  0.00  0.00    +0.127 C 
BRANCH  35  37
ATOM     36  O   UNL     1      33.398 -12.677 -26.300  0.00  0.00    -0.250 OA
ATOM     37  C   UNL     1      34.131 -12.007 -25.586  0.00  0.00    +0.315 C 
BRANCH  37  38
ATOM     38  O   UNL     1      34.944 -11.030 -26.069  0.00  0.00    -0.480 OA
ATOM     39  H   UNL     1      34.681 -10.527 -26.813  0.00  0.00    +0.295 HD
ENDBRANCH  37  38
ENDBRANCH  35  37
ENDBRANCH  31  35
ENDBRANCH  26  31
ENDBRANCH  24  25
ENDBRANCH  23  24
ENDBRANCH   6  23
TORSDOF 10
ENDMDL
MODEL 9
REMARK VINA RESULT:     -11.9      3.864     13.726
REMARK  Name = 51049992
REMARK  10 active torsions:
REMARK  status: ('A' for Active; 'I' for Inactive)
REMARK    1  A    between atoms: C_1  and  C_7
REMARK    2  A    between atoms: C_6  and  C_23
REMARK    3  A    between atoms: C_7  and  N_8
REMARK    4  A    between atoms: C_23  and  O_24
REMARK    5  A    between atoms: O_24  and  C_25
REMARK    6  A    between atoms: C_26  and  C_31
REMARK    7  A    between atoms: C_31  and  C_32
REMARK    8  A    between atoms: C_31  and  C_35
REMARK    9  A    between atoms: C_35  and  C_37
REMARK   10  A    between atoms: C_37  and  O_38
REMARK                            x       y       z     vdW  Elec       q    Type
REMARK                         _______ _______ _______ _____ _____    ______ ____
ROOT
ATOM      1  C   UNL     1      32.668 -11.403 -22.508  0.00  0.00    -0.043 C 
ATOM      2  C   UNL     1      32.457 -12.618 -21.855  0.00  0.00    -0.007 C 
ATOM      3  C   UNL     1      33.406 -11.366 -23.691  0.00  0.00    -0.007 C 
ATOM      4  C   UNL     1      32.984 -13.795 -22.386  0.00  0.00    -0.001 C 
ATOM      5  C   UNL     1      33.933 -12.544 -24.221  0.00  0.00    -0.001 C 
ATOM      6  C   UNL     1      33.721 -13.758 -23.569  0.00  0.00    +0.021 C 
ENDROOT
BRANCH   1   7
ATOM      7  C   UNL     1      32.100 -10.132 -21.935  0.00  0.00    -0.050 C 
BRANCH   7   8
ATOM      8  N   UNL     1      32.355  -8.982 -22.802  0.00  0.00    +0.390 N 
ATOM      9  C   UNL     1      32.206  -6.158 -23.633  0.00  0.00    +0.033 C 
ATOM     10  C   UNL     1      33.466  -6.778 -23.003  0.00  0.00    -0.015 C 
ATOM     11  C   UNL     1      31.340  -7.262 -24.266  0.00  0.00    -0.015 C 
ATOM     12  C   UNL     1      31.090  -8.428 -23.305  0.00  0.00    -0.076 C 
ATOM     13  C   UNL     1      33.136  -7.963 -22.089  0.00  0.00    -0.076 C 
ATOM     14  C   UNL     1      32.552  -5.072 -24.630  0.00  0.00    -0.019 C 
ATOM     15  C   UNL     1      31.414  -5.338 -22.615  0.00  0.00    -0.023 C 
ATOM     16  C   UNL     1      32.016  -3.848 -24.201  0.00  0.00    -0.004 C 
ATOM     17  C   UNL     1      31.315  -4.041 -22.947  0.00  0.00    -0.005 C 
ATOM     18  C   UNL     1      33.273  -5.154 -25.810  0.00  0.00    -0.004 C 
ATOM     19  C   UNL     1      32.191  -2.688 -24.937  0.00  0.00    -0.000 C 
ATOM     20  C   UNL     1      33.454  -3.990 -26.561  0.00  0.00    -0.000 C 
ATOM     21  C   UNL     1      32.918  -2.767 -26.128  0.00  0.00    -0.000 C 
ATOM     22  H   UNL     1      32.902  -9.291 -23.605  0.00  0.00    -0.079 HD
ENDBRANCH   7   8
ENDBRANCH   1   7
BRANCH   6  23
ATOM     23  C   UNL     1      34.282 -15.017 -24.138  0.00  0.00    +0.232 C 
BRANCH  23  24
ATOM     24  O   UNL     1      35.307 -15.509 -23.281  0.00  0.00    -0.471 OA
BRANCH  24  25
ATOM     25  C   UNL     1      35.129 -16.764 -22.763  0.00  0.00    +0.139 C 
ATOM     26  C   UNL     1      34.770 -19.321 -21.708  0.00  0.00    -0.010 C 
ATOM     27  C   UNL     1      35.294 -16.984 -21.395  0.00  0.00    +0.037 C 
ATOM     28  C   UNL     1      34.785 -17.823 -23.603  0.00  0.00    +0.037 C 
ATOM     29  C   UNL     1      35.114 -18.263 -20.868  0.00  0.00    -0.000 C 
ATOM     30  C   UNL     1      34.606 -19.102 -23.075  0.00  0.00    -0.000 C 
BRANCH  26  31
ATOM     31  C   UNL     1      34.577 -20.689 -21.144  0.00  0.00    +0.097 C 
BRANCH  31  32
ATOM     32  C   UNL     1      35.604 -21.009 -20.114  0.00  0.00    -0.087 C 
ATOM     33  C   UNL     1      36.421 -21.278 -19.276  0.00  0.00    -0.090 C 
ATOM     34  C   UNL     1      37.413 -21.604 -18.254  0.00  0.00    +0.090 C 
ENDBRANCH  31  32
BRANCH  31  35
ATOM     35  C   UNL     1      33.154 -20.890 -20.557  0.00  0.00    +0.127 C 
BRANCH  35  37
ATOM     36  O   UNL     1      33.577 -23.166 -19.782  0.00  0.00    -0.250 OA
ATOM     37  C   UNL     1      33.029 -22.083 -19.629  0.00  0.00    +0.315 C 
BRANCH  37  38
ATOM     38  O   UNL     1      32.225 -21.802 -18.570  0.00  0.00    -0.480 OA
ATOM     39  H   UNL     1      32.307 -22.293 -17.777  0.00  0.00    +0.295 HD
ENDBRANCH  37  38
ENDBRANCH  35  37
ENDBRANCH  31  35
ENDBRANCH  26  31
ENDBRANCH  24  25
ENDBRANCH  23  24
ENDBRANCH   6  23
TORSDOF 10
ENDMDL
