MODEL 1
REMARK VINA RESULT:     -11.7      0.000      0.000
REMARK  Name = 11234049
REMARK  5 active torsions:
REMARK  status: ('A' for Active; 'I' for Inactive)
REMARK    1  A    between atoms: C_2  and  N_10
REMARK    2  A    between atoms: C_5  and  C_18
REMARK    3  A    between atoms: C_11  and  C_14
REMARK    4  A    between atoms: C_14  and  O_15
REMARK    5  A    between atoms: C_22  and  C_27
REMARK                            x       y       z     vdW  Elec       q    Type
REMARK                         _______ _______ _______ _____ _____    ______ ____
ROOT
ATOM      1  F   UNL     1      34.034 -23.770 -17.055  0.00  0.00    -0.204 F 
ATOM      2  C   UNL     1      35.916 -24.737 -14.094  0.00  0.00    +0.059 C 
ATOM      3  C   UNL     1      35.609 -24.420 -15.421  0.00  0.00    +0.045 C 
ATOM      4  C   UNL     1      34.907 -24.699 -13.126  0.00  0.00    +0.015 C 
ATOM      5  C   UNL     1      33.305 -24.034 -14.806  0.00  0.00    +0.029 C 
ATOM      6  C   UNL     1      34.307 -24.070 -15.777  0.00  0.00    +0.141 C 
ATOM      7  C   UNL     1      33.606 -24.348 -13.481  0.00  0.00    +0.004 C 
ENDROOT
BRANCH   2  10
ATOM      8  O   UNL     1      39.018 -25.998 -12.665  0.00  0.00    -0.434 OA
ATOM      9  O   UNL     1      36.966 -26.467 -11.824  0.00  0.00    -0.226 OA
ATOM     10  N   UNL     1      37.245 -25.096 -13.731  0.00  0.00    -0.221 N 
ATOM     11  C   UNL     1      39.531 -25.425 -13.876  0.00  0.00    +0.220 C 
ATOM     12  C   UNL     1      38.406 -24.550 -14.383  0.00  0.00    +0.148 C 
ATOM     13  C   UNL     1      37.644 -25.908 -12.673  0.00  0.00    +0.409 C 
BRANCH  11  14
ATOM     14  C   UNL     1      39.897 -26.548 -14.837  0.00  0.00    +0.183 C 
BRANCH  14  15
ATOM     15  O   UNL     1      40.418 -25.977 -16.024  0.00  0.00    -0.378 OA
ATOM     16  H   UNL     1      41.380 -25.886 -15.943  0.00  0.00    +0.211 HD
ENDBRANCH  14  15
ENDBRANCH  11  14
ENDBRANCH   2  10
BRANCH   5  18
ATOM     17  N   UNL     1      30.401 -22.931 -16.869  0.00  0.00    -0.234 NA
ATOM     18  C   UNL     1      31.951 -23.671 -15.171  0.00  0.00    +0.021 C 
ATOM     19  C   UNL     1      30.927 -23.704 -14.234  0.00  0.00    +0.004 C 
ATOM     20  C   UNL     1      31.643 -23.282 -16.463  0.00  0.00    +0.100 C 
ATOM     21  C   UNL     1      29.637 -23.350 -14.613  0.00  0.00    +0.029 C 
ATOM     22  C   UNL     1      29.429 -22.974 -15.931  0.00  0.00    +0.146 C 
BRANCH  22  27
ATOM     23  N   UNL     1      27.830 -22.307 -17.648  0.00  0.00    -0.105 NA
ATOM     24  N   UNL     1      26.525 -22.034 -17.516  0.00  0.00    -0.113 N 
ATOM     25  N   UNL     1      27.056 -22.506 -15.529  0.00  0.00    -0.085 NA
ATOM     26  N   UNL     1      26.023 -22.140 -16.276  0.00  0.00    -0.018 NA
ATOM     27  C   UNL     1      28.118 -22.598 -16.377  0.00  0.00    +0.092 C 
ATOM     28  C   UNL     1      25.708 -21.649 -18.637  0.00  0.00    +0.163 C 
ENDBRANCH  22  27
ENDBRANCH   5  18
TORSDOF 5
ENDMDL
MODEL 2
REMARK VINA RESULT:     -11.0      5.303      6.701
REMARK  Name = 11234049
REMARK  5 active torsions:
REMARK  status: ('A' for Active; 'I' for Inactive)
REMARK    1  A    between atoms: C_2  and  N_10
REMARK    2  A    between atoms: C_5  and  C_18
REMARK    3  A    between atoms: C_11  and  C_14
REMARK    4  A    between atoms: C_14  and  O_15
REMARK    5  A    between atoms: C_22  and  C_27
REMARK                            x       y       z     vdW  Elec       q    Type
REMARK                         _______ _______ _______ _____ _____    ______ ____
ROOT
ATOM      1  F   UNL     1      33.234 -23.148 -17.842  0.00  0.00    -0.204 F 
ATOM      2  C   UNL     1      35.860 -23.866 -15.426  0.00  0.00    +0.059 C 
ATOM      3  C   UNL     1      34.620 -23.873 -16.073  0.00  0.00    +0.045 C 
ATOM      4  C   UNL     1      36.908 -23.106 -15.954  0.00  0.00    +0.015 C 
ATOM      5  C   UNL     1      35.481 -22.371 -17.759  0.00  0.00    +0.029 C 
ATOM      6  C   UNL     1      34.430 -23.128 -17.236  0.00  0.00    +0.141 C 
ATOM      7  C   UNL     1      36.719 -22.362 -17.118  0.00  0.00    +0.004 C 
ENDROOT
BRANCH   2  10
ATOM      8  O   UNL     1      36.792 -26.163 -12.759  0.00  0.00    -0.434 OA
ATOM      9  O   UNL     1      37.658 -26.251 -14.853  0.00  0.00    -0.226 OA
ATOM     10  N   UNL     1      36.053 -24.626 -14.237  0.00  0.00    -0.221 N 
ATOM     11  C   UNL     1      36.014 -25.225 -12.003  0.00  0.00    +0.220 C 
ATOM     12  C   UNL     1      35.267 -24.427 -13.048  0.00  0.00    +0.148 C 
ATOM     13  C   UNL     1      36.910 -25.708 -14.054  0.00  0.00    +0.409 C 
BRANCH  11  14
ATOM     14  C   UNL     1      36.953 -24.376 -11.157  0.00  0.00    +0.183 C 
BRANCH  14  15
ATOM     15  O   UNL     1      36.422 -24.281  -9.846  0.00  0.00    -0.378 OA
ATOM     16  H   UNL     1      35.888 -23.475  -9.772  0.00  0.00    +0.211 HD
ENDBRANCH  14  15
ENDBRANCH  11  14
ENDBRANCH   2  10
BRANCH   5  18
ATOM     17  N   UNL     1      36.245 -20.225 -20.710  0.00  0.00    -0.234 NA
ATOM     18  C   UNL     1      35.289 -21.596 -18.967  0.00  0.00    +0.021 C 
ATOM     19  C   UNL     1      34.031 -21.469 -19.540  0.00  0.00    +0.004 C 
ATOM     20  C   UNL     1      36.355 -20.962 -19.581  0.00  0.00    +0.100 C 
ATOM     21  C   UNL     1      33.878 -20.718 -20.701  0.00  0.00    +0.029 C 
ATOM     22  C   UNL     1      35.006 -20.121 -21.241  0.00  0.00    +0.146 C 
BRANCH  22  27
ATOM     23  N   UNL     1      34.052 -19.605 -23.425  0.00  0.00    -0.105 NA
ATOM     24  N   UNL     1      34.364 -18.603 -24.259  0.00  0.00    -0.113 N 
ATOM     25  N   UNL     1      35.687 -18.240 -22.656  0.00  0.00    -0.085 NA
ATOM     26  N   UNL     1      35.328 -17.769 -23.843  0.00  0.00    -0.018 NA
ATOM     27  C   UNL     1      34.907 -19.334 -22.436  0.00  0.00    +0.092 C 
ATOM     28  C   UNL     1      33.704 -18.432 -25.527  0.00  0.00    +0.163 C 
ENDBRANCH  22  27
ENDBRANCH   5  18
TORSDOF 5
ENDMDL
MODEL 3
REMARK VINA RESULT:     -11.0      7.666     10.565
REMARK  Name = 11234049
REMARK  5 active torsions:
REMARK  status: ('A' for Active; 'I' for Inactive)
REMARK    1  A    between atoms: C_2  and  N_10
REMARK    2  A    between atoms: C_5  and  C_18
REMARK    3  A    between atoms: C_11  and  C_14
REMARK    4  A    between atoms: C_14  and  O_15
REMARK    5  A    between atoms: C_22  and  C_27
REMARK                            x       y       z     vdW  Elec       q    Type
REMARK                         _______ _______ _______ _____ _____    ______ ____
ROOT
ATOM      1  F   UNL     1      32.644 -21.042 -20.383  0.00  0.00    -0.204 F 
ATOM      2  C   UNL     1      34.866 -19.194 -22.593  0.00  0.00    +0.059 C 
ATOM      3  C   UNL     1      33.701 -19.733 -22.038  0.00  0.00    +0.045 C 
ATOM      4  C   UNL     1      36.102 -19.465 -21.998  0.00  0.00    +0.015 C 
ATOM      5  C   UNL     1      35.008 -20.801 -20.310  0.00  0.00    +0.029 C 
ATOM      6  C   UNL     1      33.772 -20.534 -20.899  0.00  0.00    +0.141 C 
ATOM      7  C   UNL     1      36.173 -20.265 -20.859  0.00  0.00    +0.004 C 
ENDROOT
BRANCH   2  10
ATOM      8  O   UNL     1      34.456 -17.663 -25.872  0.00  0.00    -0.434 OA
ATOM      9  O   UNL     1      33.985 -19.838 -25.432  0.00  0.00    -0.226 OA
ATOM     10  N   UNL     1      34.794 -18.376 -23.757  0.00  0.00    -0.221 N 
ATOM     11  C   UNL     1      34.729 -16.490 -25.095  0.00  0.00    +0.220 C 
ATOM     12  C   UNL     1      35.279 -17.022 -23.790  0.00  0.00    +0.148 C 
ATOM     13  C   UNL     1      34.366 -18.749 -25.029  0.00  0.00    +0.409 C 
BRANCH  11  14
ATOM     14  C   UNL     1      33.438 -15.700 -24.925  0.00  0.00    +0.183 C 
BRANCH  14  15
ATOM     15  O   UNL     1      32.636 -15.888 -26.078  0.00  0.00    -0.378 OA
ATOM     16  H   UNL     1      32.589 -15.057 -26.576  0.00  0.00    +0.211 HD
ENDBRANCH  14  15
ENDBRANCH  11  14
ENDBRANCH   2  10
BRANCH   5  18
ATOM     17  N   UNL     1      36.420 -22.540 -17.329  0.00  0.00    -0.234 NA
ATOM     18  C   UNL     1      35.087 -21.633 -19.127  0.00  0.00    +0.021 C 
ATOM     19  C   UNL     1      33.968 -22.303 -18.651  0.00  0.00    +0.004 C 
ATOM     20  C   UNL     1      36.279 -21.781 -18.440  0.00  0.00    +0.100 C 
ATOM     21  C   UNL     1      34.074 -23.095 -17.512  0.00  0.00    +0.029 C 
ATOM     22  C   UNL     1      35.311 -23.179 -16.894  0.00  0.00    +0.146 C 
BRANCH  22  27
ATOM     23  N   UNL     1      36.555 -24.738 -15.490  0.00  0.00    -0.105 NA
ATOM     24  N   UNL     1      36.210 -25.253 -14.302  0.00  0.00    -0.113 N 
ATOM     25  N   UNL     1      34.541 -24.035 -14.731  0.00  0.00    -0.085 NA
ATOM     26  N   UNL     1      35.024 -24.863 -13.813  0.00  0.00    -0.018 NA
ATOM     27  C   UNL     1      35.479 -23.982 -15.717  0.00  0.00    +0.092 C 
ATOM     28  C   UNL     1      37.062 -26.171 -13.591  0.00  0.00    +0.163 C 
ENDBRANCH  22  27
ENDBRANCH   5  18
TORSDOF 5
ENDMDL
MODEL 4
REMARK VINA RESULT:     -10.6     15.175     17.342
REMARK  Name = 11234049
REMARK  5 active torsions:
REMARK  status: ('A' for Active; 'I' for Inactive)
REMARK    1  A    between atoms: C_2  and  N_10
REMARK    2  A    between atoms: C_5  and  C_18
REMARK    3  A    between atoms: C_11  and  C_14
REMARK    4  A    between atoms: C_14  and  O_15
REMARK    5  A    between atoms: C_22  and  C_27
REMARK                            x       y       z     vdW  Elec       q    Type
REMARK                         _______ _______ _______ _____ _____    ______ ____
ROOT
ATOM      1  F   UNL     1      35.252 -10.728 -24.823  0.00  0.00    -0.204 F 
ATOM      2  C   UNL     1      32.945  -8.634 -22.943  0.00  0.00    +0.059 C 
ATOM      3  C   UNL     1      34.013  -9.025 -23.757  0.00  0.00    +0.045 C 
ATOM      4  C   UNL     1      32.089  -9.606 -22.416  0.00  0.00    +0.015 C 
ATOM      5  C   UNL     1      33.365 -11.340 -23.512  0.00  0.00    +0.029 C 
ATOM      6  C   UNL     1      34.223 -10.374 -24.041  0.00  0.00    +0.141 C 
ATOM      7  C   UNL     1      32.298 -10.955 -22.700  0.00  0.00    +0.004 C 
ENDROOT
BRANCH   2  10
ATOM      8  O   UNL     1      32.611  -5.010 -22.834  0.00  0.00    -0.434 OA
ATOM      9  O   UNL     1      33.336  -6.151 -24.654  0.00  0.00    -0.226 OA
ATOM     10  N   UNL     1      32.732  -7.257 -22.652  0.00  0.00    -0.221 N 
ATOM     11  C   UNL     1      31.974  -5.344 -21.593  0.00  0.00    +0.220 C 
ATOM     12  C   UNL     1      32.369  -6.783 -21.343  0.00  0.00    +0.148 C 
ATOM     13  C   UNL     1      32.928  -6.172 -23.503  0.00  0.00    +0.409 C 
BRANCH  11  14
ATOM     14  C   UNL     1      30.471  -5.152 -21.744  0.00  0.00    +0.183 C 
BRANCH  14  15
ATOM     15  O   UNL     1      30.219  -3.802 -22.090  0.00  0.00    -0.378 OA
ATOM     16  H   UNL     1      30.472  -3.227 -21.352  0.00  0.00    +0.211 HD
ENDBRANCH  14  15
ENDBRANCH  11  14
ENDBRANCH   2  10
BRANCH   5  18
ATOM     17  N   UNL     1      33.344 -14.586 -25.346  0.00  0.00    -0.234 NA
ATOM     18  C   UNL     1      33.578 -12.742 -23.804  0.00  0.00    +0.021 C 
ATOM     19  C   UNL     1      34.195 -13.576 -22.881  0.00  0.00    +0.004 C 
ATOM     20  C   UNL     1      33.174 -13.286 -25.010  0.00  0.00    +0.100 C 
ATOM     21  C   UNL     1      34.386 -14.919 -23.190  0.00  0.00    +0.029 C 
ATOM     22  C   UNL     1      33.946 -15.370 -24.424  0.00  0.00    +0.146 C 
BRANCH  22  27
ATOM     23  N   UNL     1      34.564 -17.683 -23.957  0.00  0.00    -0.105 NA
ATOM     24  N   UNL     1      34.533 -18.740 -24.779  0.00  0.00    -0.113 N 
ATOM     25  N   UNL     1      33.833 -17.204 -26.046  0.00  0.00    -0.085 NA
ATOM     26  N   UNL     1      34.106 -18.502 -26.028  0.00  0.00    -0.018 NA
ATOM     27  C   UNL     1      34.117 -16.745 -24.795  0.00  0.00    +0.092 C 
ATOM     28  C   UNL     1      34.935 -20.054 -24.349  0.00  0.00    +0.163 C 
ENDBRANCH  22  27
ENDBRANCH   5  18
TORSDOF 5
ENDMDL
MODEL 5
REMARK VINA RESULT:     -10.5      5.333      6.799
REMARK  Name = 11234049
REMARK  5 active torsions:
REMARK  status: ('A' for Active; 'I' for Inactive)
REMARK    1  A    between atoms: C_2  and  N_10
REMARK    2  A    between atoms: C_5  and  C_18
REMARK    3  A    between atoms: C_11  and  C_14
REMARK    4  A    between atoms: C_14  and  O_15
REMARK    5  A    between atoms: C_22  and  C_27
REMARK                            x       y       z     vdW  Elec       q    Type
REMARK                         _______ _______ _______ _____ _____    ______ ____
ROOT
ATOM      1  F   UNL     1      37.620 -21.254 -17.251  0.00  0.00    -0.204 F 
ATOM      2  C   UNL     1      35.771 -23.767 -15.378  0.00  0.00    +0.059 C 
ATOM      3  C   UNL     1      36.766 -22.853 -15.739  0.00  0.00    +0.045 C 
ATOM      4  C   UNL     1      34.663 -23.944 -16.212  0.00  0.00    +0.015 C 
ATOM      5  C   UNL     1      35.547 -22.306 -17.751  0.00  0.00    +0.029 C 
ATOM      6  C   UNL     1      36.655 -22.124 -16.922  0.00  0.00    +0.141 C 
ATOM      7  C   UNL     1      34.551 -23.215 -17.395  0.00  0.00    +0.004 C 
ENDROOT
BRANCH   2  10
ATOM      8  O   UNL     1      36.539 -26.019 -12.622  0.00  0.00    -0.434 OA
ATOM      9  O   UNL     1      37.569 -26.107 -14.640  0.00  0.00    -0.226 OA
ATOM     10  N   UNL     1      35.886 -24.512 -14.170  0.00  0.00    -0.221 N 
ATOM     11  C   UNL     1      35.685 -25.092 -11.939  0.00  0.00    +0.220 C 
ATOM     12  C   UNL     1      35.006 -24.320 -13.048  0.00  0.00    +0.148 C 
ATOM     13  C   UNL     1      36.749 -25.573 -13.908  0.00  0.00    +0.409 C 
BRANCH  11  14
ATOM     14  C   UNL     1      36.536 -24.214 -11.031  0.00  0.00    +0.183 C 
BRANCH  14  15
ATOM     15  O   UNL     1      36.169 -24.464  -9.685  0.00  0.00    -0.378 OA
ATOM     16  H   UNL     1      35.203 -24.505  -9.616  0.00  0.00    +0.211 HD
ENDBRANCH  14  15
ENDBRANCH  11  14
ENDBRANCH   2  10
BRANCH   5  18
ATOM     17  N   UNL     1      34.004 -20.606 -20.689  0.00  0.00    -0.234 NA
ATOM     18  C   UNL     1      35.426 -21.551 -18.981  0.00  0.00    +0.021 C 
ATOM     19  C   UNL     1      36.551 -21.056 -19.627  0.00  0.00    +0.004 C 
ATOM     20  C   UNL     1      34.187 -21.303 -19.544  0.00  0.00    +0.100 C 
ATOM     21  C   UNL     1      36.404 -20.334 -20.807  0.00  0.00    +0.029 C 
ATOM     22  C   UNL     1      35.121 -20.139 -21.292  0.00  0.00    +0.146 C 
BRANCH  22  27
ATOM     23  N   UNL     1      33.975 -19.720 -23.404  0.00  0.00    -0.105 NA
ATOM     24  N   UNL     1      34.202 -18.751 -24.302  0.00  0.00    -0.113 N 
ATOM     25  N   UNL     1      35.657 -18.313 -22.837  0.00  0.00    -0.085 NA
ATOM     26  N   UNL     1      35.191 -17.895 -24.006  0.00  0.00    -0.018 NA
ATOM     27  C   UNL     1      34.910 -19.403 -22.505  0.00  0.00    +0.092 C 
ATOM     28  C   UNL     1      33.432 -18.637 -25.513  0.00  0.00    +0.163 C 
ENDBRANCH  22  27
ENDBRANCH   5  18
TORSDOF 5
ENDMDL
MODEL 6
REMARK VINA RESULT:     -10.5     14.643     16.903
REMARK  Name = 11234049
REMARK  5 active torsions:
REMARK  status: ('A' for Active; 'I' for Inactive)
REMARK    1  A    between atoms: C_2  and  N_10
REMARK    2  A    between atoms: C_5  and  C_18
REMARK    3  A    between atoms: C_11  and  C_14
REMARK    4  A    between atoms: C_14  and  O_15
REMARK    5  A    between atoms: C_22  and  C_27
REMARK                            x       y       z     vdW  Elec       q    Type
REMARK                         _______ _______ _______ _____ _____    ______ ____
ROOT
ATOM      1  F   UNL     1      31.356 -12.416 -21.488  0.00  0.00    -0.204 F 
ATOM      2  C   UNL     1      32.257  -8.998 -22.353  0.00  0.00    +0.059 C 
ATOM      3  C   UNL     1      31.633 -10.084 -21.731  0.00  0.00    +0.045 C 
ATOM      4  C   UNL     1      33.219  -9.229 -23.342  0.00  0.00    +0.015 C 
ATOM      5  C   UNL     1      32.927 -11.613 -23.083  0.00  0.00    +0.029 C 
ATOM      6  C   UNL     1      31.966 -11.388 -22.095  0.00  0.00    +0.141 C 
ATOM      7  C   UNL     1      33.554 -10.533 -23.704  0.00  0.00    +0.004 C 
ENDROOT
BRANCH   2  10
ATOM      8  O   UNL     1      31.774  -5.709 -20.866  0.00  0.00    -0.434 OA
ATOM      9  O   UNL     1      33.059  -7.332 -19.938  0.00  0.00    -0.226 OA
ATOM     10  N   UNL     1      31.916  -7.666 -21.982  0.00  0.00    -0.221 N 
ATOM     11  C   UNL     1      31.153  -5.487 -22.139  0.00  0.00    +0.220 C 
ATOM     12  C   UNL     1      30.960  -6.875 -22.711  0.00  0.00    +0.148 C 
ATOM     13  C   UNL     1      32.337  -6.967 -20.854  0.00  0.00    +0.409 C 
BRANCH  11  14
ATOM     14  C   UNL     1      32.066  -4.611 -22.986  0.00  0.00    +0.183 C 
BRANCH  14  15
ATOM     15  O   UNL     1      31.737  -3.253 -22.752  0.00  0.00    -0.378 OA
ATOM     16  H   UNL     1      31.879  -2.742 -23.564  0.00  0.00    +0.211 HD
ENDBRANCH  14  15
ENDBRANCH  11  14
ENDBRANCH   2  10
BRANCH   5  18
ATOM     17  N   UNL     1      33.129 -14.756 -25.076  0.00  0.00    -0.234 NA
ATOM     18  C   UNL     1      33.277 -12.965 -23.463  0.00  0.00    +0.021 C 
ATOM     19  C   UNL     1      34.063 -13.758 -22.638  0.00  0.00    +0.004 C 
ATOM     20  C   UNL     1      32.838 -13.503 -24.661  0.00  0.00    +0.100 C 
ATOM     21  C   UNL     1      34.383 -15.053 -23.031  0.00  0.00    +0.029 C 
ATOM     22  C   UNL     1      33.896 -15.500 -24.248  0.00  0.00    +0.146 C 
BRANCH  22  27
ATOM     23  N   UNL     1      34.564 -17.819 -23.888  0.00  0.00    -0.105 NA
ATOM     24  N   UNL     1      34.711 -18.797 -24.792  0.00  0.00    -0.113 N 
ATOM     25  N   UNL     1      34.121 -17.183 -26.016  0.00  0.00    -0.085 NA
ATOM     26  N   UNL     1      34.459 -18.465 -26.066  0.00  0.00    -0.018 NA
ATOM     27  C   UNL     1      34.194 -16.828 -24.703  0.00  0.00    +0.092 C 
ATOM     28  C   UNL     1      35.117 -20.127 -24.418  0.00  0.00    +0.163 C 
ENDBRANCH  22  27
ENDBRANCH   5  18
TORSDOF 5
ENDMDL
MODEL 7
REMARK VINA RESULT:     -10.4     14.654     16.875
REMARK  Name = 11234049
REMARK  5 active torsions:
REMARK  status: ('A' for Active; 'I' for Inactive)
REMARK    1  A    between atoms: C_2  and  N_10
REMARK    2  A    between atoms: C_5  and  C_18
REMARK    3  A    between atoms: C_11  and  C_14
REMARK    4  A    between atoms: C_14  and  O_15
REMARK    5  A    between atoms: C_22  and  C_27
REMARK                            x       y       z     vdW  Elec       q    Type
REMARK                         _______ _______ _______ _____ _____    ______ ____
ROOT
ATOM      1  F   UNL     1      34.640 -10.749 -24.562  0.00  0.00    -0.204 F 
ATOM      2  C   UNL     1      32.319  -9.002 -22.370  0.00  0.00    +0.059 C 
ATOM      3  C   UNL     1      33.335  -9.239 -23.303  0.00  0.00    +0.045 C 
ATOM      4  C   UNL     1      31.635 -10.084 -21.807  0.00  0.00    +0.015 C 
ATOM      5  C   UNL     1      32.977 -11.620 -23.101  0.00  0.00    +0.029 C 
ATOM      6  C   UNL     1      33.663 -10.544 -23.667  0.00  0.00    +0.141 C 
ATOM      7  C   UNL     1      31.963 -11.389 -22.173  0.00  0.00    +0.004 C 
ENDROOT
BRANCH   2  10
ATOM      8  O   UNL     1      31.847  -5.717 -20.873  0.00  0.00    -0.434 OA
ATOM      9  O   UNL     1      33.108  -7.354 -19.939  0.00  0.00    -0.226 OA
ATOM     10  N   UNL     1      31.984  -7.669 -21.997  0.00  0.00    -0.221 N 
ATOM     11  C   UNL     1      31.242  -5.484 -22.152  0.00  0.00    +0.220 C 
ATOM     12  C   UNL     1      31.044  -6.867 -22.732  0.00  0.00    +0.148 C 
ATOM     13  C   UNL     1      32.399  -6.979 -20.861  0.00  0.00    +0.409 C 
BRANCH  11  14
ATOM     14  C   UNL     1      32.172  -4.612 -22.985  0.00  0.00    +0.183 C 
BRANCH  14  15
ATOM     15  O   UNL     1      32.207  -5.120 -24.307  0.00  0.00    -0.378 OA
ATOM     16  H   UNL     1      32.224  -6.089 -24.280  0.00  0.00    +0.211 HD
ENDBRANCH  14  15
ENDBRANCH  11  14
ENDBRANCH   2  10
BRANCH   5  18
ATOM     17  N   UNL     1      33.142 -14.777 -25.078  0.00  0.00    -0.234 NA
ATOM     18  C   UNL     1      33.315 -12.977 -23.477  0.00  0.00    +0.021 C 
ATOM     19  C   UNL     1      34.102 -13.770 -22.653  0.00  0.00    +0.004 C 
ATOM     20  C   UNL     1      32.862 -13.519 -24.667  0.00  0.00    +0.100 C 
ATOM     21  C   UNL     1      34.410 -15.070 -23.040  0.00  0.00    +0.029 C 
ATOM     22  C   UNL     1      33.909 -15.521 -24.251  0.00  0.00    +0.146 C 
BRANCH  22  27
ATOM     23  N   UNL     1      34.607 -17.831 -23.889  0.00  0.00    -0.105 NA
ATOM     24  N   UNL     1      34.719 -18.821 -24.785  0.00  0.00    -0.113 N 
ATOM     25  N   UNL     1      34.065 -17.228 -26.004  0.00  0.00    -0.085 NA
ATOM     26  N   UNL     1      34.407 -18.509 -26.051  0.00  0.00    -0.018 NA
ATOM     27  C   UNL     1      34.194 -16.854 -24.700  0.00  0.00    +0.092 C 
ATOM     28  C   UNL     1      35.149 -20.143 -24.411  0.00  0.00    +0.163 C 
ENDBRANCH  22  27
ENDBRANCH   5  18
TORSDOF 5
ENDMDL
MODEL 8
REMARK VINA RESULT:     -10.3      6.191      7.271
REMARK  Name = 11234049
REMARK  5 active torsions:
REMARK  status: ('A' for Active; 'I' for Inactive)
REMARK    1  A    between atoms: C_2  and  N_10
REMARK    2  A    between atoms: C_5  and  C_18
REMARK    3  A    between atoms: C_11  and  C_14
REMARK    4  A    between atoms: C_14  and  O_15
REMARK    5  A    between atoms: C_22  and  C_27
REMARK                            x       y       z     vdW  Elec       q    Type
REMARK                         _______ _______ _______ _____ _____    ______ ____
ROOT
ATOM      1  F   UNL     1      33.171 -22.404 -19.067  0.00  0.00    -0.204 F 
ATOM      2  C   UNL     1      35.811 -23.098 -16.660  0.00  0.00    +0.059 C 
ATOM      3  C   UNL     1      34.568 -23.115 -17.302  0.00  0.00    +0.045 C 
ATOM      4  C   UNL     1      36.853 -22.336 -17.196  0.00  0.00    +0.015 C 
ATOM      5  C   UNL     1      35.414 -21.616 -18.997  0.00  0.00    +0.029 C 
ATOM      6  C   UNL     1      34.370 -22.376 -18.467  0.00  0.00    +0.141 C 
ATOM      7  C   UNL     1      36.655 -21.598 -18.362  0.00  0.00    +0.004 C 
ENDROOT
BRANCH   2  10
ATOM      8  O   UNL     1      35.669 -24.914 -13.506  0.00  0.00    -0.434 OA
ATOM      9  O   UNL     1      33.880 -23.883 -14.444  0.00  0.00    -0.226 OA
ATOM     10  N   UNL     1      36.012 -23.853 -15.469  0.00  0.00    -0.221 N 
ATOM     11  C   UNL     1      36.988 -25.280 -13.932  0.00  0.00    +0.220 C 
ATOM     12  C   UNL     1      37.310 -24.305 -15.042  0.00  0.00    +0.148 C 
ATOM     13  C   UNL     1      35.064 -24.178 -14.502  0.00  0.00    +0.409 C 
BRANCH  11  14
ATOM     14  C   UNL     1      36.972 -26.731 -14.394  0.00  0.00    +0.183 C 
BRANCH  14  15
ATOM     15  O   UNL     1      37.368 -26.779 -15.753  0.00  0.00    -0.378 OA
ATOM     16  H   UNL     1      37.446 -27.703 -16.034  0.00  0.00    +0.211 HD
ENDBRANCH  14  15
ENDBRANCH  11  14
ENDBRANCH   2  10
BRANCH   5  18
ATOM     17  N   UNL     1      33.698 -20.012 -21.892  0.00  0.00    -0.234 NA
ATOM     18  C   UNL     1      35.213 -20.847 -20.207  0.00  0.00    +0.021 C 
ATOM     19  C   UNL     1      36.279 -20.220 -20.839  0.00  0.00    +0.004 C 
ATOM     20  C   UNL     1      33.954 -20.716 -20.766  0.00  0.00    +0.100 C 
ATOM     21  C   UNL     1      36.056 -19.488 -22.000  0.00  0.00    +0.029 C 
ATOM     22  C   UNL     1      34.758 -19.416 -22.481  0.00  0.00    +0.146 C 
BRANCH  22  27
ATOM     23  N   UNL     1      34.538 -17.344 -23.750  0.00  0.00    -0.105 NA
ATOM     24  N   UNL     1      34.185 -17.181 -25.032  0.00  0.00    -0.113 N 
ATOM     25  N   UNL     1      34.099 -19.281 -24.838  0.00  0.00    -0.085 NA
ATOM     26  N   UNL     1      33.916 -18.303 -25.716  0.00  0.00    -0.018 NA
ATOM     27  C   UNL     1      34.470 -18.675 -23.676  0.00  0.00    +0.092 C 
ATOM     28  C   UNL     1      34.099 -15.879 -25.641  0.00  0.00    +0.163 C 
ENDBRANCH  22  27
ENDBRANCH   5  18
TORSDOF 5
ENDMDL
MODEL 9
REMARK VINA RESULT:     -10.2      6.317      7.621
REMARK  Name = 11234049
REMARK  5 active torsions:
REMARK  status: ('A' for Active; 'I' for Inactive)
REMARK    1  A    between atoms: C_2  and  N_10
REMARK    2  A    between atoms: C_5  and  C_18
REMARK    3  A    between atoms: C_11  and  C_14
REMARK    4  A    between atoms: C_14  and  O_15
REMARK    5  A    between atoms: C_22  and  C_27
REMARK                            x       y       z     vdW  Elec       q    Type
REMARK                         _______ _______ _______ _____ _____    ______ ____
ROOT
ATOM      1  F   UNL     1      33.225 -22.358 -19.368  0.00  0.00    -0.204 F 
ATOM      2  C   UNL     1      35.846 -23.034 -16.935  0.00  0.00    +0.059 C 
ATOM      3  C   UNL     1      34.615 -23.073 -17.599  0.00  0.00    +0.045 C 
ATOM      4  C   UNL     1      36.871 -22.223 -17.432  0.00  0.00    +0.015 C 
ATOM      5  C   UNL     1      35.440 -21.500 -19.237  0.00  0.00    +0.029 C 
ATOM      6  C   UNL     1      34.412 -22.308 -18.747  0.00  0.00    +0.141 C 
ATOM      7  C   UNL     1      36.669 -21.459 -18.580  0.00  0.00    +0.004 C 
ENDROOT
BRANCH   2  10
ATOM      8  O   UNL     1      37.012 -24.808 -13.977  0.00  0.00    -0.434 OA
ATOM      9  O   UNL     1      38.340 -23.486 -15.254  0.00  0.00    -0.226 OA
ATOM     10  N   UNL     1      36.053 -23.815 -15.762  0.00  0.00    -0.221 N 
ATOM     11  C   UNL     1      35.603 -25.044 -13.855  0.00  0.00    +0.220 C 
ATOM     12  C   UNL     1      35.041 -24.675 -15.210  0.00  0.00    +0.148 C 
ATOM     13  C   UNL     1      37.235 -23.962 -15.041  0.00  0.00    +0.409 C 
BRANCH  11  14
ATOM     14  C   UNL     1      35.056 -24.183 -12.724  0.00  0.00    +0.183 C 
BRANCH  14  15
ATOM     15  O   UNL     1      34.719 -25.025 -11.635  0.00  0.00    -0.378 OA
ATOM     16  H   UNL     1      33.777 -25.252 -11.682  0.00  0.00    +0.211 HD
ENDBRANCH  14  15
ENDBRANCH  11  14
ENDBRANCH   2  10
BRANCH   5  18
ATOM     17  N   UNL     1      33.712 -19.840 -22.094  0.00  0.00    -0.234 NA
ATOM     18  C   UNL     1      35.234 -20.704 -20.429  0.00  0.00    +0.021 C 
ATOM     19  C   UNL     1      36.295 -20.054 -21.045  0.00  0.00    +0.004 C 
ATOM     20  C   UNL     1      33.973 -20.569 -20.985  0.00  0.00    +0.100 C 
ATOM     21  C   UNL     1      36.066 -19.297 -22.189  0.00  0.00    +0.029 C 
ATOM     22  C   UNL     1      34.769 -19.222 -22.669  0.00  0.00    +0.146 C 
BRANCH  22  27
ATOM     23  N   UNL     1      34.482 -17.121 -23.874  0.00  0.00    -0.105 NA
ATOM     24  N   UNL     1      34.154 -16.931 -25.159  0.00  0.00    -0.113 N 
ATOM     25  N   UNL     1      34.162 -19.038 -25.036  0.00  0.00    -0.085 NA
ATOM     26  N   UNL     1      33.955 -18.040 -25.886  0.00  0.00    -0.018 NA
ATOM     27  C   UNL     1      34.475 -18.455 -23.845  0.00  0.00    +0.092 C 
ATOM     28  C   UNL     1      34.021 -15.615 -25.726  0.00  0.00    +0.163 C 
ENDBRANCH  22  27
ENDBRANCH   5  18
TORSDOF 5
ENDMDL
