MODEL 1
REMARK VINA RESULT:      -9.7      0.000      0.000
REMARK  Name = 58507717
REMARK  2 active torsions:
REMARK  status: ('A' for Active; 'I' for Inactive)
REMARK    1  A    between atoms: C_18  and  C_21
REMARK    2  A    between atoms: C_22  and  C_31
REMARK                            x       y       z     vdW  Elec       q    Type
REMARK                         _______ _______ _______ _____ _____    ______ ____
ROOT
ATOM      1  O   UNL     1      29.800 -24.679 -14.035  0.00  0.00    -0.350 OA
ATOM      2  O   UNL     1      35.416 -20.953 -20.750  0.00  0.00    -0.350 OA
ATOM      3  N   UNL     1      32.385 -24.094 -14.972  0.00  0.00    -0.228 N 
ATOM      4  N   UNL     1      35.120 -22.257 -18.278  0.00  0.00    -0.228 N 
ATOM      5  N   UNL     1      33.721 -23.160 -16.642  0.00  0.00    -0.246 NA
ATOM      6  N   UNL     1      36.088 -23.552 -16.596  0.00  0.00    -0.260 NA
ATOM      7  N   UNL     1      34.682 -24.496 -14.894  0.00  0.00    -0.260 NA
ATOM      8  C   UNL     1      31.211 -23.485 -15.606  0.00  0.00    +0.135 C 
ATOM      9  C   UNL     1      32.124 -25.343 -14.242  0.00  0.00    +0.135 C 
ATOM     10  C   UNL     1      36.453 -22.066 -18.859  0.00  0.00    +0.135 C 
ATOM     11  C   UNL     1      34.008 -22.224 -19.237  0.00  0.00    +0.135 C 
ATOM     12  C   UNL     1      30.069 -23.397 -14.601  0.00  0.00    +0.164 C 
ATOM     13  C   UNL     1      30.934 -25.156 -13.309  0.00  0.00    +0.164 C 
ATOM     14  C   UNL     1      34.132 -20.991 -20.126  0.00  0.00    +0.164 C 
ATOM     15  C   UNL     1      36.447 -20.842 -19.769  0.00  0.00    +0.164 C 
ATOM     16  C   UNL     1      33.654 -23.907 -15.528  0.00  0.00    +0.224 C 
ATOM     17  C   UNL     1      34.969 -23.025 -17.118  0.00  0.00    +0.224 C 
ATOM     18  C   UNL     1      35.867 -24.275 -15.485  0.00  0.00    +0.164 C 
ENDROOT
BRANCH  18  21
ATOM     19  N   UNL     1      38.649 -26.660 -14.880  0.00  0.00    -0.229 NA
ATOM     20  N   UNL     1      40.331 -26.727 -13.195  0.00  0.00    -0.343 N 
ATOM     21  C   UNL     1      37.020 -24.874 -14.865  0.00  0.00    +0.110 C 
ATOM     22  C   UNL     1      37.615 -24.332 -13.731  0.00  0.00    +0.087 C 
ATOM     23  C   UNL     1      37.570 -26.029 -15.396  0.00  0.00    +0.112 C 
ATOM     24  C   UNL     1      38.725 -24.953 -13.171  0.00  0.00    +0.038 C 
ATOM     25  C   UNL     1      39.200 -26.105 -13.778  0.00  0.00    +0.125 C 
ATOM     26  H   UNL     1      40.702 -27.547 -13.594  0.00  0.00    +0.144 HD
ATOM     27  H   UNL     1      40.748 -26.339 -12.392  0.00  0.00    +0.144 HD
BRANCH  22  31
ATOM     28  F   UNL     1      36.928 -22.069 -13.978  0.00  0.00    -0.166 F 
ATOM     29  F   UNL     1      35.865 -23.259 -12.503  0.00  0.00    -0.166 F 
ATOM     30  F   UNL     1      37.893 -22.601 -12.104  0.00  0.00    -0.166 F 
ATOM     31  C   UNL     1      37.085 -23.090 -13.088  0.00  0.00    +0.419 C 
ENDBRANCH  22  31
ENDBRANCH  18  21
TORSDOF 2
ENDMDL
MODEL 2
REMARK VINA RESULT:      -9.4      0.395      4.855
REMARK  Name = 58507717
REMARK  2 active torsions:
REMARK  status: ('A' for Active; 'I' for Inactive)
REMARK    1  A    between atoms: C_18  and  C_21
REMARK    2  A    between atoms: C_22  and  C_31
REMARK                            x       y       z     vdW  Elec       q    Type
REMARK                         _______ _______ _______ _____ _____    ______ ____
ROOT
ATOM      1  O   UNL     1      35.289 -20.676 -20.395  0.00  0.00    -0.350 OA
ATOM      2  O   UNL     1      30.068 -24.366 -13.350  0.00  0.00    -0.350 OA
ATOM      3  N   UNL     1      35.082 -22.416 -18.197  0.00  0.00    -0.228 N 
ATOM      4  N   UNL     1      32.500 -24.214 -14.750  0.00  0.00    -0.228 N 
ATOM      5  N   UNL     1      33.759 -23.299 -16.489  0.00  0.00    -0.246 NA
ATOM      6  N   UNL     1      34.799 -24.610 -14.769  0.00  0.00    -0.260 NA
ATOM      7  N   UNL     1      36.127 -23.686 -16.543  0.00  0.00    -0.260 NA
ATOM      8  C   UNL     1      33.879 -21.815 -18.783  0.00  0.00    +0.135 C 
ATOM      9  C   UNL     1      36.332 -21.687 -18.452  0.00  0.00    +0.135 C 
ATOM     10  C   UNL     1      32.403 -25.003 -13.517  0.00  0.00    +0.135 C 
ATOM     11  C   UNL     1      31.492 -23.156 -14.897  0.00  0.00    +0.135 C 
ATOM     12  C   UNL     1      34.128 -21.492 -20.252  0.00  0.00    +0.164 C 
ATOM     13  C   UNL     1      36.450 -21.371 -19.939  0.00  0.00    +0.164 C 
ATOM     14  C   UNL     1      30.104 -23.727 -14.626  0.00  0.00    +0.164 C 
ATOM     15  C   UNL     1      30.966 -25.474 -13.319  0.00  0.00    +0.164 C 
ATOM     16  C   UNL     1      34.985 -23.168 -17.022  0.00  0.00    +0.224 C 
ATOM     17  C   UNL     1      33.744 -24.032 -15.364  0.00  0.00    +0.224 C 
ATOM     18  C   UNL     1      35.958 -24.394 -15.415  0.00  0.00    +0.164 C 
ENDROOT
BRANCH  18  21
ATOM     19  N   UNL     1      38.769 -26.765 -14.893  0.00  0.00    -0.229 NA
ATOM     20  N   UNL     1      40.523 -26.801 -13.281  0.00  0.00    -0.343 N 
ATOM     21  C   UNL     1      37.138 -24.981 -14.836  0.00  0.00    +0.110 C 
ATOM     22  C   UNL     1      37.779 -24.421 -13.737  0.00  0.00    +0.087 C 
ATOM     23  C   UNL     1      37.668 -26.144 -15.372  0.00  0.00    +0.112 C 
ATOM     24  C   UNL     1      38.915 -25.031 -13.215  0.00  0.00    +0.038 C 
ATOM     25  C   UNL     1      39.366 -26.191 -13.825  0.00  0.00    +0.125 C 
ATOM     26  H   UNL     1      40.878 -27.627 -13.683  0.00  0.00    +0.144 HD
ATOM     27  H   UNL     1      40.972 -26.400 -12.503  0.00  0.00    +0.144 HD
BRANCH  22  31
ATOM     28  F   UNL     1      37.136 -22.144 -13.979  0.00  0.00    -0.166 F 
ATOM     29  F   UNL     1      36.052 -23.317 -12.504  0.00  0.00    -0.166 F 
ATOM     30  F   UNL     1      38.093 -22.697 -12.108  0.00  0.00    -0.166 F 
ATOM     31  C   UNL     1      37.275 -23.170 -13.091  0.00  0.00    +0.419 C 
ENDBRANCH  22  31
ENDBRANCH  18  21
TORSDOF 2
ENDMDL
MODEL 3
REMARK VINA RESULT:      -9.1      3.068      6.723
REMARK  Name = 58507717
REMARK  2 active torsions:
REMARK  status: ('A' for Active; 'I' for Inactive)
REMARK    1  A    between atoms: C_18  and  C_21
REMARK    2  A    between atoms: C_22  and  C_31
REMARK                            x       y       z     vdW  Elec       q    Type
REMARK                         _______ _______ _______ _____ _____    ______ ____
ROOT
ATOM      1  O   UNL     1      39.042 -26.541 -12.981  0.00  0.00    -0.350 OA
ATOM      2  O   UNL     1      29.833 -24.498 -14.213  0.00  0.00    -0.350 OA
ATOM      3  N   UNL     1      37.056 -25.012 -14.252  0.00  0.00    -0.228 N 
ATOM      4  N   UNL     1      32.532 -24.025 -14.838  0.00  0.00    -0.228 N 
ATOM      5  N   UNL     1      34.785 -24.540 -14.514  0.00  0.00    -0.246 NA
ATOM      6  N   UNL     1      34.090 -23.123 -16.321  0.00  0.00    -0.260 NA
ATOM      7  N   UNL     1      36.417 -23.629 -16.020  0.00  0.00    -0.260 NA
ATOM      8  C   UNL     1      36.724 -25.835 -13.084  0.00  0.00    +0.135 C 
ATOM      9  C   UNL     1      38.258 -25.427 -14.988  0.00  0.00    +0.135 C 
ATOM     10  C   UNL     1      31.468 -23.345 -15.585  0.00  0.00    +0.135 C 
ATOM     11  C   UNL     1      32.131 -25.273 -14.175  0.00  0.00    +0.135 C 
ATOM     12  C   UNL     1      37.961 -26.016 -12.213  0.00  0.00    +0.164 C 
ATOM     13  C   UNL     1      39.414 -25.629 -14.015  0.00  0.00    +0.164 C 
ATOM     14  C   UNL     1      30.853 -25.044 -13.376  0.00  0.00    +0.164 C 
ATOM     15  C   UNL     1      30.224 -23.220 -14.712  0.00  0.00    +0.164 C 
ATOM     16  C   UNL     1      36.039 -24.364 -14.961  0.00  0.00    +0.224 C 
ATOM     17  C   UNL     1      33.864 -23.890 -15.243  0.00  0.00    +0.224 C 
ATOM     18  C   UNL     1      35.390 -23.039 -16.651  0.00  0.00    +0.164 C 
ENDROOT
BRANCH  18  21
ATOM     19  N   UNL     1      37.283 -20.737 -18.867  0.00  0.00    -0.229 NA
ATOM     20  N   UNL     1      36.786 -19.862 -21.026  0.00  0.00    -0.343 N 
ATOM     21  C   UNL     1      35.713 -22.233 -17.800  0.00  0.00    +0.110 C 
ATOM     22  C   UNL     1      34.865 -22.138 -18.897  0.00  0.00    +0.087 C 
ATOM     23  C   UNL     1      36.899 -21.519 -17.833  0.00  0.00    +0.112 C 
ATOM     24  C   UNL     1      35.225 -21.343 -19.980  0.00  0.00    +0.038 C 
ATOM     25  C   UNL     1      36.434 -20.669 -19.916  0.00  0.00    +0.125 C 
ATOM     26  H   UNL     1      37.636 -19.365 -21.023  0.00  0.00    +0.144 HD
ATOM     27  H   UNL     1      36.181 -19.798 -21.800  0.00  0.00    +0.144 HD
BRANCH  22  31
ATOM     28  F   UNL     1      33.001 -22.856 -20.188  0.00  0.00    -0.166 F 
ATOM     29  F   UNL     1      33.668 -24.188 -18.604  0.00  0.00    -0.166 F 
ATOM     30  F   UNL     1      32.618 -22.356 -18.108  0.00  0.00    -0.166 F 
ATOM     31  C   UNL     1      33.563 -22.871 -18.945  0.00  0.00    +0.419 C 
ENDBRANCH  22  31
ENDBRANCH  18  21
TORSDOF 2
ENDMDL
MODEL 4
REMARK VINA RESULT:      -8.5      2.440      6.357
REMARK  Name = 58507717
REMARK  2 active torsions:
REMARK  status: ('A' for Active; 'I' for Inactive)
REMARK    1  A    between atoms: C_18  and  C_21
REMARK    2  A    between atoms: C_22  and  C_31
REMARK                            x       y       z     vdW  Elec       q    Type
REMARK                         _______ _______ _______ _____ _____    ______ ____
ROOT
ATOM      1  O   UNL     1      38.756 -26.557 -12.871  0.00  0.00    -0.350 OA
ATOM      2  O   UNL     1      29.509 -24.636 -14.014  0.00  0.00    -0.350 OA
ATOM      3  N   UNL     1      36.732 -25.114 -14.184  0.00  0.00    -0.228 N 
ATOM      4  N   UNL     1      32.191 -24.186 -14.725  0.00  0.00    -0.228 N 
ATOM      5  N   UNL     1      34.453 -24.670 -14.422  0.00  0.00    -0.246 NA
ATOM      6  N   UNL     1      33.710 -23.364 -16.293  0.00  0.00    -0.260 NA
ATOM      7  N   UNL     1      36.046 -23.840 -16.014  0.00  0.00    -0.260 NA
ATOM      8  C   UNL     1      36.431 -25.870 -12.963  0.00  0.00    +0.135 C 
ATOM      9  C   UNL     1      37.921 -25.566 -14.921  0.00  0.00    +0.135 C 
ATOM     10  C   UNL     1      31.107 -23.557 -15.487  0.00  0.00    +0.135 C 
ATOM     11  C   UNL     1      31.812 -25.396 -13.982  0.00  0.00    +0.135 C 
ATOM     12  C   UNL     1      37.689 -25.993 -12.110  0.00  0.00    +0.164 C 
ATOM     13  C   UNL     1      39.099 -25.705 -13.964  0.00  0.00    +0.164 C 
ATOM     14  C   UNL     1      30.550 -25.127 -13.169  0.00  0.00    +0.164 C 
ATOM     15  C   UNL     1      29.881 -23.387 -14.595  0.00  0.00    +0.164 C 
ATOM     16  C   UNL     1      35.696 -24.514 -14.906  0.00  0.00    +0.224 C 
ATOM     17  C   UNL     1      33.512 -24.068 -15.167  0.00  0.00    +0.224 C 
ATOM     18  C   UNL     1      35.002 -23.293 -16.656  0.00  0.00    +0.164 C 
ENDROOT
BRANCH  18  21
ATOM     19  N   UNL     1      34.653 -21.998 -20.119  0.00  0.00    -0.229 NA
ATOM     20  N   UNL     1      36.004 -20.500 -21.386  0.00  0.00    -0.343 N 
ATOM     21  C   UNL     1      35.295 -22.554 -17.856  0.00  0.00    +0.110 C 
ATOM     22  C   UNL     1      36.411 -21.731 -17.963  0.00  0.00    +0.087 C 
ATOM     23  C   UNL     1      34.455 -22.653 -18.953  0.00  0.00    +0.112 C 
ATOM     24  C   UNL     1      36.649 -21.042 -19.147  0.00  0.00    +0.038 C 
ATOM     25  C   UNL     1      35.747 -21.207 -20.186  0.00  0.00    +0.125 C 
ATOM     26  H   UNL     1      35.390 -20.588 -22.150  0.00  0.00    +0.144 HD
ATOM     27  H   UNL     1      36.796 -19.919 -21.456  0.00  0.00    +0.144 HD
BRANCH  22  31
ATOM     28  F   UNL     1      38.131 -20.440 -16.948  0.00  0.00    -0.166 F 
ATOM     29  F   UNL     1      36.768 -21.481 -15.611  0.00  0.00    -0.166 F 
ATOM     30  F   UNL     1      38.261 -22.598 -16.719  0.00  0.00    -0.166 F 
ATOM     31  C   UNL     1      37.374 -21.569 -16.831  0.00  0.00    +0.419 C 
ENDBRANCH  22  31
ENDBRANCH  18  21
TORSDOF 2
ENDMDL
MODEL 5
REMARK VINA RESULT:      -8.2      1.948      2.287
REMARK  Name = 58507717
REMARK  2 active torsions:
REMARK  status: ('A' for Active; 'I' for Inactive)
REMARK    1  A    between atoms: C_18  and  C_21
REMARK    2  A    between atoms: C_22  and  C_31
REMARK                            x       y       z     vdW  Elec       q    Type
REMARK                         _______ _______ _______ _____ _____    ______ ____
ROOT
ATOM      1  O   UNL     1      29.264 -25.042 -14.715  0.00  0.00    -0.350 OA
ATOM      2  O   UNL     1      35.693 -21.459 -20.743  0.00  0.00    -0.350 OA
ATOM      3  N   UNL     1      31.877 -24.124 -15.196  0.00  0.00    -0.228 N 
ATOM      4  N   UNL     1      35.013 -22.364 -18.171  0.00  0.00    -0.228 N 
ATOM      5  N   UNL     1      33.417 -23.237 -16.709  0.00  0.00    -0.246 NA
ATOM      6  N   UNL     1      35.734 -23.143 -16.093  0.00  0.00    -0.260 NA
ATOM      7  N   UNL     1      34.121 -24.047 -14.562  0.00  0.00    -0.260 NA
ATOM      8  C   UNL     1      30.812 -23.873 -16.172  0.00  0.00    +0.135 C 
ATOM      9  C   UNL     1      31.643 -25.260 -14.293  0.00  0.00    +0.135 C 
ATOM     10  C   UNL     1      36.401 -22.014 -18.490  0.00  0.00    +0.135 C 
ATOM     11  C   UNL     1      34.174 -22.711 -19.326  0.00  0.00    +0.135 C 
ATOM     12  C   UNL     1      29.461 -23.845 -15.466  0.00  0.00    +0.164 C 
ATOM     13  C   UNL     1      30.248 -25.157 -13.686  0.00  0.00    +0.164 C 
ATOM     14  C   UNL     1      34.318 -21.644 -20.405  0.00  0.00    +0.164 C 
ATOM     15  C   UNL     1      36.427 -20.985 -19.615  0.00  0.00    +0.164 C 
ATOM     16  C   UNL     1      33.199 -23.787 -15.503  0.00  0.00    +0.224 C 
ATOM     17  C   UNL     1      34.707 -22.942 -16.934  0.00  0.00    +0.224 C 
ATOM     18  C   UNL     1      35.365 -23.699 -14.927  0.00  0.00    +0.164 C 
ENDROOT
BRANCH  18  21
ATOM     19  N   UNL     1      37.777 -23.091 -12.169  0.00  0.00    -0.229 NA
ATOM     20  N   UNL     1      39.417 -24.500 -11.168  0.00  0.00    -0.343 N 
ATOM     21  C   UNL     1      36.413 -23.947 -13.971  0.00  0.00    +0.110 C 
ATOM     22  C   UNL     1      37.064 -25.173 -13.891  0.00  0.00    +0.087 C 
ATOM     23  C   UNL     1      36.804 -22.947 -13.096  0.00  0.00    +0.112 C 
ATOM     24  C   UNL     1      38.071 -25.359 -12.950  0.00  0.00    +0.038 C 
ATOM     25  C   UNL     1      38.387 -24.295 -12.119  0.00  0.00    +0.125 C 
ATOM     26  H   UNL     1      39.674 -23.771 -10.557  0.00  0.00    +0.144 HD
ATOM     27  H   UNL     1      39.875 -25.370 -11.116  0.00  0.00    +0.144 HD
BRANCH  22  31
ATOM     28  F   UNL     1      37.553 -26.402 -15.867  0.00  0.00    -0.166 F 
ATOM     29  F   UNL     1      36.752 -27.526 -14.187  0.00  0.00    -0.166 F 
ATOM     30  F   UNL     1      35.457 -26.211 -15.326  0.00  0.00    -0.166 F 
ATOM     31  C   UNL     1      36.711 -26.307 -14.799  0.00  0.00    +0.419 C 
ENDBRANCH  22  31
ENDBRANCH  18  21
TORSDOF 2
ENDMDL
MODEL 6
REMARK VINA RESULT:      -7.8      2.118      5.391
REMARK  Name = 58507717
REMARK  2 active torsions:
REMARK  status: ('A' for Active; 'I' for Inactive)
REMARK    1  A    between atoms: C_18  and  C_21
REMARK    2  A    between atoms: C_22  and  C_31
REMARK                            x       y       z     vdW  Elec       q    Type
REMARK                         _______ _______ _______ _____ _____    ______ ____
ROOT
ATOM      1  O   UNL     1      35.794 -21.079 -20.540  0.00  0.00    -0.350 OA
ATOM      2  O   UNL     1      28.801 -24.494 -15.069  0.00  0.00    -0.350 OA
ATOM      3  N   UNL     1      34.992 -22.508 -18.257  0.00  0.00    -0.228 N 
ATOM      4  N   UNL     1      31.544 -24.175 -15.589  0.00  0.00    -0.228 N 
ATOM      5  N   UNL     1      33.242 -23.333 -16.950  0.00  0.00    -0.246 NA
ATOM      6  N   UNL     1      33.730 -24.221 -14.776  0.00  0.00    -0.260 NA
ATOM      7  N   UNL     1      35.504 -23.364 -16.147  0.00  0.00    -0.260 NA
ATOM      8  C   UNL     1      34.021 -22.182 -19.306  0.00  0.00    +0.135 C 
ATOM      9  C   UNL     1      36.179 -21.642 -18.213  0.00  0.00    +0.135 C 
ATOM     10  C   UNL     1      31.094 -24.790 -14.336  0.00  0.00    +0.135 C 
ATOM     11  C   UNL     1      30.557 -23.311 -16.251  0.00  0.00    +0.135 C 
ATOM     12  C   UNL     1      34.737 -22.032 -20.643  0.00  0.00    +0.164 C 
ATOM     13  C   UNL     1      36.781 -21.522 -19.608  0.00  0.00    +0.164 C 
ATOM     14  C   UNL     1      29.222 -24.040 -16.355  0.00  0.00    +0.164 C 
ATOM     15  C   UNL     1      29.730 -25.439 -14.541  0.00  0.00    +0.164 C 
ATOM     16  C   UNL     1      34.559 -23.095 -17.064  0.00  0.00    +0.224 C 
ATOM     17  C   UNL     1      32.901 -23.897 -15.781  0.00  0.00    +0.224 C 
ATOM     18  C   UNL     1      35.016 -23.925 -15.030  0.00  0.00    +0.164 C 
ENDROOT
BRANCH  18  21
ATOM     19  N   UNL     1      37.057 -23.568 -11.948  0.00  0.00    -0.229 NA
ATOM     20  N   UNL     1      38.677 -25.004 -10.954  0.00  0.00    -0.343 N 
ATOM     21  C   UNL     1      35.967 -24.243 -13.997  0.00  0.00    +0.110 C 
ATOM     22  C   UNL     1      36.696 -25.427 -14.003  0.00  0.00    +0.087 C 
ATOM     23  C   UNL     1      36.183 -23.354 -12.957  0.00  0.00    +0.112 C 
ATOM     24  C   UNL     1      37.604 -25.683 -12.981  0.00  0.00    +0.038 C 
ATOM     25  C   UNL     1      37.746 -24.730 -11.986  0.00  0.00    +0.125 C 
ATOM     26  H   UNL     1      38.810 -24.355 -10.226  0.00  0.00    +0.144 HD
ATOM     27  H   UNL     1      39.190 -25.844 -10.963  0.00  0.00    +0.144 HD
BRANCH  22  31
ATOM     28  F   UNL     1      36.482 -27.717 -14.607  0.00  0.00    -0.166 F 
ATOM     29  F   UNL     1      35.386 -26.279 -15.814  0.00  0.00    -0.166 F 
ATOM     30  F   UNL     1      37.542 -26.430 -16.002  0.00  0.00    -0.166 F 
ATOM     31  C   UNL     1      36.530 -26.442 -15.088  0.00  0.00    +0.419 C 
ENDBRANCH  22  31
ENDBRANCH  18  21
TORSDOF 2
ENDMDL
MODEL 7
REMARK VINA RESULT:      -7.3      2.594      5.999
REMARK  Name = 58507717
REMARK  2 active torsions:
REMARK  status: ('A' for Active; 'I' for Inactive)
REMARK    1  A    between atoms: C_18  and  C_21
REMARK    2  A    between atoms: C_22  and  C_31
REMARK                            x       y       z     vdW  Elec       q    Type
REMARK                         _______ _______ _______ _____ _____    ______ ____
ROOT
ATOM      1  O   UNL     1      37.468 -25.251 -12.367  0.00  0.00    -0.350 OA
ATOM      2  O   UNL     1      36.431 -20.836 -20.730  0.00  0.00    -0.350 OA
ATOM      3  N   UNL     1      35.793 -24.391 -14.454  0.00  0.00    -0.228 N 
ATOM      4  N   UNL     1      35.309 -22.223 -18.559  0.00  0.00    -0.228 N 
ATOM      5  N   UNL     1      35.590 -23.306 -16.511  0.00  0.00    -0.246 NA
ATOM      6  N   UNL     1      33.401 -22.765 -17.331  0.00  0.00    -0.260 NA
ATOM      7  N   UNL     1      33.649 -23.881 -15.221  0.00  0.00    -0.260 NA
ATOM      8  C   UNL     1      37.250 -24.377 -14.619  0.00  0.00    +0.135 C 
ATOM      9  C   UNL     1      35.321 -24.360 -13.062  0.00  0.00    +0.135 C 
ATOM     10  C   UNL     1      34.446 -21.638 -19.591  0.00  0.00    +0.135 C 
ATOM     11  C   UNL     1      36.644 -21.620 -18.445  0.00  0.00    +0.135 C 
ATOM     12  C   UNL     1      37.881 -25.433 -13.721  0.00  0.00    +0.164 C 
ATOM     13  C   UNL     1      36.055 -25.419 -12.247  0.00  0.00    +0.164 C 
ATOM     14  C   UNL     1      37.288 -21.531 -19.824  0.00  0.00    +0.164 C 
ATOM     15  C   UNL     1      35.207 -21.547 -20.909  0.00  0.00    +0.164 C 
ATOM     16  C   UNL     1      34.973 -23.834 -15.441  0.00  0.00    +0.224 C 
ATOM     17  C   UNL     1      34.740 -22.791 -17.414  0.00  0.00    +0.224 C 
ATOM     18  C   UNL     1      32.926 -23.328 -16.208  0.00  0.00    +0.164 C 
ENDROOT
BRANCH  18  21
ATOM     19  N   UNL     1      29.333 -22.765 -16.961  0.00  0.00    -0.229 NA
ATOM     20  N   UNL     1      27.363 -23.282 -15.725  0.00  0.00    -0.343 N 
ATOM     21  C   UNL     1      31.495 -23.338 -16.045  0.00  0.00    +0.110 C 
ATOM     22  C   UNL     1      30.884 -23.873 -14.917  0.00  0.00    +0.087 C 
ATOM     23  C   UNL     1      30.683 -22.801 -17.029  0.00  0.00    +0.112 C 
ATOM     24  C   UNL     1      29.498 -23.855 -14.810  0.00  0.00    +0.038 C 
ATOM     25  C   UNL     1      28.774 -23.295 -15.850  0.00  0.00    +0.125 C 
ATOM     26  H   UNL     1      26.809 -22.894 -16.441  0.00  0.00    +0.144 HD
ATOM     27  H   UNL     1      26.935 -23.662 -14.924  0.00  0.00    +0.144 HD
BRANCH  22  31
ATOM     28  F   UNL     1      30.897 -25.001 -12.823  0.00  0.00    -0.166 F 
ATOM     29  F   UNL     1      32.504 -25.484 -14.206  0.00  0.00    -0.166 F 
ATOM     30  F   UNL     1      32.498 -23.574 -13.178  0.00  0.00    -0.166 F 
ATOM     31  C   UNL     1      31.683 -24.471 -13.803  0.00  0.00    +0.419 C 
ENDBRANCH  22  31
ENDBRANCH  18  21
TORSDOF 2
ENDMDL
MODEL 8
REMARK VINA RESULT:      -6.8      2.994      6.926
REMARK  Name = 58507717
REMARK  2 active torsions:
REMARK  status: ('A' for Active; 'I' for Inactive)
REMARK    1  A    between atoms: C_18  and  C_21
REMARK    2  A    between atoms: C_22  and  C_31
REMARK                            x       y       z     vdW  Elec       q    Type
REMARK                         _______ _______ _______ _____ _____    ______ ____
ROOT
ATOM      1  O   UNL     1      37.384 -24.875 -13.607  0.00  0.00    -0.350 OA
ATOM      2  O   UNL     1      28.091 -24.752 -15.639  0.00  0.00    -0.350 OA
ATOM      3  N   UNL     1      35.262 -23.870 -15.151  0.00  0.00    -0.228 N 
ATOM      4  N   UNL     1      30.699 -23.824 -16.129  0.00  0.00    -0.228 N 
ATOM      5  N   UNL     1      32.973 -23.868 -15.608  0.00  0.00    -0.246 NA
ATOM      6  N   UNL     1      32.181 -22.770 -17.589  0.00  0.00    -0.260 NA
ATOM      7  N   UNL     1      34.528 -22.793 -17.086  0.00  0.00    -0.260 NA
ATOM      8  C   UNL     1      34.992 -24.639 -13.932  0.00  0.00    +0.135 C 
ATOM      9  C   UNL     1      36.578 -24.108 -15.762  0.00  0.00    +0.135 C 
ATOM     10  C   UNL     1      29.594 -23.428 -17.008  0.00  0.00    +0.135 C 
ATOM     11  C   UNL     1      30.482 -25.065 -15.372  0.00  0.00    +0.135 C 
ATOM     12  C   UNL     1      36.164 -24.503 -12.967  0.00  0.00    +0.164 C 
ATOM     13  C   UNL     1      37.666 -24.000 -14.699  0.00  0.00    +0.164 C 
ATOM     14  C   UNL     1      29.121 -25.018 -14.686  0.00  0.00    +0.164 C 
ATOM     15  C   UNL     1      28.280 -23.470 -16.236  0.00  0.00    +0.164 C 
ATOM     16  C   UNL     1      34.206 -23.493 -15.987  0.00  0.00    +0.224 C 
ATOM     17  C   UNL     1      32.012 -23.471 -16.457  0.00  0.00    +0.224 C 
ATOM     18  C   UNL     1      33.466 -22.467 -17.840  0.00  0.00    +0.164 C 
ENDROOT
BRANCH  18  21
ATOM     19  N   UNL     1      32.831 -20.500 -20.926  0.00  0.00    -0.229 NA
ATOM     20  N   UNL     1      34.320 -19.541 -22.519  0.00  0.00    -0.343 N 
ATOM     21  C   UNL     1      33.729 -21.715 -19.039  0.00  0.00    +0.110 C 
ATOM     22  C   UNL     1      35.022 -21.471 -19.488  0.00  0.00    +0.087 C 
ATOM     23  C   UNL     1      32.678 -21.213 -19.788  0.00  0.00    +0.112 C 
ATOM     24  C   UNL     1      35.221 -20.741 -20.655  0.00  0.00    +0.038 C 
ATOM     25  C   UNL     1      34.101 -20.281 -21.331  0.00  0.00    +0.125 C 
ATOM     26  H   UNL     1      33.553 -19.196 -23.031  0.00  0.00    +0.144 HD
ATOM     27  H   UNL     1      35.237 -19.372 -22.833  0.00  0.00    +0.144 HD
BRANCH  22  31
ATOM     28  F   UNL     1      37.370 -21.850 -19.464  0.00  0.00    -0.166 F 
ATOM     29  F   UNL     1      36.442 -21.327 -17.568  0.00  0.00    -0.166 F 
ATOM     30  F   UNL     1      36.132 -23.299 -18.417  0.00  0.00    -0.166 F 
ATOM     31  C   UNL     1      36.217 -21.978 -18.746  0.00  0.00    +0.419 C 
ENDBRANCH  22  31
ENDBRANCH  18  21
TORSDOF 2
ENDMDL
