MODEL 1
REMARK VINA RESULT:     -10.9      0.000      0.000
REMARK  Name = 5327110
REMARK  7 active torsions:
REMARK  status: ('A' for Active; 'I' for Inactive)
REMARK    1  A    between atoms: C_2  and  C_17
REMARK    2  A    between atoms: C_4  and  O_8
REMARK    3  A    between atoms: O_8  and  C_9
REMARK    4  A    between atoms: C_9  and  C_11
REMARK    5  A    between atoms: C_17  and  N_18
REMARK    6  A    between atoms: N_18  and  S_20
REMARK    7  A    between atoms: S_20  and  C_24
REMARK                            x       y       z     vdW  Elec       q    Type
REMARK                         _______ _______ _______ _____ _____    ______ ____
ROOT
ATOM      1  N   UNL     1      36.027 -19.769 -20.645  0.00  0.00    +0.388 N 
ATOM      2  C   UNL     1      34.637 -19.540 -21.038  0.00  0.00    -0.042 C 
ATOM      3  C   UNL     1      34.744 -19.452 -22.553  0.00  0.00    +0.007 C 
ATOM      4  C   UNL     1      36.040 -18.677 -22.763  0.00  0.00    +0.093 C 
ATOM      5  C   UNL     1      36.836 -18.874 -21.475  0.00  0.00    -0.051 C 
ATOM      6  H   UNL     1      36.288 -20.741 -20.814  0.00  0.00    -0.084 HD
ATOM      7  H   UNL     1      36.169 -19.587 -19.651  0.00  0.00    -0.084 HD
ENDROOT
BRANCH   4   8
ATOM      8  O   UNL     1      35.758 -17.292 -22.929  0.00  0.00    -0.354 OA
BRANCH   8   9
ATOM      9  C   UNL     1      34.751 -17.081 -23.908  0.00  0.00    +0.168 C 
BRANCH   9  11
ATOM     10 CL   UNL     1      33.033 -11.332 -23.731  0.00  0.00    -0.082 Cl
ATOM     11  C   UNL     1      34.320 -15.644 -23.865  0.00  0.00    +0.007 C 
ATOM     12  C   UNL     1      33.660 -15.089 -24.954  0.00  0.00    -0.001 C 
ATOM     13  C   UNL     1      34.588 -14.880 -22.733  0.00  0.00    -0.001 C 
ATOM     14  C   UNL     1      33.261 -13.753 -24.913  0.00  0.00    +0.011 C 
ATOM     15  C   UNL     1      34.189 -13.544 -22.692  0.00  0.00    +0.011 C 
ATOM     16  C   UNL     1      33.525 -12.980 -23.782  0.00  0.00    +0.058 C 
ENDBRANCH   9  11
ENDBRANCH   8   9
ENDBRANCH   4   8
BRANCH   2  17
ATOM     17  C   UNL     1      33.729 -20.663 -20.567  0.00  0.00    +0.070 C 
BRANCH  17  18
ATOM     18  N   UNL     1      34.549 -21.767 -20.030  0.00  0.00    -0.181 NA
ATOM     19  H   UNL     1      34.857 -22.321 -20.829  0.00  0.00    +0.149 HD
BRANCH  18  20
ATOM     20  S   UNL     1      33.879 -22.856 -18.906  0.00  0.00    +0.060 S 
ATOM     21  O   UNL     1      33.944 -24.201 -19.445  0.00  0.00    -0.153 OA
ATOM     22  O   UNL     1      32.619 -22.322 -18.425  0.00  0.00    -0.153 OA
BRANCH  20  24
ATOM     23  N   UNL     1      34.240 -24.252 -13.712  0.00  0.00    -0.242 NA
ATOM     24  C   UNL     1      35.030 -22.749 -17.569  0.00  0.00    +0.122 C 
ATOM     25  C   UNL     1      34.745 -23.255 -16.296  0.00  0.00    +0.022 C 
ATOM     26  C   UNL     1      36.244 -22.130 -17.847  0.00  0.00    +0.020 C 
ATOM     27  C   UNL     1      35.718 -23.129 -15.283  0.00  0.00    +0.020 C 
ATOM     28  C   UNL     1      37.202 -22.007 -16.844  0.00  0.00    +0.001 C 
ATOM     29  C   UNL     1      33.530 -23.882 -15.995  0.00  0.00    +0.022 C 
ATOM     30  C   UNL     1      36.943 -22.504 -15.566  0.00  0.00    +0.002 C 
ATOM     31  C   UNL     1      35.407 -23.644 -14.023  0.00  0.00    +0.099 C 
ATOM     32  C   UNL     1      33.332 -24.355 -14.707  0.00  0.00    +0.099 C 
ENDBRANCH  20  24
ENDBRANCH  18  20
ENDBRANCH  17  18
ENDBRANCH   2  17
TORSDOF 7
ENDMDL
MODEL 2
REMARK VINA RESULT:     -10.8      1.426      2.357
REMARK  Name = 5327110
REMARK  7 active torsions:
REMARK  status: ('A' for Active; 'I' for Inactive)
REMARK    1  A    between atoms: C_2  and  C_17
REMARK    2  A    between atoms: C_4  and  O_8
REMARK    3  A    between atoms: O_8  and  C_9
REMARK    4  A    between atoms: C_9  and  C_11
REMARK    5  A    between atoms: C_17  and  N_18
REMARK    6  A    between atoms: N_18  and  S_20
REMARK    7  A    between atoms: S_20  and  C_24
REMARK                            x       y       z     vdW  Elec       q    Type
REMARK                         _______ _______ _______ _____ _____    ______ ____
ROOT
ATOM      1  N   UNL     1      35.717 -20.438 -20.459  0.00  0.00    +0.388 N 
ATOM      2  C   UNL     1      34.326 -20.042 -20.673  0.00  0.00    -0.042 C 
ATOM      3  C   UNL     1      34.382 -19.420 -22.061  0.00  0.00    +0.007 C 
ATOM      4  C   UNL     1      35.703 -18.660 -22.046  0.00  0.00    +0.093 C 
ATOM      5  C   UNL     1      36.536 -19.329 -20.955  0.00  0.00    -0.051 C 
ATOM      6  H   UNL     1      35.927 -21.292 -20.976  0.00  0.00    -0.084 HD
ATOM      7  H   UNL     1      35.904 -20.628 -19.474  0.00  0.00    -0.084 HD
ENDROOT
BRANCH   4   8
ATOM      8  O   UNL     1      35.479 -17.300 -21.693  0.00  0.00    -0.354 OA
BRANCH   8   9
ATOM      9  C   UNL     1      35.445 -16.464 -22.840  0.00  0.00    +0.168 C 
BRANCH   9  11
ATOM     10 CL   UNL     1      31.638 -11.931 -21.844  0.00  0.00    -0.082 Cl
ATOM     11  C   UNL     1      34.492 -15.331 -22.592  0.00  0.00    +0.007 C 
ATOM     12  C   UNL     1      33.924 -14.660 -23.668  0.00  0.00    -0.001 C 
ATOM     13  C   UNL     1      34.188 -14.962 -21.285  0.00  0.00    -0.001 C 
ATOM     14  C   UNL     1      33.039 -13.607 -23.437  0.00  0.00    +0.011 C 
ATOM     15  C   UNL     1      33.304 -13.909 -21.054  0.00  0.00    +0.011 C 
ATOM     16  C   UNL     1      32.729 -13.231 -22.129  0.00  0.00    +0.058 C 
ENDBRANCH   9  11
ENDBRANCH   8   9
ENDBRANCH   4   8
BRANCH   2  17
ATOM     17  C   UNL     1      33.386 -21.232 -20.589  0.00  0.00    +0.070 C 
BRANCH  17  18
ATOM     18  N   UNL     1      33.191 -21.608 -19.176  0.00  0.00    -0.181 NA
ATOM     19  H   UNL     1      33.412 -20.783 -18.618  0.00  0.00    +0.149 HD
BRANCH  18  20
ATOM     20  S   UNL     1      34.074 -22.901 -18.509  0.00  0.00    +0.060 S 
ATOM     21  O   UNL     1      35.401 -22.440 -18.147  0.00  0.00    -0.153 OA
ATOM     22  O   UNL     1      33.913 -24.069 -19.355  0.00  0.00    -0.153 OA
BRANCH  20  24
ATOM     23  N   UNL     1      35.018 -24.520 -13.455  0.00  0.00    -0.242 NA
ATOM     24  C   UNL     1      33.181 -23.219 -17.017  0.00  0.00    +0.122 C 
ATOM     25  C   UNL     1      33.813 -23.651 -15.846  0.00  0.00    +0.022 C 
ATOM     26  C   UNL     1      31.807 -23.017 -17.065  0.00  0.00    +0.020 C 
ATOM     27  C   UNL     1      33.028 -23.882 -14.697  0.00  0.00    +0.020 C 
ATOM     28  C   UNL     1      31.034 -23.247 -15.930  0.00  0.00    +0.001 C 
ATOM     29  C   UNL     1      35.195 -23.860 -15.774  0.00  0.00    +0.022 C 
ATOM     30  C   UNL     1      31.640 -23.678 -14.749  0.00  0.00    +0.002 C 
ATOM     31  C   UNL     1      33.685 -24.312 -13.543  0.00  0.00    +0.099 C 
ATOM     32  C   UNL     1      35.738 -24.288 -14.573  0.00  0.00    +0.099 C 
ENDBRANCH  20  24
ENDBRANCH  18  20
ENDBRANCH  17  18
ENDBRANCH   2  17
TORSDOF 7
ENDMDL
MODEL 3
REMARK VINA RESULT:     -10.7      7.415     13.777
REMARK  Name = 5327110
REMARK  7 active torsions:
REMARK  status: ('A' for Active; 'I' for Inactive)
REMARK    1  A    between atoms: C_2  and  C_17
REMARK    2  A    between atoms: C_4  and  O_8
REMARK    3  A    between atoms: O_8  and  C_9
REMARK    4  A    between atoms: C_9  and  C_11
REMARK    5  A    between atoms: C_17  and  N_18
REMARK    6  A    between atoms: N_18  and  S_20
REMARK    7  A    between atoms: S_20  and  C_24
REMARK                            x       y       z     vdW  Elec       q    Type
REMARK                         _______ _______ _______ _____ _____    ______ ____
ROOT
ATOM      1  N   UNL     1      32.710 -11.986 -22.726  0.00  0.00    +0.388 N 
ATOM      2  C   UNL     1      33.812 -11.744 -23.657  0.00  0.00    -0.042 C 
ATOM      3  C   UNL     1      33.698 -12.932 -24.601  0.00  0.00    +0.007 C 
ATOM      4  C   UNL     1      33.341 -14.082 -23.668  0.00  0.00    +0.093 C 
ATOM      5  C   UNL     1      32.734 -13.420 -22.432  0.00  0.00    -0.051 C 
ATOM      6  H   UNL     1      31.820 -11.727 -23.155  0.00  0.00    -0.084 HD
ATOM      7  H   UNL     1      32.809 -11.429 -21.877  0.00  0.00    -0.084 HD
ENDROOT
BRANCH   4   8
ATOM      8  O   UNL     1      34.518 -14.785 -23.289  0.00  0.00    -0.354 OA
BRANCH   8   9
ATOM      9  C   UNL     1      34.728 -15.926 -24.108  0.00  0.00    +0.168 C 
BRANCH   9  11
ATOM     10 CL   UNL     1      35.648 -20.714 -20.606  0.00  0.00    -0.082 Cl
ATOM     11  C   UNL     1      34.958 -17.122 -23.232  0.00  0.00    +0.007 C 
ATOM     12  C   UNL     1      35.423 -16.947 -21.934  0.00  0.00    -0.001 C 
ATOM     13  C   UNL     1      34.703 -18.397 -23.728  0.00  0.00    -0.001 C 
ATOM     14  C   UNL     1      35.637 -18.059 -21.120  0.00  0.00    +0.011 C 
ATOM     15  C   UNL     1      34.917 -19.509 -22.914  0.00  0.00    +0.011 C 
ATOM     16  C   UNL     1      35.384 -19.341 -21.610  0.00  0.00    +0.058 C 
ENDBRANCH   9  11
ENDBRANCH   8   9
ENDBRANCH   4   8
BRANCH   2  17
ATOM     17  C   UNL     1      33.668 -10.405 -24.360  0.00  0.00    +0.070 C 
BRANCH  17  18
ATOM     18  N   UNL     1      34.132  -9.326 -23.467  0.00  0.00    -0.181 NA
ATOM     19  H   UNL     1      34.734  -9.761 -22.768  0.00  0.00    +0.149 HD
BRANCH  18  20
ATOM     20  S   UNL     1      33.003  -8.376 -22.620  0.00  0.00    +0.060 S 
ATOM     21  O   UNL     1      33.502  -8.117 -21.283  0.00  0.00    -0.153 OA
ATOM     22  O   UNL     1      31.678  -8.937 -22.808  0.00  0.00    -0.153 OA
BRANCH  20  24
ATOM     23  N   UNL     1      30.463  -3.624 -22.766  0.00  0.00    -0.242 NA
ATOM     24  C   UNL     1      33.055  -6.858 -23.524  0.00  0.00    +0.122 C 
ATOM     25  C   UNL     1      32.183  -5.798 -23.255  0.00  0.00    +0.022 C 
ATOM     26  C   UNL     1      34.013  -6.770 -24.527  0.00  0.00    +0.020 C 
ATOM     27  C   UNL     1      32.290  -4.620 -24.024  0.00  0.00    +0.020 C 
ATOM     28  C   UNL     1      34.116  -5.606 -25.285  0.00  0.00    +0.001 C 
ATOM     29  C   UNL     1      31.211  -5.865 -22.250  0.00  0.00    +0.022 C 
ATOM     30  C   UNL     1      33.259  -4.534 -25.036  0.00  0.00    +0.002 C 
ATOM     31  C   UNL     1      31.408  -3.578 -23.732  0.00  0.00    +0.099 C 
ATOM     32  C   UNL     1      30.390  -4.766 -22.051  0.00  0.00    +0.099 C 
ENDBRANCH  20  24
ENDBRANCH  18  20
ENDBRANCH  17  18
ENDBRANCH   2  17
TORSDOF 7
ENDMDL
MODEL 4
REMARK VINA RESULT:     -10.6      2.866      4.238
REMARK  Name = 5327110
REMARK  7 active torsions:
REMARK  status: ('A' for Active; 'I' for Inactive)
REMARK    1  A    between atoms: C_2  and  C_17
REMARK    2  A    between atoms: C_4  and  O_8
REMARK    3  A    between atoms: O_8  and  C_9
REMARK    4  A    between atoms: C_9  and  C_11
REMARK    5  A    between atoms: C_17  and  N_18
REMARK    6  A    between atoms: N_18  and  S_20
REMARK    7  A    between atoms: S_20  and  C_24
REMARK                            x       y       z     vdW  Elec       q    Type
REMARK                         _______ _______ _______ _____ _____    ______ ____
ROOT
ATOM      1  N   UNL     1      35.690 -22.448 -18.017  0.00  0.00    +0.388 N 
ATOM      2  C   UNL     1      34.261 -22.324 -18.307  0.00  0.00    -0.042 C 
ATOM      3  C   UNL     1      34.241 -22.349 -19.828  0.00  0.00    +0.007 C 
ATOM      4  C   UNL     1      35.468 -21.526 -20.204  0.00  0.00    +0.093 C 
ATOM      5  C   UNL     1      36.375 -21.580 -18.976  0.00  0.00    -0.051 C 
ATOM      6  H   UNL     1      35.992 -23.416 -18.136  0.00  0.00    -0.084 HD
ATOM      7  H   UNL     1      35.900 -22.182 -17.055  0.00  0.00    -0.084 HD
ENDROOT
BRANCH   4   8
ATOM      8  O   UNL     1      35.093 -20.175 -20.446  0.00  0.00    -0.354 OA
BRANCH   8   9
ATOM      9  C   UNL     1      36.126 -19.460 -21.107  0.00  0.00    +0.168 C 
BRANCH   9  11
ATOM     10 CL   UNL     1      33.793 -16.531 -25.798  0.00  0.00    -0.082 Cl
ATOM     11  C   UNL     1      35.541 -18.728 -22.280  0.00  0.00    +0.007 C 
ATOM     12  C   UNL     1      34.876 -19.438 -23.273  0.00  0.00    -0.001 C 
ATOM     13  C   UNL     1      35.673 -17.345 -22.363  0.00  0.00    -0.001 C 
ATOM     14  C   UNL     1      34.333 -18.757 -24.363  0.00  0.00    +0.011 C 
ATOM     15  C   UNL     1      35.131 -16.666 -23.453  0.00  0.00    +0.011 C 
ATOM     16  C   UNL     1      34.461 -17.370 -24.453  0.00  0.00    +0.058 C 
ENDBRANCH   9  11
ENDBRANCH   8   9
ENDBRANCH   4   8
BRANCH   2  17
ATOM     17  C   UNL     1      33.462 -23.453 -17.680  0.00  0.00    +0.070 C 
BRANCH  17  18
ATOM     18  N   UNL     1      34.345 -24.264 -16.819  0.00  0.00    -0.181 NA
ATOM     19  H   UNL     1      34.052 -25.234 -16.927  0.00  0.00    +0.149 HD
BRANCH  18  20
ATOM     20  S   UNL     1      34.419 -23.957 -15.147  0.00  0.00    +0.060 S 
ATOM     21  O   UNL     1      33.196 -24.420 -14.519  0.00  0.00    -0.153 OA
ATOM     22  O   UNL     1      34.877 -22.596 -14.936  0.00  0.00    -0.153 OA
BRANCH  20  24
ATOM     23  N   UNL     1      37.904 -24.491 -11.069  0.00  0.00    -0.242 NA
ATOM     24  C   UNL     1      35.731 -25.027 -14.639  0.00  0.00    +0.122 C 
ATOM     25  C   UNL     1      36.439 -24.829 -13.449  0.00  0.00    +0.022 C 
ATOM     26  C   UNL     1      36.028 -26.086 -15.490  0.00  0.00    +0.020 C 
ATOM     27  C   UNL     1      37.473 -25.729 -13.117  0.00  0.00    +0.020 C 
ATOM     28  C   UNL     1      37.049 -26.973 -15.160  0.00  0.00    +0.001 C 
ATOM     29  C   UNL     1      36.157 -23.770 -12.578  0.00  0.00    +0.022 C 
ATOM     30  C   UNL     1      37.771 -26.797 -13.978  0.00  0.00    +0.002 C 
ATOM     31  C   UNL     1      38.162 -25.507 -11.924  0.00  0.00    +0.099 C 
ATOM     32  C   UNL     1      36.909 -23.649 -11.420  0.00  0.00    +0.099 C 
ENDBRANCH  20  24
ENDBRANCH  18  20
ENDBRANCH  17  18
ENDBRANCH   2  17
TORSDOF 7
ENDMDL
MODEL 5
REMARK VINA RESULT:     -10.5      5.281     10.990
REMARK  Name = 5327110
REMARK  7 active torsions:
REMARK  status: ('A' for Active; 'I' for Inactive)
REMARK    1  A    between atoms: C_2  and  C_17
REMARK    2  A    between atoms: C_4  and  O_8
REMARK    3  A    between atoms: O_8  and  C_9
REMARK    4  A    between atoms: C_9  and  C_11
REMARK    5  A    between atoms: C_17  and  N_18
REMARK    6  A    between atoms: N_18  and  S_20
REMARK    7  A    between atoms: S_20  and  C_24
REMARK                            x       y       z     vdW  Elec       q    Type
REMARK                         _______ _______ _______ _____ _____    ______ ____
ROOT
ATOM      1  N   UNL     1      33.400 -17.359 -25.873  0.00  0.00    +0.388 N 
ATOM      2  C   UNL     1      33.678 -16.452 -24.760  0.00  0.00    -0.042 C 
ATOM      3  C   UNL     1      34.960 -17.039 -24.184  0.00  0.00    +0.007 C 
ATOM      4  C   UNL     1      34.729 -18.542 -24.286  0.00  0.00    +0.093 C 
ATOM      5  C   UNL     1      33.669 -18.709 -25.374  0.00  0.00    -0.051 C 
ATOM      6  H   UNL     1      34.008 -17.146 -26.665  0.00  0.00    -0.084 HD
ATOM      7  H   UNL     1      32.437 -17.267 -26.198  0.00  0.00    -0.084 HD
ENDROOT
BRANCH   4   8
ATOM      8  O   UNL     1      34.216 -19.040 -23.057  0.00  0.00    -0.354 OA
BRANCH   8   9
ATOM      9  C   UNL     1      35.237 -19.155 -22.076  0.00  0.00    +0.168 C 
BRANCH   9  11
ATOM     10 CL   UNL     1      33.582 -23.240 -18.002  0.00  0.00    -0.082 Cl
ATOM     11  C   UNL     1      34.824 -20.176 -21.057  0.00  0.00    +0.007 C 
ATOM     12  C   UNL     1      35.794 -20.904 -20.379  0.00  0.00    -0.001 C 
ATOM     13  C   UNL     1      33.472 -20.385 -20.801  0.00  0.00    -0.001 C 
ATOM     14  C   UNL     1      35.410 -21.853 -19.431  0.00  0.00    +0.011 C 
ATOM     15  C   UNL     1      33.088 -21.334 -19.855  0.00  0.00    +0.011 C 
ATOM     16  C   UNL     1      34.056 -22.069 -19.169  0.00  0.00    +0.058 C 
ENDBRANCH   9  11
ENDBRANCH   8   9
ENDBRANCH   4   8
BRANCH   2  17
ATOM     17  C   UNL     1      33.837 -15.018 -25.232  0.00  0.00    +0.070 C 
BRANCH  17  18
ATOM     18  N   UNL     1      32.821 -14.169 -24.581  0.00  0.00    -0.181 NA
ATOM     19  H   UNL     1      32.607 -13.413 -25.232  0.00  0.00    +0.149 HD
BRANCH  18  20
ATOM     20  S   UNL     1      33.152 -13.443 -23.078  0.00  0.00    +0.060 S 
ATOM     21  O   UNL     1      34.337 -14.051 -22.502  0.00  0.00    -0.153 OA
ATOM     22  O   UNL     1      31.924 -13.367 -22.309  0.00  0.00    -0.153 OA
BRANCH  20  24
ATOM     23  N   UNL     1      31.878  -8.373 -21.761  0.00  0.00    -0.242 NA
ATOM     24  C   UNL     1      33.566 -11.792 -23.556  0.00  0.00    +0.122 C 
ATOM     25  C   UNL     1      32.992 -10.672 -22.946  0.00  0.00    +0.022 C 
ATOM     26  C   UNL     1      34.497 -11.661 -24.579  0.00  0.00    +0.020 C 
ATOM     27  C   UNL     1      33.376  -9.388 -23.386  0.00  0.00    +0.020 C 
ATOM     28  C   UNL     1      34.874 -10.392 -25.012  0.00  0.00    +0.001 C 
ATOM     29  C   UNL     1      32.052 -10.781 -21.914  0.00  0.00    +0.022 C 
ATOM     30  C   UNL     1      34.317  -9.258 -24.420  0.00  0.00    +0.002 C 
ATOM     31  C   UNL     1      32.787  -8.289 -22.758  0.00  0.00    +0.099 C 
ATOM     32  C   UNL     1      31.535  -9.618 -21.365  0.00  0.00    +0.099 C 
ENDBRANCH  20  24
ENDBRANCH  18  20
ENDBRANCH  17  18
ENDBRANCH   2  17
TORSDOF 7
ENDMDL
MODEL 6
REMARK VINA RESULT:     -10.3      4.067     10.426
REMARK  Name = 5327110
REMARK  7 active torsions:
REMARK  status: ('A' for Active; 'I' for Inactive)
REMARK    1  A    between atoms: C_2  and  C_17
REMARK    2  A    between atoms: C_4  and  O_8
REMARK    3  A    between atoms: O_8  and  C_9
REMARK    4  A    between atoms: C_9  and  C_11
REMARK    5  A    between atoms: C_17  and  N_18
REMARK    6  A    between atoms: N_18  and  S_20
REMARK    7  A    between atoms: S_20  and  C_24
REMARK                            x       y       z     vdW  Elec       q    Type
REMARK                         _______ _______ _______ _____ _____    ______ ____
ROOT
ATOM      1  N   UNL     1      32.605 -21.595 -19.380  0.00  0.00    +0.388 N 
ATOM      2  C   UNL     1      33.944 -21.093 -19.685  0.00  0.00    -0.042 C 
ATOM      3  C   UNL     1      34.765 -22.374 -19.720  0.00  0.00    +0.007 C 
ATOM      4  C   UNL     1      34.182 -23.189 -18.572  0.00  0.00    +0.093 C 
ATOM      5  C   UNL     1      32.781 -22.622 -18.350  0.00  0.00    -0.051 C 
ATOM      6  H   UNL     1      32.180 -22.001 -20.215  0.00  0.00    -0.084 HD
ATOM      7  H   UNL     1      31.989 -20.848 -19.060  0.00  0.00    -0.084 HD
ENDROOT
BRANCH   4   8
ATOM      8  O   UNL     1      34.955 -22.993 -17.393  0.00  0.00    -0.354 OA
BRANCH   8   9
ATOM      9  C   UNL     1      34.265 -23.447 -16.238  0.00  0.00    +0.168 C 
BRANCH   9  11
ATOM     10 CL   UNL     1      38.221 -24.286 -11.803  0.00  0.00    -0.082 Cl
ATOM     11  C   UNL     1      35.253 -23.658 -15.129  0.00  0.00    +0.007 C 
ATOM     12  C   UNL     1      34.821 -24.158 -13.906  0.00  0.00    -0.001 C 
ATOM     13  C   UNL     1      36.594 -23.349 -15.335  0.00  0.00    -0.001 C 
ATOM     14  C   UNL     1      35.740 -24.353 -12.876  0.00  0.00    +0.011 C 
ATOM     15  C   UNL     1      37.513 -23.544 -14.304  0.00  0.00    +0.011 C 
ATOM     16  C   UNL     1      37.087 -24.046 -13.075  0.00  0.00    +0.058 C 
ENDBRANCH   9  11
ENDBRANCH   8   9
ENDBRANCH   4   8
BRANCH   2  17
ATOM     17  C   UNL     1      33.971 -20.330 -20.999  0.00  0.00    +0.070 C 
BRANCH  17  18
ATOM     18  N   UNL     1      35.370 -20.125 -21.421  0.00  0.00    -0.181 NA
ATOM     19  H   UNL     1      35.960 -20.507 -20.683  0.00  0.00    +0.149 HD
BRANCH  18  20
ATOM     20  S   UNL     1      35.941 -18.554 -21.741  0.00  0.00    +0.060 S 
ATOM     21  O   UNL     1      37.357 -18.612 -22.047  0.00  0.00    -0.153 OA
ATOM     22  O   UNL     1      35.452 -17.655 -20.712  0.00  0.00    -0.153 OA
BRANCH  20  24
ATOM     23  N   UNL     1      33.817 -14.246 -24.189  0.00  0.00    -0.242 NA
ATOM     24  C   UNL     1      35.078 -18.151 -23.231  0.00  0.00    +0.122 C 
ATOM     25  C   UNL     1      34.668 -16.847 -23.527  0.00  0.00    +0.022 C 
ATOM     26  C   UNL     1      34.823 -19.205 -24.100  0.00  0.00    +0.020 C 
ATOM     27  C   UNL     1      33.984 -16.609 -24.737  0.00  0.00    +0.020 C 
ATOM     28  C   UNL     1      34.147 -18.967 -25.294  0.00  0.00    +0.001 C 
ATOM     29  C   UNL     1      34.915 -15.771 -22.666  0.00  0.00    +0.022 C 
ATOM     30  C   UNL     1      33.728 -17.676 -25.614  0.00  0.00    +0.002 C 
ATOM     31  C   UNL     1      33.588 -15.298 -25.007  0.00  0.00    +0.099 C 
ATOM     32  C   UNL     1      34.474 -14.511 -23.040  0.00  0.00    +0.099 C 
ENDBRANCH  20  24
ENDBRANCH  18  20
ENDBRANCH  17  18
ENDBRANCH   2  17
TORSDOF 7
ENDMDL
MODEL 7
REMARK VINA RESULT:     -10.3      1.699      2.604
REMARK  Name = 5327110
REMARK  7 active torsions:
REMARK  status: ('A' for Active; 'I' for Inactive)
REMARK    1  A    between atoms: C_2  and  C_17
REMARK    2  A    between atoms: C_4  and  O_8
REMARK    3  A    between atoms: O_8  and  C_9
REMARK    4  A    between atoms: C_9  and  C_11
REMARK    5  A    between atoms: C_17  and  N_18
REMARK    6  A    between atoms: N_18  and  S_20
REMARK    7  A    between atoms: S_20  and  C_24
REMARK                            x       y       z     vdW  Elec       q    Type
REMARK                         _______ _______ _______ _____ _____    ______ ____
ROOT
ATOM      1  N   UNL     1      34.428 -20.552 -20.572  0.00  0.00    +0.388 N 
ATOM      2  C   UNL     1      35.819 -20.996 -20.656  0.00  0.00    -0.042 C 
ATOM      3  C   UNL     1      36.582 -19.690 -20.488  0.00  0.00    +0.007 C 
ATOM      4  C   UNL     1      35.743 -18.695 -21.282  0.00  0.00    +0.093 C 
ATOM      5  C   UNL     1      34.349 -19.315 -21.352  0.00  0.00    -0.051 C 
ATOM      6  H   UNL     1      34.171 -20.375 -19.600  0.00  0.00    -0.084 HD
ATOM      7  H   UNL     1      33.787 -21.260 -20.929  0.00  0.00    -0.084 HD
ENDROOT
BRANCH   4   8
ATOM      8  O   UNL     1      36.261 -18.565 -22.600  0.00  0.00    -0.354 OA
BRANCH   8   9
ATOM      9  C   UNL     1      35.285 -18.897 -23.577  0.00  0.00    +0.168 C 
BRANCH   9  11
ATOM     10 CL   UNL     1      33.007 -13.833 -25.858  0.00  0.00    -0.082 Cl
ATOM     11  C   UNL     1      34.714 -17.631 -24.147  0.00  0.00    +0.007 C 
ATOM     12  C   UNL     1      34.010 -17.672 -25.345  0.00  0.00    -0.001 C 
ATOM     13  C   UNL     1      34.897 -16.429 -23.472  0.00  0.00    -0.001 C 
ATOM     14  C   UNL     1      33.481 -16.495 -25.875  0.00  0.00    +0.011 C 
ATOM     15  C   UNL     1      34.368 -15.253 -24.002  0.00  0.00    +0.011 C 
ATOM     16  C   UNL     1      33.659 -15.285 -25.203  0.00  0.00    +0.058 C 
ENDBRANCH   9  11
ENDBRANCH   8   9
ENDBRANCH   4   8
BRANCH   2  17
ATOM     17  C   UNL     1      36.145 -22.022 -19.585  0.00  0.00    +0.070 C 
BRANCH  17  18
ATOM     18  N   UNL     1      35.172 -21.909 -18.481  0.00  0.00    -0.181 NA
ATOM     19  H   UNL     1      35.682 -22.100 -17.619  0.00  0.00    +0.149 HD
BRANCH  18  20
ATOM     20  S   UNL     1      33.787 -22.898 -18.462  0.00  0.00    +0.060 S 
ATOM     21  O   UNL     1      34.045 -24.099 -19.232  0.00  0.00    -0.153 OA
ATOM     22  O   UNL     1      32.622 -22.083 -18.750  0.00  0.00    -0.153 OA
BRANCH  20  24
ATOM     23  N   UNL     1      30.051 -23.728 -14.666  0.00  0.00    -0.242 NA
ATOM     24  C   UNL     1      33.690 -23.354 -16.757  0.00  0.00    +0.122 C 
ATOM     25  C   UNL     1      32.470 -23.471 -16.084  0.00  0.00    +0.022 C 
ATOM     26  C   UNL     1      34.898 -23.591 -16.112  0.00  0.00    +0.020 C 
ATOM     27  C   UNL     1      32.479 -23.839 -14.722  0.00  0.00    +0.020 C 
ATOM     28  C   UNL     1      34.905 -23.954 -14.768  0.00  0.00    +0.001 C 
ATOM     29  C   UNL     1      31.242 -23.237 -16.713  0.00  0.00    +0.022 C 
ATOM     30  C   UNL     1      33.701 -24.078 -14.073  0.00  0.00    +0.002 C 
ATOM     31  C   UNL     1      31.247 -23.950 -14.076  0.00  0.00    +0.099 C 
ATOM     32  C   UNL     1      30.080 -23.377 -15.970  0.00  0.00    +0.099 C 
ENDBRANCH  20  24
ENDBRANCH  18  20
ENDBRANCH  17  18
ENDBRANCH   2  17
TORSDOF 7
ENDMDL
MODEL 8
REMARK VINA RESULT:     -10.2      5.545     11.531
REMARK  Name = 5327110
REMARK  7 active torsions:
REMARK  status: ('A' for Active; 'I' for Inactive)
REMARK    1  A    between atoms: C_2  and  C_17
REMARK    2  A    between atoms: C_4  and  O_8
REMARK    3  A    between atoms: O_8  and  C_9
REMARK    4  A    between atoms: C_9  and  C_11
REMARK    5  A    between atoms: C_17  and  N_18
REMARK    6  A    between atoms: N_18  and  S_20
REMARK    7  A    between atoms: S_20  and  C_24
REMARK                            x       y       z     vdW  Elec       q    Type
REMARK                         _______ _______ _______ _____ _____    ______ ____
ROOT
ATOM      1  N   UNL     1      34.011 -16.315 -25.427  0.00  0.00    +0.388 N 
ATOM      2  C   UNL     1      33.609 -15.515 -24.270  0.00  0.00    -0.042 C 
ATOM      3  C   UNL     1      34.874 -15.522 -23.424  0.00  0.00    +0.007 C 
ATOM      4  C   UNL     1      35.395 -16.944 -23.592  0.00  0.00    +0.093 C 
ATOM      5  C   UNL     1      34.774 -17.445 -24.894  0.00  0.00    -0.051 C 
ATOM      6  H   UNL     1      34.592 -15.760 -26.057  0.00  0.00    -0.084 HD
ATOM      7  H   UNL     1      33.202 -16.630 -25.963  0.00  0.00    -0.084 HD
ENDROOT
BRANCH   4   8
ATOM      8  O   UNL     1      34.942 -17.759 -22.517  0.00  0.00    -0.354 OA
BRANCH   8   9
ATOM      9  C   UNL     1      35.924 -18.712 -22.138  0.00  0.00    +0.168 C 
BRANCH   9  11
ATOM     10 CL   UNL     1      33.370 -22.865 -18.638  0.00  0.00    -0.082 Cl
ATOM     11  C   UNL     1      35.287 -19.750 -21.262  0.00  0.00    +0.007 C 
ATOM     12  C   UNL     1      36.085 -20.586 -20.492  0.00  0.00    -0.001 C 
ATOM     13  C   UNL     1      33.900 -19.866 -21.231  0.00  0.00    -0.001 C 
ATOM     14  C   UNL     1      35.492 -21.552 -19.678  0.00  0.00    +0.011 C 
ATOM     15  C   UNL     1      33.307 -20.831 -20.418  0.00  0.00    +0.011 C 
ATOM     16  C   UNL     1      34.102 -21.674 -19.641  0.00  0.00    +0.058 C 
ENDBRANCH   9  11
ENDBRANCH   8   9
ENDBRANCH   4   8
BRANCH   2  17
ATOM     17  C   UNL     1      33.171 -14.119 -24.679  0.00  0.00    +0.070 C 
BRANCH  17  18
ATOM     18  N   UNL     1      33.974 -13.117 -23.952  0.00  0.00    -0.181 NA
ATOM     19  H   UNL     1      33.721 -13.195 -22.967  0.00  0.00    +0.149 HD
BRANCH  18  20
ATOM     20  S   UNL     1      33.855 -11.470 -24.361  0.00  0.00    +0.060 S 
ATOM     21  O   UNL     1      33.048 -11.330 -25.558  0.00  0.00    -0.153 OA
ATOM     22  O   UNL     1      35.175 -10.871 -24.297  0.00  0.00    -0.153 OA
BRANCH  20  24
ATOM     23  N   UNL     1      32.749  -6.720 -22.064  0.00  0.00    -0.242 NA
ATOM     24  C   UNL     1      32.929 -10.825 -23.001  0.00  0.00    +0.122 C 
ATOM     25  C   UNL     1      32.885  -9.457 -22.709  0.00  0.00    +0.022 C 
ATOM     26  C   UNL     1      32.241 -11.752 -22.228  0.00  0.00    +0.020 C 
ATOM     27  C   UNL     1      32.121  -9.024 -21.605  0.00  0.00    +0.020 C 
ATOM     28  C   UNL     1      31.488 -11.321 -21.138  0.00  0.00    +0.001 C 
ATOM     29  C   UNL     1      33.569  -8.506 -23.474  0.00  0.00    +0.022 C 
ATOM     30  C   UNL     1      31.427  -9.963 -20.825  0.00  0.00    +0.002 C 
ATOM     31  C   UNL     1      32.095  -7.654 -21.338  0.00  0.00    +0.099 C 
ATOM     32  C   UNL     1      33.469  -7.171 -23.113  0.00  0.00    +0.099 C 
ENDBRANCH  20  24
ENDBRANCH  18  20
ENDBRANCH  17  18
ENDBRANCH   2  17
TORSDOF 7
ENDMDL
MODEL 9
REMARK VINA RESULT:     -10.2      7.421     13.980
REMARK  Name = 5327110
REMARK  7 active torsions:
REMARK  status: ('A' for Active; 'I' for Inactive)
REMARK    1  A    between atoms: C_2  and  C_17
REMARK    2  A    between atoms: C_4  and  O_8
REMARK    3  A    between atoms: O_8  and  C_9
REMARK    4  A    between atoms: C_9  and  C_11
REMARK    5  A    between atoms: C_17  and  N_18
REMARK    6  A    between atoms: N_18  and  S_20
REMARK    7  A    between atoms: S_20  and  C_24
REMARK                            x       y       z     vdW  Elec       q    Type
REMARK                         _______ _______ _______ _____ _____    ______ ____
ROOT
ATOM      1  N   UNL     1      32.639 -11.736 -22.675  0.00  0.00    +0.388 N 
ATOM      2  C   UNL     1      33.805 -11.460 -23.513  0.00  0.00    -0.042 C 
ATOM      3  C   UNL     1      33.724 -12.572 -24.548  0.00  0.00    +0.007 C 
ATOM      4  C   UNL     1      33.278 -13.776 -23.728  0.00  0.00    +0.093 C 
ATOM      5  C   UNL     1      32.608 -13.188 -22.488  0.00  0.00    -0.051 C 
ATOM      6  H   UNL     1      31.786 -11.420 -23.139  0.00  0.00    -0.084 HD
ATOM      7  H   UNL     1      32.696 -11.246 -21.782  0.00  0.00    -0.084 HD
ENDROOT
BRANCH   4   8
ATOM      8  O   UNL     1      34.409 -14.540 -23.328  0.00  0.00    -0.354 OA
BRANCH   8   9
ATOM      9  C   UNL     1      34.595 -15.671 -24.165  0.00  0.00    +0.168 C 
BRANCH   9  11
ATOM     10 CL   UNL     1      35.695 -20.476 -20.740  0.00  0.00    -0.082 Cl
ATOM     11  C   UNL     1      34.871 -16.873 -23.310  0.00  0.00    +0.007 C 
ATOM     12  C   UNL     1      34.708 -18.148 -23.839  0.00  0.00    -0.001 C 
ATOM     13  C   UNL     1      35.286 -16.700 -21.993  0.00  0.00    -0.001 C 
ATOM     14  C   UNL     1      34.963 -19.265 -23.043  0.00  0.00    +0.011 C 
ATOM     15  C   UNL     1      35.541 -17.816 -21.198  0.00  0.00    +0.011 C 
ATOM     16  C   UNL     1      35.380 -19.099 -21.722  0.00  0.00    +0.058 C 
ENDBRANCH   9  11
ENDBRANCH   8   9
ENDBRANCH   4   8
BRANCH   2  17
ATOM     17  C   UNL     1      33.741 -10.070 -24.122  0.00  0.00    +0.070 C 
BRANCH  17  18
ATOM     18  N   UNL     1      32.849  -9.217 -23.313  0.00  0.00    -0.181 NA
ATOM     19  H   UNL     1      32.217  -8.752 -23.964  0.00  0.00    +0.149 HD
BRANCH  18  20
ATOM     20  S   UNL     1      33.504  -8.006 -22.313  0.00  0.00    +0.060 S 
ATOM     21  O   UNL     1      34.914  -7.848 -22.612  0.00  0.00    -0.153 OA
ATOM     22  O   UNL     1      33.069  -8.234 -20.948  0.00  0.00    -0.153 OA
BRANCH  20  24
ATOM     23  N   UNL     1      33.949  -4.297 -26.199  0.00  0.00    -0.242 NA
ATOM     24  C   UNL     1      32.660  -6.564 -22.890  0.00  0.00    +0.122 C 
ATOM     25  C   UNL     1      33.107  -5.827 -23.991  0.00  0.00    +0.022 C 
ATOM     26  C   UNL     1      31.518  -6.195 -22.187  0.00  0.00    +0.020 C 
ATOM     27  C   UNL     1      32.376  -4.688 -24.387  0.00  0.00    +0.020 C 
ATOM     28  C   UNL     1      30.799  -5.069 -22.580  0.00  0.00    +0.001 C 
ATOM     29  C   UNL     1      34.253  -6.180 -24.713  0.00  0.00    +0.022 C 
ATOM     30  C   UNL     1      31.223  -4.317 -23.675  0.00  0.00    +0.002 C 
ATOM     31  C   UNL     1      32.845  -3.972 -25.489  0.00  0.00    +0.099 C 
ATOM     32  C   UNL     1      34.624  -5.393 -25.791  0.00  0.00    +0.099 C 
ENDBRANCH  20  24
ENDBRANCH  18  20
ENDBRANCH  17  18
ENDBRANCH   2  17
TORSDOF 7
ENDMDL
