MODEL 1
REMARK VINA RESULT:     -11.6      0.000      0.000
REMARK  Name = 135565465
REMARK  7 active torsions:
REMARK  status: ('A' for Active; 'I' for Inactive)
REMARK    1  A    between atoms: N_2  and  C_9
REMARK    2  A    between atoms: N_2  and  O_21
REMARK    3  A    between atoms: C_3  and  C_23
REMARK    4  A    between atoms: C_10  and  C_14
REMARK    5  A    between atoms: C_23  and  C_24
REMARK    6  A    between atoms: C_24  and  C_25
REMARK    7  A    between atoms: C_25  and  N_27
REMARK                            x       y       z     vdW  Elec       q    Type
REMARK                         _______ _______ _______ _____ _____    ______ ____
ROOT
ATOM      1  O   UNL     1      36.113 -22.578 -17.635  0.00  0.00    -0.453 OA
ATOM      2  C   UNL     1      34.958 -20.468 -21.021  0.00  0.00    -0.040 C 
ATOM      3  C   UNL     1      33.969 -21.068 -20.236  0.00  0.00    +0.053 C 
ATOM      4  C   UNL     1      34.325 -21.786 -19.088  0.00  0.00    +0.036 C 
ATOM      5  C   UNL     1      36.301 -20.580 -20.667  0.00  0.00    -0.005 C 
ATOM      6  C   UNL     1      35.675 -21.894 -18.741  0.00  0.00    +0.143 C 
ATOM      7  C   UNL     1      36.661 -21.293 -19.527  0.00  0.00    +0.037 C 
ATOM      8  C   UNL     1      33.322 -22.439 -18.220  0.00  0.00    +0.110 C 
ATOM      9  C   UNL     1      35.178 -23.201 -16.828  0.00  0.00    +0.160 C 
ATOM     10  C   UNL     1      33.854 -23.168 -17.046  0.00  0.00    +0.060 C 
ENDROOT
BRANCH   9  13
ATOM     11  S   UNL     1      37.455 -23.311 -12.077  0.00  0.00    -0.091 S 
ATOM     12  N   UNL     1      35.769 -25.250 -15.745  0.00  0.00    -0.266 NA
ATOM     13  C   UNL     1      35.758 -23.905 -15.667  0.00  0.00    +0.093 C 
ATOM     14  C   UNL     1      36.243 -23.171 -14.600  0.00  0.00    +0.081 C 
ATOM     15  C   UNL     1      36.776 -23.916 -13.541  0.00  0.00    +0.011 C 
ATOM     16  C   UNL     1      36.808 -25.313 -13.579  0.00  0.00    +0.005 C 
ATOM     17  C   UNL     1      36.287 -25.955 -14.714  0.00  0.00    +0.152 C 
ATOM     18  C   UNL     1      37.398 -25.851 -12.388  0.00  0.00    +0.005 C 
ATOM     19  C   UNL     1      37.789 -24.880 -11.498  0.00  0.00    +0.035 C 
ENDBRANCH   9  13
BRANCH   8  20
ATOM     20  N   UNL     1      32.042 -22.412 -18.417  0.00  0.00    -0.135 NA
BRANCH  20  21
ATOM     21  O   UNL     1      31.409 -22.767 -17.225  0.00  0.00    -0.265 OA
ATOM     22  H   UNL     1      31.379 -22.161 -16.513  0.00  0.00    +0.247 HD
ENDBRANCH  20  21
ENDBRANCH   8  20
BRANCH   2  23
ATOM     23  C   UNL     1      34.573 -19.705 -22.244  0.00  0.00    +0.020 C 
BRANCH  23  24
ATOM     24  C   UNL     1      35.741 -18.881 -22.807  0.00  0.00    -0.018 C 
BRANCH  24  25
ATOM     25  C   UNL     1      35.728 -17.449 -22.276  0.00  0.00    -0.077 C 
BRANCH  25  27
ATOM     26  O   UNL     1      33.360 -15.136 -24.857  0.00  0.00    -0.358 OA
ATOM     27  N   UNL     1      35.323 -16.520 -23.329  0.00  0.00    +0.390 N 
ATOM     28  C   UNL     1      34.518 -17.206 -24.350  0.00  0.00    -0.045 C 
ATOM     29  C   UNL     1      34.569 -15.391 -22.768  0.00  0.00    -0.045 C 
ATOM     30  C   UNL     1      34.146 -14.443 -23.887  0.00  0.00    +0.119 C 
ATOM     31  C   UNL     1      34.099 -16.215 -25.431  0.00  0.00    +0.119 C 
ATOM     32  H   UNL     1      36.169 -16.160 -23.770  0.00  0.00    -0.079 HD
ENDBRANCH  25  27
ENDBRANCH  24  25
ENDBRANCH  23  24
ENDBRANCH   2  23
TORSDOF 7
ENDMDL
MODEL 2
REMARK VINA RESULT:     -11.4      4.631      8.465
REMARK  Name = 135565465
REMARK  7 active torsions:
REMARK  status: ('A' for Active; 'I' for Inactive)
REMARK    1  A    between atoms: N_2  and  C_9
REMARK    2  A    between atoms: N_2  and  O_21
REMARK    3  A    between atoms: C_3  and  C_23
REMARK    4  A    between atoms: C_10  and  C_14
REMARK    5  A    between atoms: C_23  and  C_24
REMARK    6  A    between atoms: C_24  and  C_25
REMARK    7  A    between atoms: C_25  and  N_27
REMARK                            x       y       z     vdW  Elec       q    Type
REMARK                         _______ _______ _______ _____ _____    ______ ____
ROOT
ATOM      1  O   UNL     1      34.875 -16.309 -22.094  0.00  0.00    -0.453 OA
ATOM      2  C   UNL     1      33.756 -12.904 -24.193  0.00  0.00    -0.040 C 
ATOM      3  C   UNL     1      33.839 -14.118 -24.882  0.00  0.00    +0.053 C 
ATOM      4  C   UNL     1      34.212 -15.283 -24.203  0.00  0.00    +0.036 C 
ATOM      5  C   UNL     1      34.044 -12.847 -22.832  0.00  0.00    -0.005 C 
ATOM      6  C   UNL     1      34.501 -15.218 -22.837  0.00  0.00    +0.143 C 
ATOM      7  C   UNL     1      34.417 -14.003 -22.152  0.00  0.00    +0.037 C 
ATOM      8  C   UNL     1      34.315 -16.595 -24.880  0.00  0.00    +0.110 C 
ATOM      9  C   UNL     1      34.984 -17.534 -22.728  0.00  0.00    +0.160 C 
ATOM     10  C   UNL     1      34.729 -17.735 -24.030  0.00  0.00    +0.060 C 
ENDROOT
BRANCH   9  13
ATOM     11  S   UNL     1      33.968 -21.736 -19.713  0.00  0.00    -0.091 S 
ATOM     12  N   UNL     1      36.710 -18.724 -21.575  0.00  0.00    -0.266 NA
ATOM     13  C   UNL     1      35.391 -18.639 -21.835  0.00  0.00    +0.093 C 
ATOM     14  C   UNL     1      34.429 -19.495 -21.333  0.00  0.00    +0.081 C 
ATOM     15  C   UNL     1      34.899 -20.514 -20.495  0.00  0.00    +0.011 C 
ATOM     16  C   UNL     1      36.259 -20.640 -20.198  0.00  0.00    +0.005 C 
ATOM     17  C   UNL     1      37.148 -19.713 -20.765  0.00  0.00    +0.152 C 
ATOM     18  C   UNL     1      36.498 -21.752 -19.324  0.00  0.00    +0.005 C 
ATOM     19  C   UNL     1      35.349 -22.426 -18.987  0.00  0.00    +0.035 C 
ENDBRANCH   9  13
BRANCH   8  20
ATOM     20  N   UNL     1      34.069 -16.802 -26.134  0.00  0.00    -0.135 NA
BRANCH  20  21
ATOM     21  O   UNL     1      32.919 -17.587 -26.230  0.00  0.00    -0.265 OA
ATOM     22  H   UNL     1      32.350 -17.495 -26.968  0.00  0.00    +0.247 HD
ENDBRANCH  20  21
ENDBRANCH   8  20
BRANCH   2  23
ATOM     23  C   UNL     1      33.357 -11.664 -24.921  0.00  0.00    +0.020 C 
BRANCH  23  24
ATOM     24  C   UNL     1      33.788 -10.390 -24.179  0.00  0.00    -0.018 C 
BRANCH  24  25
ATOM     25  C   UNL     1      32.586  -9.638 -23.609  0.00  0.00    -0.077 C 
BRANCH  25  27
ATOM     26  O   UNL     1      31.983  -8.255 -19.692  0.00  0.00    -0.358 OA
ATOM     27  N   UNL     1      32.788  -9.361 -22.188  0.00  0.00    +0.390 N 
ATOM     28  C   UNL     1      32.833  -7.914 -21.938  0.00  0.00    -0.045 C 
ATOM     29  C   UNL     1      31.728  -9.979 -21.380  0.00  0.00    -0.045 C 
ATOM     30  C   UNL     1      31.953  -9.667 -19.903  0.00  0.00    +0.119 C 
ATOM     31  C   UNL     1      33.033  -7.651 -20.449  0.00  0.00    +0.119 C 
ATOM     32  H   UNL     1      33.684  -9.766 -21.915  0.00  0.00    -0.079 HD
ENDBRANCH  25  27
ENDBRANCH  24  25
ENDBRANCH  23  24
ENDBRANCH   2  23
TORSDOF 7
ENDMDL
MODEL 3
REMARK VINA RESULT:     -11.1      3.017      4.196
REMARK  Name = 135565465
REMARK  7 active torsions:
REMARK  status: ('A' for Active; 'I' for Inactive)
REMARK    1  A    between atoms: N_2  and  C_9
REMARK    2  A    between atoms: N_2  and  O_21
REMARK    3  A    between atoms: C_3  and  C_23
REMARK    4  A    between atoms: C_10  and  C_14
REMARK    5  A    between atoms: C_23  and  C_24
REMARK    6  A    between atoms: C_24  and  C_25
REMARK    7  A    between atoms: C_25  and  N_27
REMARK                            x       y       z     vdW  Elec       q    Type
REMARK                         _______ _______ _______ _____ _____    ______ ____
ROOT
ATOM      1  O   UNL     1      32.775 -22.074 -18.611  0.00  0.00    -0.453 OA
ATOM      2  C   UNL     1      34.707 -19.986 -21.638  0.00  0.00    -0.040 C 
ATOM      3  C   UNL     1      35.482 -20.643 -20.678  0.00  0.00    +0.053 C 
ATOM      4  C   UNL     1      34.862 -21.356 -19.645  0.00  0.00    +0.036 C 
ATOM      5  C   UNL     1      33.317 -20.036 -21.574  0.00  0.00    -0.005 C 
ATOM      6  C   UNL     1      33.466 -21.401 -19.587  0.00  0.00    +0.143 C 
ATOM      7  C   UNL     1      32.694 -20.744 -20.549  0.00  0.00    +0.037 C 
ATOM      8  C   UNL     1      35.631 -22.071 -18.604  0.00  0.00    +0.110 C 
ATOM      9  C   UNL     1      33.492 -22.733 -17.628  0.00  0.00    +0.160 C 
ATOM     10  C   UNL     1      34.832 -22.774 -17.573  0.00  0.00    +0.060 C 
ENDROOT
BRANCH   9  13
ATOM     11  S   UNL     1      28.870 -24.515 -15.830  0.00  0.00    -0.091 S 
ATOM     12  N   UNL     1      33.298 -23.904 -15.552  0.00  0.00    -0.266 NA
ATOM     13  C   UNL     1      32.650 -23.424 -16.631  0.00  0.00    +0.093 C 
ATOM     14  C   UNL     1      31.290 -23.538 -16.852  0.00  0.00    +0.081 C 
ATOM     15  C   UNL     1      30.566 -24.207 -15.858  0.00  0.00    +0.011 C 
ATOM     16  C   UNL     1      31.197 -24.721 -14.722  0.00  0.00    +0.005 C 
ATOM     17  C   UNL     1      32.585 -24.549 -14.602  0.00  0.00    +0.152 C 
ATOM     18  C   UNL     1      30.255 -25.361 -13.850  0.00  0.00    +0.005 C 
ATOM     19  C   UNL     1      28.967 -25.320 -14.329  0.00  0.00    +0.035 C 
ENDBRANCH   9  13
BRANCH   8  20
ATOM     20  N   UNL     1      36.923 -22.120 -18.541  0.00  0.00    -0.135 NA
BRANCH  20  21
ATOM     21  O   UNL     1      37.279 -22.718 -17.331  0.00  0.00    -0.265 OA
ATOM     22  H   UNL     1      37.335 -23.651 -17.268  0.00  0.00    +0.247 HD
ENDBRANCH  20  21
ENDBRANCH   8  20
BRANCH   2  23
ATOM     23  C   UNL     1      35.374 -19.228 -22.737  0.00  0.00    +0.020 C 
BRANCH  23  24
ATOM     24  C   UNL     1      34.386 -18.804 -23.834  0.00  0.00    -0.018 C 
BRANCH  24  25
ATOM     25  C   UNL     1      34.865 -17.554 -24.571  0.00  0.00    -0.077 C 
BRANCH  25  27
ATOM     26  O   UNL     1      33.953 -13.560 -23.661  0.00  0.00    -0.358 OA
ATOM     27  N   UNL     1      34.180 -16.369 -24.060  0.00  0.00    +0.390 N 
ATOM     28  C   UNL     1      35.018 -15.661 -23.083  0.00  0.00    -0.045 C 
ATOM     29  C   UNL     1      33.813 -15.464 -25.158  0.00  0.00    -0.045 C 
ATOM     30  C   UNL     1      33.111 -14.230 -24.600  0.00  0.00    +0.119 C 
ATOM     31  C   UNL     1      34.287 -14.423 -22.574  0.00  0.00    +0.119 C 
ATOM     32  H   UNL     1      33.327 -16.678 -23.594  0.00  0.00    -0.079 HD
ENDBRANCH  25  27
ENDBRANCH  24  25
ENDBRANCH  23  24
ENDBRANCH   2  23
TORSDOF 7
ENDMDL
MODEL 4
REMARK VINA RESULT:     -11.1      4.141     11.745
REMARK  Name = 135565465
REMARK  7 active torsions:
REMARK  status: ('A' for Active; 'I' for Inactive)
REMARK    1  A    between atoms: N_2  and  C_9
REMARK    2  A    between atoms: N_2  and  O_21
REMARK    3  A    between atoms: C_3  and  C_23
REMARK    4  A    between atoms: C_10  and  C_14
REMARK    5  A    between atoms: C_23  and  C_24
REMARK    6  A    between atoms: C_24  and  C_25
REMARK    7  A    between atoms: C_25  and  N_27
REMARK                            x       y       z     vdW  Elec       q    Type
REMARK                         _______ _______ _______ _____ _____    ______ ____
ROOT
ATOM      1  O   UNL     1      34.434 -14.784 -22.399  0.00  0.00    -0.453 OA
ATOM      2  C   UNL     1      35.588 -18.755 -22.008  0.00  0.00    -0.040 C 
ATOM      3  C   UNL     1      35.157 -18.303 -23.259  0.00  0.00    +0.053 C 
ATOM      4  C   UNL     1      34.762 -16.970 -23.424  0.00  0.00    +0.036 C 
ATOM      5  C   UNL     1      35.627 -17.885 -20.921  0.00  0.00    -0.005 C 
ATOM      6  C   UNL     1      34.803 -16.103 -22.327  0.00  0.00    +0.143 C 
ATOM      7  C   UNL     1      35.235 -16.558 -21.079  0.00  0.00    +0.037 C 
ATOM      8  C   UNL     1      34.299 -16.437 -24.723  0.00  0.00    +0.110 C 
ATOM      9  C   UNL     1      33.988 -14.286 -23.610  0.00  0.00    +0.160 C 
ATOM     10  C   UNL     1      33.907 -15.008 -24.737  0.00  0.00    +0.060 C 
ENDROOT
BRANCH   9  13
ATOM     11  S   UNL     1      31.398 -10.168 -21.583  0.00  0.00    -0.091 S 
ATOM     12  N   UNL     1      34.186 -12.082 -24.519  0.00  0.00    -0.266 NA
ATOM     13  C   UNL     1      33.619 -12.856 -23.573  0.00  0.00    +0.093 C 
ATOM     14  C   UNL     1      32.741 -12.405 -22.604  0.00  0.00    +0.081 C 
ATOM     15  C   UNL     1      32.445 -11.038 -22.640  0.00  0.00    +0.011 C 
ATOM     16  C   UNL     1      33.010 -10.197 -23.603  0.00  0.00    +0.005 C 
ATOM     17  C   UNL     1      33.889 -10.763 -24.540  0.00  0.00    +0.152 C 
ATOM     18  C   UNL     1      32.559  -8.846 -23.442  0.00  0.00    +0.005 C 
ATOM     19  C   UNL     1      31.687  -8.694 -22.390  0.00  0.00    +0.035 C 
ENDBRANCH   9  13
BRANCH   8  20
ATOM     20  N   UNL     1      34.219 -17.122 -25.819  0.00  0.00    -0.135 NA
BRANCH  20  21
ATOM     21  O   UNL     1      33.222 -16.557 -26.616  0.00  0.00    -0.265 OA
ATOM     22  H   UNL     1      33.375 -15.741 -27.048  0.00  0.00    +0.247 HD
ENDBRANCH  20  21
ENDBRANCH   8  20
BRANCH   2  23
ATOM     23  C   UNL     1      36.008 -20.176 -21.838  0.00  0.00    +0.020 C 
BRANCH  23  24
ATOM     24  C   UNL     1      35.382 -20.823 -20.594  0.00  0.00    -0.018 C 
BRANCH  24  25
ATOM     25  C   UNL     1      36.450 -21.323 -19.621  0.00  0.00    -0.077 C 
BRANCH  25  27
ATOM     26  O   UNL     1      35.120 -23.718 -16.442  0.00  0.00    -0.358 OA
ATOM     27  N   UNL     1      35.835 -21.745 -18.365  0.00  0.00    +0.390 N 
ATOM     28  C   UNL     1      34.745 -22.700 -18.611  0.00  0.00    -0.045 C 
ATOM     29  C   UNL     1      36.834 -22.343 -17.469  0.00  0.00    -0.045 C 
ATOM     30  C   UNL     1      36.167 -22.787 -16.171  0.00  0.00    +0.119 C 
ATOM     31  C   UNL     1      34.127 -23.134 -17.286  0.00  0.00    +0.119 C 
ATOM     32  H   UNL     1      35.446 -20.917 -17.914  0.00  0.00    -0.079 HD
ENDBRANCH  25  27
ENDBRANCH  24  25
ENDBRANCH  23  24
ENDBRANCH   2  23
TORSDOF 7
ENDMDL
MODEL 5
REMARK VINA RESULT:     -11.1      4.974     12.333
REMARK  Name = 135565465
REMARK  7 active torsions:
REMARK  status: ('A' for Active; 'I' for Inactive)
REMARK    1  A    between atoms: N_2  and  C_9
REMARK    2  A    between atoms: N_2  and  O_21
REMARK    3  A    between atoms: C_3  and  C_23
REMARK    4  A    between atoms: C_10  and  C_14
REMARK    5  A    between atoms: C_23  and  C_24
REMARK    6  A    between atoms: C_24  and  C_25
REMARK    7  A    between atoms: C_25  and  N_27
REMARK                            x       y       z     vdW  Elec       q    Type
REMARK                         _______ _______ _______ _____ _____    ______ ____
ROOT
ATOM      1  O   UNL     1      34.022 -13.408 -22.451  0.00  0.00    -0.453 OA
ATOM      2  C   UNL     1      35.202 -17.372 -22.846  0.00  0.00    -0.040 C 
ATOM      3  C   UNL     1      34.655 -16.721 -23.957  0.00  0.00    +0.053 C 
ATOM      4  C   UNL     1      34.249 -15.386 -23.857  0.00  0.00    +0.036 C 
ATOM      5  C   UNL     1      35.345 -16.696 -21.636  0.00  0.00    -0.005 C 
ATOM      6  C   UNL     1      34.395 -14.716 -22.639  0.00  0.00    +0.143 C 
ATOM      7  C   UNL     1      34.942 -15.368 -21.531  0.00  0.00    +0.037 C 
ATOM      8  C   UNL     1      33.666 -14.648 -24.999  0.00  0.00    +0.110 C 
ATOM      9  C   UNL     1      33.465 -12.720 -23.514  0.00  0.00    +0.160 C 
ATOM     10  C   UNL     1      33.277 -13.243 -24.735  0.00  0.00    +0.060 C 
ENDROOT
BRANCH   9  13
ATOM     11  S   UNL     1      34.192  -7.510 -23.842  0.00  0.00    -0.091 S 
ATOM     12  N   UNL     1      32.021 -11.160 -22.418  0.00  0.00    -0.266 NA
ATOM     13  C   UNL     1      33.104 -11.322 -23.202  0.00  0.00    +0.093 C 
ATOM     14  C   UNL     1      33.871 -10.292 -23.715  0.00  0.00    +0.081 C 
ATOM     15  C   UNL     1      33.460  -8.998 -23.371  0.00  0.00    +0.011 C 
ATOM     16  C   UNL     1      32.342  -8.783 -22.560  0.00  0.00    +0.005 C 
ATOM     17  C   UNL     1      31.637  -9.904 -22.095  0.00  0.00    +0.152 C 
ATOM     18  C   UNL     1      32.119  -7.383 -22.346  0.00  0.00    +0.005 C 
ATOM     19  C   UNL     1      33.044  -6.589 -22.981  0.00  0.00    +0.035 C 
ENDBRANCH   9  13
BRANCH   8  20
ATOM     20  N   UNL     1      33.482 -15.141 -26.182  0.00  0.00    -0.135 NA
BRANCH  20  21
ATOM     21  O   UNL     1      32.650 -16.255 -26.067  0.00  0.00    -0.265 OA
ATOM     22  H   UNL     1      32.989 -17.060 -25.730  0.00  0.00    +0.247 HD
ENDBRANCH  20  21
ENDBRANCH   8  20
BRANCH   2  23
ATOM     23  C   UNL     1      35.633 -18.795 -22.959  0.00  0.00    +0.020 C 
BRANCH  23  24
ATOM     24  C   UNL     1      35.717 -19.488 -21.590  0.00  0.00    -0.018 C 
BRANCH  24  25
ATOM     25  C   UNL     1      34.393 -20.152 -21.214  0.00  0.00    -0.077 C 
BRANCH  25  27
ATOM     26  O   UNL     1      34.892 -23.141 -18.309  0.00  0.00    -0.358 OA
ATOM     27  N   UNL     1      34.513 -20.827 -19.923  0.00  0.00    +0.390 N 
ATOM     28  C   UNL     1      33.453 -21.831 -19.757  0.00  0.00    -0.045 C 
ATOM     29  C   UNL     1      35.831 -21.460 -19.785  0.00  0.00    -0.045 C 
ATOM     30  C   UNL     1      35.929 -22.168 -18.437  0.00  0.00    +0.119 C 
ATOM     31  C   UNL     1      33.606 -22.529 -18.410  0.00  0.00    +0.119 C 
ATOM     32  H   UNL     1      34.411 -20.123 -19.192  0.00  0.00    -0.079 HD
ENDBRANCH  25  27
ENDBRANCH  24  25
ENDBRANCH  23  24
ENDBRANCH   2  23
TORSDOF 7
ENDMDL
MODEL 6
REMARK VINA RESULT:     -10.4      3.351     10.350
REMARK  Name = 135565465
REMARK  7 active torsions:
REMARK  status: ('A' for Active; 'I' for Inactive)
REMARK    1  A    between atoms: N_2  and  C_9
REMARK    2  A    between atoms: N_2  and  O_21
REMARK    3  A    between atoms: C_3  and  C_23
REMARK    4  A    between atoms: C_10  and  C_14
REMARK    5  A    between atoms: C_23  and  C_24
REMARK    6  A    between atoms: C_24  and  C_25
REMARK    7  A    between atoms: C_25  and  N_27
REMARK                            x       y       z     vdW  Elec       q    Type
REMARK                         _______ _______ _______ _____ _____    ______ ____
ROOT
ATOM      1  O   UNL     1      36.056 -20.675 -19.470  0.00  0.00    -0.453 OA
ATOM      2  C   UNL     1      36.364 -23.321 -16.282  0.00  0.00    -0.040 C 
ATOM      3  C   UNL     1      35.174 -23.292 -17.016  0.00  0.00    +0.053 C 
ATOM      4  C   UNL     1      35.039 -22.412 -18.096  0.00  0.00    +0.036 C 
ATOM      5  C   UNL     1      37.419 -22.477 -16.620  0.00  0.00    -0.005 C 
ATOM      6  C   UNL     1      36.103 -21.568 -18.429  0.00  0.00    +0.143 C 
ATOM      7  C   UNL     1      37.290 -21.600 -17.694  0.00  0.00    +0.037 C 
ATOM      8  C   UNL     1      33.805 -22.340 -18.909  0.00  0.00    +0.110 C 
ATOM      9  C   UNL     1      34.899 -20.596 -20.223  0.00  0.00    +0.160 C 
ATOM     10  C   UNL     1      33.811 -21.353 -20.014  0.00  0.00    +0.060 C 
ENDROOT
BRANCH   9  13
ATOM     11  S   UNL     1      33.820 -18.944 -25.110  0.00  0.00    -0.091 S 
ATOM     12  N   UNL     1      35.622 -18.467 -21.037  0.00  0.00    -0.266 NA
ATOM     13  C   UNL     1      34.959 -19.606 -21.317  0.00  0.00    +0.093 C 
ATOM     14  C   UNL     1      34.354 -19.892 -22.527  0.00  0.00    +0.081 C 
ATOM     15  C   UNL     1      34.458 -18.900 -23.509  0.00  0.00    +0.011 C 
ATOM     16  C   UNL     1      35.136 -17.703 -23.263  0.00  0.00    +0.005 C 
ATOM     17  C   UNL     1      35.713 -17.518 -21.997  0.00  0.00    +0.152 C 
ATOM     18  C   UNL     1      35.111 -16.846 -24.413  0.00  0.00    +0.005 C 
ATOM     19  C   UNL     1      34.434 -17.396 -25.476  0.00  0.00    +0.035 C 
ENDBRANCH   9  13
BRANCH   8  20
ATOM     20  N   UNL     1      32.750 -23.066 -18.720  0.00  0.00    -0.135 NA
BRANCH  20  21
ATOM     21  O   UNL     1      31.822 -22.310 -18.003  0.00  0.00    -0.265 OA
ATOM     22  H   UNL     1      31.488 -22.628 -17.187  0.00  0.00    +0.247 HD
ENDBRANCH  20  21
ENDBRANCH   8  20
BRANCH   2  23
ATOM     23  C   UNL     1      36.502 -24.261 -15.132  0.00  0.00    +0.020 C 
BRANCH  23  24
ATOM     24  C   UNL     1      37.912 -24.864 -15.040  0.00  0.00    -0.018 C 
BRANCH  24  25
ATOM     25  C   UNL     1      38.255 -25.278 -13.609  0.00  0.00    -0.077 C 
BRANCH  25  27
ATOM     26  O   UNL     1      36.442 -24.050 -10.028  0.00  0.00    -0.358 OA
ATOM     27  N   UNL     1      37.337 -24.645 -12.664  0.00  0.00    +0.390 N 
ATOM     28  C   UNL     1      36.664 -25.654 -11.834  0.00  0.00    -0.045 C 
ATOM     29  C   UNL     1      38.047 -23.684 -11.810  0.00  0.00    -0.045 C 
ATOM     30  C   UNL     1      37.073 -23.046 -10.824  0.00  0.00    +0.119 C 
ATOM     31  C   UNL     1      35.722 -24.970 -10.849  0.00  0.00    +0.119 C 
ATOM     32  H   UNL     1      36.631 -24.143 -13.203  0.00  0.00    -0.079 HD
ENDBRANCH  25  27
ENDBRANCH  24  25
ENDBRANCH  23  24
ENDBRANCH   2  23
TORSDOF 7
ENDMDL
MODEL 7
REMARK VINA RESULT:     -10.4      3.475      9.632
REMARK  Name = 135565465
REMARK  7 active torsions:
REMARK  status: ('A' for Active; 'I' for Inactive)
REMARK    1  A    between atoms: N_2  and  C_9
REMARK    2  A    between atoms: N_2  and  O_21
REMARK    3  A    between atoms: C_3  and  C_23
REMARK    4  A    between atoms: C_10  and  C_14
REMARK    5  A    between atoms: C_23  and  C_24
REMARK    6  A    between atoms: C_24  and  C_25
REMARK    7  A    between atoms: C_25  and  N_27
REMARK                            x       y       z     vdW  Elec       q    Type
REMARK                         _______ _______ _______ _____ _____    ______ ____
ROOT
ATOM      1  O   UNL     1      36.034 -20.771 -19.362  0.00  0.00    -0.453 OA
ATOM      2  C   UNL     1      36.217 -23.413 -16.161  0.00  0.00    -0.040 C 
ATOM      3  C   UNL     1      35.045 -23.362 -16.922  0.00  0.00    +0.053 C 
ATOM      4  C   UNL     1      34.952 -22.483 -18.007  0.00  0.00    +0.036 C 
ATOM      5  C   UNL     1      37.296 -22.591 -16.478  0.00  0.00    -0.005 C 
ATOM      6  C   UNL     1      36.039 -21.661 -18.318  0.00  0.00    +0.143 C 
ATOM      7  C   UNL     1      37.209 -21.714 -17.556  0.00  0.00    +0.037 C 
ATOM      8  C   UNL     1      33.738 -22.389 -18.847  0.00  0.00    +0.110 C 
ATOM      9  C   UNL     1      34.895 -20.671 -20.141  0.00  0.00    +0.160 C 
ATOM     10  C   UNL     1      33.788 -21.407 -19.955  0.00  0.00    +0.060 C 
ENDROOT
BRANCH   9  13
ATOM     11  S   UNL     1      33.796 -18.923 -24.990  0.00  0.00    -0.091 S 
ATOM     12  N   UNL     1      35.760 -18.604 -20.977  0.00  0.00    -0.266 NA
ATOM     13  C   UNL     1      34.999 -19.685 -21.236  0.00  0.00    +0.093 C 
ATOM     14  C   UNL     1      34.335 -19.919 -22.426  0.00  0.00    +0.081 C 
ATOM     15  C   UNL     1      34.487 -18.935 -23.411  0.00  0.00    +0.011 C 
ATOM     16  C   UNL     1      35.266 -17.797 -23.185  0.00  0.00    +0.005 C 
ATOM     17  C   UNL     1      35.896 -17.663 -21.938  0.00  0.00    +0.152 C 
ATOM     18  C   UNL     1      35.272 -16.937 -24.334  0.00  0.00    +0.005 C 
ATOM     19  C   UNL     1      34.520 -17.428 -25.374  0.00  0.00    +0.035 C 
ENDBRANCH   9  13
BRANCH   8  20
ATOM     20  N   UNL     1      32.665 -23.094 -18.680  0.00  0.00    -0.135 NA
BRANCH  20  21
ATOM     21  O   UNL     1      31.754 -22.336 -17.944  0.00  0.00    -0.265 OA
ATOM     22  H   UNL     1      31.014 -21.951 -18.368  0.00  0.00    +0.247 HD
ENDBRANCH  20  21
ENDBRANCH   8  20
BRANCH   2  23
ATOM     23  C   UNL     1      36.311 -24.352 -15.006  0.00  0.00    +0.020 C 
BRANCH  23  24
ATOM     24  C   UNL     1      34.944 -24.938 -14.620  0.00  0.00    -0.018 C 
BRANCH  24  25
ATOM     25  C   UNL     1      34.388 -24.285 -13.356  0.00  0.00    -0.077 C 
BRANCH  25  27
ATOM     26  O   UNL     1      30.481 -24.287 -14.890  0.00  0.00    -0.358 OA
ATOM     27  N   UNL     1      32.941 -24.116 -13.467  0.00  0.00    +0.390 N 
ATOM     28  C   UNL     1      32.606 -23.170 -14.540  0.00  0.00    -0.045 C 
ATOM     29  C   UNL     1      32.282 -25.406 -13.710  0.00  0.00    -0.045 C 
ATOM     30  C   UNL     1      30.775 -25.204 -13.835  0.00  0.00    +0.119 C 
ATOM     31  C   UNL     1      31.092 -23.019 -14.644  0.00  0.00    +0.119 C 
ATOM     32  H   UNL     1      32.602 -23.738 -12.582  0.00  0.00    -0.079 HD
ENDBRANCH  25  27
ENDBRANCH  24  25
ENDBRANCH  23  24
ENDBRANCH   2  23
TORSDOF 7
ENDMDL
MODEL 8
REMARK VINA RESULT:     -10.1      8.405     12.504
REMARK  Name = 135565465
REMARK  7 active torsions:
REMARK  status: ('A' for Active; 'I' for Inactive)
REMARK    1  A    between atoms: N_2  and  C_9
REMARK    2  A    between atoms: N_2  and  O_21
REMARK    3  A    between atoms: C_3  and  C_23
REMARK    4  A    between atoms: C_10  and  C_14
REMARK    5  A    between atoms: C_23  and  C_24
REMARK    6  A    between atoms: C_24  and  C_25
REMARK    7  A    between atoms: C_25  and  N_27
REMARK                            x       y       z     vdW  Elec       q    Type
REMARK                         _______ _______ _______ _____ _____    ______ ____
ROOT
ATOM      1  O   UNL     1      32.733 -13.184 -22.848  0.00  0.00    -0.453 OA
ATOM      2  C   UNL     1      31.960  -9.365 -21.406  0.00  0.00    -0.040 C 
ATOM      3  C   UNL     1      32.828  -9.508 -22.492  0.00  0.00    +0.053 C 
ATOM      4  C   UNL     1      33.108 -10.781 -23.002  0.00  0.00    +0.036 C 
ATOM      5  C   UNL     1      31.370 -10.486 -20.825  0.00  0.00    -0.005 C 
ATOM      6  C   UNL     1      32.514 -11.901 -22.413  0.00  0.00    +0.143 C 
ATOM      7  C   UNL     1      31.646 -11.755 -21.328  0.00  0.00    +0.037 C 
ATOM      8  C   UNL     1      34.017 -10.991 -24.150  0.00  0.00    +0.110 C 
ATOM      9  C   UNL     1      33.592 -13.384 -23.913  0.00  0.00    +0.160 C 
ATOM     10  C   UNL     1      34.221 -12.397 -24.570  0.00  0.00    +0.060 C 
ENDROOT
BRANCH   9  13
ATOM     11  S   UNL     1      35.363 -18.282 -23.110  0.00  0.00    -0.091 S 
ATOM     12  N   UNL     1      33.186 -15.157 -25.465  0.00  0.00    -0.266 NA
ATOM     13  C   UNL     1      33.754 -14.801 -24.297  0.00  0.00    +0.093 C 
ATOM     14  C   UNL     1      34.456 -15.655 -23.466  0.00  0.00    +0.081 C 
ATOM     15  C   UNL     1      34.562 -16.980 -23.905  0.00  0.00    +0.011 C 
ATOM     16  C   UNL     1      33.988 -17.394 -25.110  0.00  0.00    +0.005 C 
ATOM     17  C   UNL     1      33.297 -16.441 -25.875  0.00  0.00    +0.152 C 
ATOM     18  C   UNL     1      34.228 -18.788 -25.348  0.00  0.00    +0.005 C 
ATOM     19  C   UNL     1      34.957 -19.384 -24.346  0.00  0.00    +0.035 C 
ENDBRANCH   9  13
BRANCH   8  20
ATOM     20  N   UNL     1      34.627 -10.048 -24.794  0.00  0.00    -0.135 NA
BRANCH  20  21
ATOM     21  O   UNL     1      35.359 -10.629 -25.831  0.00  0.00    -0.265 OA
ATOM     22  H   UNL     1      35.975 -11.309 -25.645  0.00  0.00    +0.247 HD
ENDBRANCH  20  21
ENDBRANCH   8  20
BRANCH   2  23
ATOM     23  C   UNL     1      31.664  -8.006 -20.866  0.00  0.00    +0.020 C 
BRANCH  23  24
ATOM     24  C   UNL     1      32.582  -6.930 -21.467  0.00  0.00    -0.018 C 
BRANCH  24  25
ATOM     25  C   UNL     1      31.779  -5.775 -22.064  0.00  0.00    -0.077 C 
BRANCH  25  27
ATOM     26  O   UNL     1      33.094  -4.817 -25.933  0.00  0.00    -0.358 OA
ATOM     27  N   UNL     1      32.516  -5.163 -23.168  0.00  0.00    +0.390 N 
ATOM     28  C   UNL     1      33.252  -6.180 -23.933  0.00  0.00    -0.045 C 
ATOM     29  C   UNL     1      31.609  -4.425 -24.056  0.00  0.00    -0.045 C 
ATOM     30  C   UNL     1      32.398  -3.805 -25.206  0.00  0.00    +0.119 C 
ATOM     31  C   UNL     1      34.003  -5.518 -25.084  0.00  0.00    +0.119 C 
ATOM     32  H   UNL     1      33.187  -4.507 -22.769  0.00  0.00    -0.079 HD
ENDBRANCH  25  27
ENDBRANCH  24  25
ENDBRANCH  23  24
ENDBRANCH   2  23
TORSDOF 7
ENDMDL
MODEL 9
REMARK VINA RESULT:     -10.0      6.633     13.353
REMARK  Name = 135565465
REMARK  7 active torsions:
REMARK  status: ('A' for Active; 'I' for Inactive)
REMARK    1  A    between atoms: N_2  and  C_9
REMARK    2  A    between atoms: N_2  and  O_21
REMARK    3  A    between atoms: C_3  and  C_23
REMARK    4  A    between atoms: C_10  and  C_14
REMARK    5  A    between atoms: C_23  and  C_24
REMARK    6  A    between atoms: C_24  and  C_25
REMARK    7  A    between atoms: C_25  and  N_27
REMARK                            x       y       z     vdW  Elec       q    Type
REMARK                         _______ _______ _______ _____ _____    ______ ____
ROOT
ATOM      1  O   UNL     1      33.316 -11.407 -24.963  0.00  0.00    -0.453 OA
ATOM      2  C   UNL     1      33.484 -15.513 -25.573  0.00  0.00    -0.040 C 
ATOM      3  C   UNL     1      33.380 -15.034 -24.263  0.00  0.00    +0.053 C 
ATOM      4  C   UNL     1      33.321 -13.656 -24.024  0.00  0.00    +0.036 C 
ATOM      5  C   UNL     1      33.528 -14.625 -26.645  0.00  0.00    -0.005 C 
ATOM      6  C   UNL     1      33.368 -12.771 -25.105  0.00  0.00    +0.143 C 
ATOM      7  C   UNL     1      33.470 -13.253 -26.413  0.00  0.00    +0.037 C 
ATOM      8  C   UNL     1      33.210 -13.094 -22.661  0.00  0.00    +0.110 C 
ATOM      9  C   UNL     1      33.225 -10.878 -23.688  0.00  0.00    +0.160 C 
ATOM     10  C   UNL     1      33.165 -11.616 -22.569  0.00  0.00    +0.060 C 
ENDROOT
BRANCH   9  13
ATOM     11  S   UNL     1      30.740  -6.295 -22.919  0.00  0.00    -0.091 S 
ATOM     12  N   UNL     1      34.322  -8.771 -23.965  0.00  0.00    -0.266 NA
ATOM     13  C   UNL     1      33.174  -9.403 -23.651  0.00  0.00    +0.093 C 
ATOM     14  C   UNL     1      31.992  -8.772 -23.309  0.00  0.00    +0.081 C 
ATOM     15  C   UNL     1      32.030  -7.372 -23.299  0.00  0.00    +0.011 C 
ATOM     16  C   UNL     1      33.200  -6.675 -23.617  0.00  0.00    +0.005 C 
ATOM     17  C   UNL     1      34.343  -7.419 -23.950  0.00  0.00    +0.152 C 
ATOM     18  C   UNL     1      32.996  -5.258 -23.540  0.00  0.00    +0.005 C 
ATOM     19  C   UNL     1      31.715  -4.919 -23.174  0.00  0.00    +0.035 C 
ENDBRANCH   9  13
BRANCH   8  20
ATOM     20  N   UNL     1      33.148 -13.794 -21.573  0.00  0.00    -0.135 NA
BRANCH  20  21
ATOM     21  O   UNL     1      31.908 -13.564 -20.975  0.00  0.00    -0.265 OA
ATOM     22  H   UNL     1      31.837 -13.538 -20.042  0.00  0.00    +0.247 HD
ENDBRANCH  20  21
ENDBRANCH   8  20
BRANCH   2  23
ATOM     23  C   UNL     1      33.547 -16.982 -25.822  0.00  0.00    +0.020 C 
BRANCH  23  24
ATOM     24  C   UNL     1      34.633 -17.669 -24.980  0.00  0.00    -0.018 C 
BRANCH  24  25
ATOM     25  C   UNL     1      34.085 -18.890 -24.241  0.00  0.00    -0.077 C 
BRANCH  25  27
ATOM     26  O   UNL     1      36.145 -19.075 -20.589  0.00  0.00    -0.358 OA
ATOM     27  N   UNL     1      35.012 -19.304 -23.190  0.00  0.00    +0.390 N 
ATOM     28  C   UNL     1      35.934 -18.213 -22.846  0.00  0.00    -0.045 C 
ATOM     29  C   UNL     1      34.282 -19.742 -21.993  0.00  0.00    -0.045 C 
ATOM     30  C   UNL     1      35.269 -20.157 -20.906  0.00  0.00    +0.119 C 
ATOM     31  C   UNL     1      36.883 -18.665 -21.740  0.00  0.00    +0.119 C 
ATOM     32  H   UNL     1      35.556 -20.090 -23.546  0.00  0.00    -0.079 HD
ENDBRANCH  25  27
ENDBRANCH  24  25
ENDBRANCH  23  24
ENDBRANCH   2  23
TORSDOF 7
ENDMDL
