MODEL 1
REMARK VINA RESULT:     -11.9      0.000      0.000
REMARK  Name = 24996872
REMARK  6 active torsions:
REMARK  status: ('A' for Active; 'I' for Inactive)
REMARK    1  A    between atoms: O_1  and  C_3
REMARK    2  A    between atoms: O_1  and  C_18
REMARK    3  A    between atoms: C_7  and  C_8
REMARK    4  A    between atoms: C_11  and  S_14
REMARK    5  A    between atoms: C_18  and  C_23
REMARK    6  A    between atoms: C_29  and  C_30
REMARK                            x       y       z     vdW  Elec       q    Type
REMARK                         _______ _______ _______ _____ _____    ______ ____
ROOT
ATOM      1  O   UNL     1      35.201 -18.152 -23.591  0.00  0.00    -0.474 OA
ENDROOT
BRANCH   1   3
ATOM      2  N   UNL     1      34.698 -14.709 -22.449  0.00  0.00    -0.241 NA
ATOM      3  C   UNL     1      34.782 -16.844 -23.582  0.00  0.00    +0.158 C 
ATOM      4  C   UNL     1      34.046 -16.321 -24.638  0.00  0.00    +0.040 C 
ATOM      5  C   UNL     1      35.080 -16.005 -22.520  0.00  0.00    +0.136 C 
ATOM      6  C   UNL     1      33.634 -14.993 -24.602  0.00  0.00    +0.022 C 
ATOM      7  C   UNL     1      33.984 -14.236 -23.495  0.00  0.00    +0.082 C 
BRANCH   7   8
ATOM      8  C   UNL     1      33.592 -12.851 -23.388  0.00  0.00    +0.018 C 
ATOM      9  C   UNL     1      32.640 -12.466 -22.443  0.00  0.00    +0.003 C 
ATOM     10  C   UNL     1      34.164 -11.897 -24.229  0.00  0.00    +0.003 C 
ATOM     11  C   UNL     1      32.835 -10.173 -23.182  0.00  0.00    +0.106 C 
ATOM     12  C   UNL     1      32.262 -11.127 -22.341  0.00  0.00    +0.018 C 
ATOM     13  C   UNL     1      33.786 -10.559 -24.127  0.00  0.00    +0.018 C 
BRANCH  11  14
ATOM     14  S   UNL     1      32.362  -8.498 -23.054  0.00  0.00    +0.010 S 
ATOM     15  O   UNL     1      33.354  -7.697 -23.758  0.00  0.00    -0.169 OA
ATOM     16  O   UNL     1      30.954  -8.376 -23.406  0.00  0.00    -0.169 OA
ATOM     17  C   UNL     1      32.496  -8.132 -21.318  0.00  0.00    +0.182 C 
ENDBRANCH  11  14
ENDBRANCH   7   8
ENDBRANCH   1   3
BRANCH   1  18
ATOM     18  C   UNL     1      36.029 -18.569 -22.520  0.00  0.00    +0.205 C 
BRANCH  18  23
ATOM     19  O   UNL     1      34.933 -22.774 -17.816  0.00  0.00    -0.296 OA
ATOM     20  N   UNL     1      34.494 -21.403 -19.663  0.00  0.00    -0.251 N 
ATOM     21  N   UNL     1      32.765 -22.486 -18.301  0.00  0.00    -0.300 NA
ATOM     22  N   UNL     1      34.218 -23.512 -16.863  0.00  0.00    -0.010 NA
ATOM     23  C   UNL     1      35.429 -19.832 -21.907  0.00  0.00    +0.047 C 
ATOM     24  C   UNL     1      34.105 -19.519 -21.202  0.00  0.00    +0.025 C 
ATOM     25  C   UNL     1      36.401 -20.470 -20.910  0.00  0.00    +0.025 C 
ATOM     26  C   UNL     1      33.511 -20.767 -20.550  0.00  0.00    +0.096 C 
ATOM     27  C   UNL     1      35.800 -21.713 -20.254  0.00  0.00    +0.096 C 
ATOM     28  C   UNL     1      34.002 -22.202 -18.623  0.00  0.00    +0.379 C 
ATOM     29  C   UNL     1      32.948 -23.292 -17.216  0.00  0.00    +0.104 C 
BRANCH  29  30
ATOM     30  C   UNL     1      31.825 -23.881 -16.481  0.00  0.00    +0.101 C 
ATOM     31  C   UNL     1      32.125 -24.104 -14.976  0.00  0.00    +0.017 C 
ATOM     32  C   UNL     1      30.511 -23.069 -16.613  0.00  0.00    +0.017 C 
ENDBRANCH  29  30
ENDBRANCH  18  23
ENDBRANCH   1  18
TORSDOF 6
ENDMDL
MODEL 2
REMARK VINA RESULT:     -11.6      4.300     12.085
REMARK  Name = 24996872
REMARK  6 active torsions:
REMARK  status: ('A' for Active; 'I' for Inactive)
REMARK    1  A    between atoms: O_1  and  C_3
REMARK    2  A    between atoms: O_1  and  C_18
REMARK    3  A    between atoms: C_7  and  C_8
REMARK    4  A    between atoms: C_11  and  S_14
REMARK    5  A    between atoms: C_18  and  C_23
REMARK    6  A    between atoms: C_29  and  C_30
REMARK                            x       y       z     vdW  Elec       q    Type
REMARK                         _______ _______ _______ _____ _____    ______ ____
ROOT
ATOM      1  O   UNL     1      34.018 -19.734 -22.197  0.00  0.00    -0.474 OA
ENDROOT
BRANCH   1   3
ATOM      2  N   UNL     1      36.034 -21.147 -19.487  0.00  0.00    -0.241 NA
ATOM      3  C   UNL     1      34.340 -20.420 -21.052  0.00  0.00    +0.158 C 
ATOM      4  C   UNL     1      33.362 -21.068 -20.306  0.00  0.00    +0.040 C 
ATOM      5  C   UNL     1      35.650 -20.489 -20.604  0.00  0.00    +0.136 C 
ATOM      6  C   UNL     1      33.718 -21.756 -19.151  0.00  0.00    +0.022 C 
ATOM      7  C   UNL     1      35.055 -21.765 -18.788  0.00  0.00    +0.082 C 
BRANCH   7   8
ATOM      8  C   UNL     1      35.498 -22.458 -17.601  0.00  0.00    +0.018 C 
ATOM      9  C   UNL     1      36.807 -22.297 -17.147  0.00  0.00    +0.003 C 
ATOM     10  C   UNL     1      34.617 -23.288 -16.909  0.00  0.00    +0.003 C 
ATOM     11  C   UNL     1      36.353 -23.797 -15.308  0.00  0.00    +0.106 C 
ATOM     12  C   UNL     1      37.234 -22.967 -16.000  0.00  0.00    +0.018 C 
ATOM     13  C   UNL     1      35.044 -23.958 -15.762  0.00  0.00    +0.018 C 
BRANCH  11  14
ATOM     14  S   UNL     1      36.887 -24.635 -13.873  0.00  0.00    +0.010 S 
ATOM     15  O   UNL     1      38.071 -23.951 -13.369  0.00  0.00    -0.169 OA
ATOM     16  O   UNL     1      35.745 -24.843 -12.994  0.00  0.00    -0.169 OA
ATOM     17  C   UNL     1      37.390 -26.238 -14.458  0.00  0.00    +0.182 C 
ENDBRANCH  11  14
ENDBRANCH   7   8
ENDBRANCH   1   3
BRANCH   1  18
ATOM     18  C   UNL     1      34.961 -19.767 -23.253  0.00  0.00    +0.205 C 
BRANCH  18  23
ATOM     19  O   UNL     1      33.083 -14.150 -25.693  0.00  0.00    -0.296 OA
ATOM     20  N   UNL     1      34.245 -15.657 -24.327  0.00  0.00    -0.251 N 
ATOM     21  N   UNL     1      34.153 -13.235 -23.951  0.00  0.00    -0.300 NA
ATOM     22  N   UNL     1      32.834 -12.773 -25.762  0.00  0.00    -0.010 NA
ATOM     23  C   UNL     1      35.168 -18.342 -23.762  0.00  0.00    +0.047 C 
ATOM     24  C   UNL     1      34.922 -17.323 -22.644  0.00  0.00    +0.025 C 
ATOM     25  C   UNL     1      34.236 -18.042 -24.940  0.00  0.00    +0.025 C 
ATOM     26  C   UNL     1      35.089 -15.890 -23.147  0.00  0.00    +0.096 C 
ATOM     27  C   UNL     1      34.399 -16.605 -25.436  0.00  0.00    +0.096 C 
ATOM     28  C   UNL     1      33.866 -14.336 -24.599  0.00  0.00    +0.379 C 
ATOM     29  C   UNL     1      33.498 -12.303 -24.702  0.00  0.00    +0.104 C 
BRANCH  29  30
ATOM     30  C   UNL     1      33.518 -10.876 -24.368  0.00  0.00    +0.101 C 
ATOM     31  C   UNL     1      32.793 -10.546 -23.037  0.00  0.00    +0.017 C 
ATOM     32  C   UNL     1      34.946 -10.276 -24.321  0.00  0.00    +0.017 C 
ENDBRANCH  29  30
ENDBRANCH  18  23
ENDBRANCH   1  18
TORSDOF 6
ENDMDL
MODEL 3
REMARK VINA RESULT:     -11.5      3.621     11.725
REMARK  Name = 24996872
REMARK  6 active torsions:
REMARK  status: ('A' for Active; 'I' for Inactive)
REMARK    1  A    between atoms: O_1  and  C_3
REMARK    2  A    between atoms: O_1  and  C_18
REMARK    3  A    between atoms: C_7  and  C_8
REMARK    4  A    between atoms: C_11  and  S_14
REMARK    5  A    between atoms: C_18  and  C_23
REMARK    6  A    between atoms: C_29  and  C_30
REMARK                            x       y       z     vdW  Elec       q    Type
REMARK                         _______ _______ _______ _____ _____    ______ ____
ROOT
ATOM      1  O   UNL     1      34.938 -16.135 -24.837  0.00  0.00    -0.474 OA
ENDROOT
BRANCH   1   3
ATOM      2  N   UNL     1      34.145 -19.307 -23.190  0.00  0.00    -0.241 NA
ATOM      3  C   UNL     1      34.845 -17.090 -23.855  0.00  0.00    +0.158 C 
ATOM      4  C   UNL     1      35.326 -16.850 -22.573  0.00  0.00    +0.040 C 
ATOM      5  C   UNL     1      34.268 -18.324 -24.110  0.00  0.00    +0.136 C 
ATOM      6  C   UNL     1      35.217 -17.836 -21.599  0.00  0.00    +0.022 C 
ATOM      7  C   UNL     1      34.624 -19.037 -21.955  0.00  0.00    +0.082 C 
BRANCH   7   8
ATOM      8  C   UNL     1      34.477 -20.106 -20.997  0.00  0.00    +0.018 C 
ATOM      9  C   UNL     1      35.608 -20.732 -20.471  0.00  0.00    +0.003 C 
ATOM     10  C   UNL     1      33.205 -20.513 -20.595  0.00  0.00    +0.003 C 
ATOM     11  C   UNL     1      34.193 -22.172 -19.143  0.00  0.00    +0.106 C 
ATOM     12  C   UNL     1      35.465 -21.765 -19.545  0.00  0.00    +0.018 C 
ATOM     13  C   UNL     1      33.062 -21.546 -19.669  0.00  0.00    +0.018 C 
BRANCH  11  14
ATOM     14  S   UNL     1      34.015 -23.464 -17.984  0.00  0.00    +0.010 S 
ATOM     15  O   UNL     1      33.767 -24.697 -18.720  0.00  0.00    -0.169 OA
ATOM     16  O   UNL     1      35.115 -23.401 -17.032  0.00  0.00    -0.169 OA
ATOM     17  C   UNL     1      32.532 -23.055 -17.089  0.00  0.00    +0.182 C 
ENDBRANCH  11  14
ENDBRANCH   7   8
ENDBRANCH   1   3
BRANCH   1  18
ATOM     18  C   UNL     1      33.787 -15.347 -25.079  0.00  0.00    +0.205 C 
BRANCH  18  23
ATOM     19  O   UNL     1      32.596  -9.114 -24.208  0.00  0.00    -0.296 OA
ATOM     20  N   UNL     1      33.087 -11.339 -23.664  0.00  0.00    -0.251 N 
ATOM     21  N   UNL     1      32.415  -9.632 -22.036  0.00  0.00    -0.300 NA
ATOM     22  N   UNL     1      32.199  -7.938 -23.558  0.00  0.00    -0.010 NA
ATOM     23  C   UNL     1      33.995 -13.976 -24.440  0.00  0.00    +0.047 C 
ATOM     24  C   UNL     1      33.032 -13.769 -23.267  0.00  0.00    +0.025 C 
ATOM     25  C   UNL     1      33.795 -12.858 -25.468  0.00  0.00    +0.025 C 
ATOM     26  C   UNL     1      33.202 -12.386 -22.640  0.00  0.00    +0.096 C 
ATOM     27  C   UNL     1      33.958 -11.475 -24.837  0.00  0.00    +0.096 C 
ATOM     28  C   UNL     1      32.699 -10.062 -23.240  0.00  0.00    +0.379 C 
ATOM     29  C   UNL     1      32.114  -8.325 -22.282  0.00  0.00    +0.104 C 
BRANCH  29  30
ATOM     30  C   UNL     1      31.720  -7.399 -21.215  0.00  0.00    +0.101 C 
ATOM     31  C   UNL     1      32.732  -7.351 -20.040  0.00  0.00    +0.017 C 
ATOM     32  C   UNL     1      31.468  -5.955 -21.716  0.00  0.00    +0.017 C 
ENDBRANCH  29  30
ENDBRANCH  18  23
ENDBRANCH   1  18
TORSDOF 6
ENDMDL
MODEL 4
REMARK VINA RESULT:     -11.1      2.036      2.916
REMARK  Name = 24996872
REMARK  6 active torsions:
REMARK  status: ('A' for Active; 'I' for Inactive)
REMARK    1  A    between atoms: O_1  and  C_3
REMARK    2  A    between atoms: O_1  and  C_18
REMARK    3  A    between atoms: C_7  and  C_8
REMARK    4  A    between atoms: C_11  and  S_14
REMARK    5  A    between atoms: C_18  and  C_23
REMARK    6  A    between atoms: C_29  and  C_30
REMARK                            x       y       z     vdW  Elec       q    Type
REMARK                         _______ _______ _______ _____ _____    ______ ____
ROOT
ATOM      1  O   UNL     1      34.111 -17.230 -24.770  0.00  0.00    -0.474 OA
ENDROOT
BRANCH   1   3
ATOM      2  N   UNL     1      33.235 -13.692 -25.117  0.00  0.00    -0.241 NA
ATOM      3  C   UNL     1      34.002 -15.894 -24.474  0.00  0.00    +0.158 C 
ATOM      4  C   UNL     1      34.513 -15.378 -23.289  0.00  0.00    +0.040 C 
ATOM      5  C   UNL     1      33.377 -15.017 -25.347  0.00  0.00    +0.136 C 
ATOM      6  C   UNL     1      34.388 -14.020 -23.017  0.00  0.00    +0.022 C 
ATOM      7  C   UNL     1      33.745 -13.227 -23.954  0.00  0.00    +0.082 C 
BRANCH   7   8
ATOM      8  C   UNL     1      33.578 -11.810 -23.739  0.00  0.00    +0.018 C 
ATOM      9  C   UNL     1      34.452 -10.904 -24.342  0.00  0.00    +0.003 C 
ATOM     10  C   UNL     1      32.542 -11.345 -22.930  0.00  0.00    +0.003 C 
ATOM     11  C   UNL     1      33.253  -9.070 -23.324  0.00  0.00    +0.106 C 
ATOM     12  C   UNL     1      34.290  -9.535 -24.133  0.00  0.00    +0.018 C 
ATOM     13  C   UNL     1      32.379  -9.975 -22.721  0.00  0.00    +0.018 C 
BRANCH  11  14
ATOM     14  S   UNL     1      33.050  -7.356 -23.063  0.00  0.00    +0.010 S 
ATOM     15  O   UNL     1      31.785  -6.958 -23.665  0.00  0.00    -0.169 OA
ATOM     16  O   UNL     1      33.309  -7.057 -21.661  0.00  0.00    -0.169 OA
ATOM     17  C   UNL     1      34.361  -6.607 -24.003  0.00  0.00    +0.182 C 
ENDBRANCH  11  14
ENDBRANCH   7   8
ENDBRANCH   1   3
BRANCH   1  18
ATOM     18  C   UNL     1      35.313 -17.876 -24.391  0.00  0.00    +0.205 C 
BRANCH  18  23
ATOM     19  O   UNL     1      34.626 -22.134 -19.656  0.00  0.00    -0.296 OA
ATOM     20  N   UNL     1      35.439 -20.264 -20.808  0.00  0.00    -0.251 N 
ATOM     21  N   UNL     1      36.456 -21.187 -18.776  0.00  0.00    -0.300 NA
ATOM     22  N   UNL     1      34.949 -22.890 -18.521  0.00  0.00    -0.010 NA
ATOM     23  C   UNL     1      35.189 -18.315 -22.934  0.00  0.00    +0.047 C 
ATOM     24  C   UNL     1      36.555 -18.717 -22.367  0.00  0.00    +0.025 C 
ATOM     25  C   UNL     1      34.214 -19.489 -22.798  0.00  0.00    +0.025 C 
ATOM     26  C   UNL     1      36.441 -19.195 -20.920  0.00  0.00    +0.096 C 
ATOM     27  C   UNL     1      34.109 -19.970 -21.351  0.00  0.00    +0.096 C 
ATOM     28  C   UNL     1      35.563 -21.153 -19.733  0.00  0.00    +0.379 C 
ATOM     29  C   UNL     1      36.038 -22.269 -18.057  0.00  0.00    +0.104 C 
BRANCH  29  30
ATOM     30  C   UNL     1      36.739 -22.725 -16.853  0.00  0.00    +0.101 C 
ATOM     31  C   UNL     1      37.502 -21.591 -16.120  0.00  0.00    +0.017 C 
ATOM     32  C   UNL     1      35.812 -23.440 -15.837  0.00  0.00    +0.017 C 
ENDBRANCH  29  30
ENDBRANCH  18  23
ENDBRANCH   1  18
TORSDOF 6
ENDMDL
MODEL 5
REMARK VINA RESULT:     -11.1      4.613     12.411
REMARK  Name = 24996872
REMARK  6 active torsions:
REMARK  status: ('A' for Active; 'I' for Inactive)
REMARK    1  A    between atoms: O_1  and  C_3
REMARK    2  A    between atoms: O_1  and  C_18
REMARK    3  A    between atoms: C_7  and  C_8
REMARK    4  A    between atoms: C_11  and  S_14
REMARK    5  A    between atoms: C_18  and  C_23
REMARK    6  A    between atoms: C_29  and  C_30
REMARK                            x       y       z     vdW  Elec       q    Type
REMARK                         _______ _______ _______ _____ _____    ______ ____
ROOT
ATOM      1  O   UNL     1      35.912 -20.440 -21.443  0.00  0.00    -0.474 OA
ENDROOT
BRANCH   1   3
ATOM      2  N   UNL     1      36.980 -21.582 -18.133  0.00  0.00    -0.241 NA
ATOM      3  C   UNL     1      35.871 -21.053 -20.215  0.00  0.00    +0.158 C 
ATOM      4  C   UNL     1      34.740 -21.744 -19.797  0.00  0.00    +0.040 C 
ATOM      5  C   UNL     1      36.955 -21.002 -19.354  0.00  0.00    +0.136 C 
ATOM      6  C   UNL     1      34.727 -22.356 -18.548  0.00  0.00    +0.022 C 
ATOM      7  C   UNL     1      35.863 -22.246 -17.761  0.00  0.00    +0.082 C 
BRANCH   7   8
ATOM      8  C   UNL     1      35.922 -22.854 -16.454  0.00  0.00    +0.018 C 
ATOM      9  C   UNL     1      34.807 -23.521 -15.943  0.00  0.00    +0.003 C 
ATOM     10  C   UNL     1      37.093 -22.777 -15.701  0.00  0.00    +0.003 C 
ATOM     11  C   UNL     1      36.037 -24.032 -13.927  0.00  0.00    +0.106 C 
ATOM     12  C   UNL     1      34.865 -24.109 -14.680  0.00  0.00    +0.018 C 
ATOM     13  C   UNL     1      37.151 -23.365 -14.437  0.00  0.00    +0.018 C 
BRANCH  11  14
ATOM     14  S   UNL     1      36.109 -24.767 -12.346  0.00  0.00    +0.010 S 
ATOM     15  O   UNL     1      34.743 -24.980 -11.887  0.00  0.00    -0.169 OA
ATOM     16  O   UNL     1      37.039 -25.888 -12.387  0.00  0.00    -0.169 OA
ATOM     17  C   UNL     1      36.844 -23.521 -11.311  0.00  0.00    +0.182 C 
ENDBRANCH  11  14
ENDBRANCH   7   8
ENDBRANCH   1   3
BRANCH   1  18
ATOM     18  C   UNL     1      34.703 -19.882 -21.925  0.00  0.00    +0.205 C 
BRANCH  18  23
ATOM     19  O   UNL     1      33.374 -14.843 -25.648  0.00  0.00    -0.296 OA
ATOM     20  N   UNL     1      34.291 -16.061 -23.870  0.00  0.00    -0.251 N 
ATOM     21  N   UNL     1      34.245 -13.612 -23.992  0.00  0.00    -0.300 NA
ATOM     22  N   UNL     1      33.189 -13.504 -26.018  0.00  0.00    -0.010 NA
ATOM     23  C   UNL     1      35.029 -18.590 -22.671  0.00  0.00    +0.047 C 
ATOM     24  C   UNL     1      34.680 -17.366 -21.817  0.00  0.00    +0.025 C 
ATOM     25  C   UNL     1      34.269 -18.520 -23.999  0.00  0.00    +0.025 C 
ATOM     26  C   UNL     1      34.965 -16.064 -22.565  0.00  0.00    +0.096 C 
ATOM     27  C   UNL     1      34.550 -17.212 -24.741  0.00  0.00    +0.096 C 
ATOM     28  C   UNL     1      34.001 -14.816 -24.444  0.00  0.00    +0.379 C 
ATOM     29  C   UNL     1      33.728 -12.840 -24.991  0.00  0.00    +0.104 C 
BRANCH  29  30
ATOM     30  C   UNL     1      33.760 -11.375 -24.945  0.00  0.00    +0.101 C 
ATOM     31  C   UNL     1      33.421 -10.798 -23.546  0.00  0.00    +0.017 C 
ATOM     32  C   UNL     1      35.108 -10.775 -25.419  0.00  0.00    +0.017 C 
ENDBRANCH  29  30
ENDBRANCH  18  23
ENDBRANCH   1  18
TORSDOF 6
ENDMDL
MODEL 6
REMARK VINA RESULT:     -11.1      1.303      2.016
REMARK  Name = 24996872
REMARK  6 active torsions:
REMARK  status: ('A' for Active; 'I' for Inactive)
REMARK    1  A    between atoms: O_1  and  C_3
REMARK    2  A    between atoms: O_1  and  C_18
REMARK    3  A    between atoms: C_7  and  C_8
REMARK    4  A    between atoms: C_11  and  S_14
REMARK    5  A    between atoms: C_18  and  C_23
REMARK    6  A    between atoms: C_29  and  C_30
REMARK                            x       y       z     vdW  Elec       q    Type
REMARK                         _______ _______ _______ _____ _____    ______ ____
ROOT
ATOM      1  O   UNL     1      35.436 -18.138 -23.711  0.00  0.00    -0.474 OA
ENDROOT
BRANCH   1   3
ATOM      2  N   UNL     1      34.712 -14.805 -22.379  0.00  0.00    -0.241 NA
ATOM      3  C   UNL     1      34.937 -16.861 -23.633  0.00  0.00    +0.158 C 
ATOM      4  C   UNL     1      34.179 -16.323 -24.666  0.00  0.00    +0.040 C 
ATOM      5  C   UNL     1      35.173 -16.068 -22.520  0.00  0.00    +0.136 C 
ATOM      6  C   UNL     1      33.686 -15.026 -24.558  0.00  0.00    +0.022 C 
ATOM      7  C   UNL     1      33.979 -14.316 -23.405  0.00  0.00    +0.082 C 
BRANCH   7   8
ATOM      8  C   UNL     1      33.502 -12.966 -23.223  0.00  0.00    +0.018 C 
ATOM      9  C   UNL     1      33.986 -11.939 -24.034  0.00  0.00    +0.003 C 
ATOM     10  C   UNL     1      32.555 -12.687 -22.237  0.00  0.00    +0.003 C 
ATOM     11  C   UNL     1      32.578 -10.356 -22.873  0.00  0.00    +0.106 C 
ATOM     12  C   UNL     1      33.524 -10.635 -23.858  0.00  0.00    +0.018 C 
ATOM     13  C   UNL     1      32.094 -11.383 -22.061  0.00  0.00    +0.018 C 
BRANCH  11  14
ATOM     14  S   UNL     1      32.000  -8.724 -22.653  0.00  0.00    +0.010 S 
ATOM     15  O   UNL     1      30.799  -8.561 -23.460  0.00  0.00    -0.169 OA
ATOM     16  O   UNL     1      31.958  -8.425 -21.228  0.00  0.00    -0.169 OA
ATOM     17  C   UNL     1      33.275  -7.704 -23.358  0.00  0.00    +0.182 C 
ENDBRANCH  11  14
ENDBRANCH   7   8
ENDBRANCH   1   3
BRANCH   1  18
ATOM     18  C   UNL     1      34.515 -19.200 -23.543  0.00  0.00    +0.205 C 
BRANCH  18  23
ATOM     19  O   UNL     1      32.690 -22.658 -18.470  0.00  0.00    -0.296 OA
ATOM     20  N   UNL     1      34.076 -21.363 -19.844  0.00  0.00    -0.251 N 
ATOM     21  N   UNL     1      34.854 -22.631 -17.893  0.00  0.00    -0.300 NA
ATOM     22  N   UNL     1      32.801 -23.471 -17.334  0.00  0.00    -0.010 NA
ATOM     23  C   UNL     1      34.418 -19.525 -22.054  0.00  0.00    +0.047 C 
ATOM     24  C   UNL     1      35.528 -20.495 -21.635  0.00  0.00    +0.025 C 
ATOM     25  C   UNL     1      33.053 -20.133 -21.716  0.00  0.00    +0.025 C 
ATOM     26  C   UNL     1      35.421 -20.860 -20.155  0.00  0.00    +0.096 C 
ATOM     27  C   UNL     1      32.953 -20.505 -20.236  0.00  0.00    +0.096 C 
ATOM     28  C   UNL     1      33.944 -22.205 -18.732  0.00  0.00    +0.379 C 
ATOM     29  C   UNL     1      34.106 -23.404 -17.054  0.00  0.00    +0.104 C 
BRANCH  29  30
ATOM     30  C   UNL     1      34.694 -24.118 -15.917  0.00  0.00    +0.101 C 
ATOM     31  C   UNL     1      36.068 -23.547 -15.478  0.00  0.00    +0.017 C 
ATOM     32  C   UNL     1      33.761 -24.179 -14.681  0.00  0.00    +0.017 C 
ENDBRANCH  29  30
ENDBRANCH  18  23
ENDBRANCH   1  18
TORSDOF 6
ENDMDL
MODEL 7
REMARK VINA RESULT:     -10.6      3.656     11.735
REMARK  Name = 24996872
REMARK  6 active torsions:
REMARK  status: ('A' for Active; 'I' for Inactive)
REMARK    1  A    between atoms: O_1  and  C_3
REMARK    2  A    between atoms: O_1  and  C_18
REMARK    3  A    between atoms: C_7  and  C_8
REMARK    4  A    between atoms: C_11  and  S_14
REMARK    5  A    between atoms: C_18  and  C_23
REMARK    6  A    between atoms: C_29  and  C_30
REMARK                            x       y       z     vdW  Elec       q    Type
REMARK                         _______ _______ _______ _____ _____    ______ ____
ROOT
ATOM      1  O   UNL     1      35.194 -15.873 -24.379  0.00  0.00    -0.474 OA
ENDROOT
BRANCH   1   3
ATOM      2  N   UNL     1      35.138 -17.916 -21.342  0.00  0.00    -0.241 NA
ATOM      3  C   UNL     1      35.008 -16.957 -23.558  0.00  0.00    +0.158 C 
ATOM      4  C   UNL     1      34.525 -18.161 -24.058  0.00  0.00    +0.040 C 
ATOM      5  C   UNL     1      35.298 -16.887 -22.204  0.00  0.00    +0.136 C 
ATOM      6  C   UNL     1      34.348 -19.243 -23.202  0.00  0.00    +0.022 C 
ATOM      7  C   UNL     1      34.666 -19.069 -21.864  0.00  0.00    +0.082 C 
BRANCH   7   8
ATOM      8  C   UNL     1      34.507 -20.148 -20.918  0.00  0.00    +0.018 C 
ATOM      9  C   UNL     1      33.231 -20.539 -20.513  0.00  0.00    +0.003 C 
ATOM     10  C   UNL     1      35.630 -20.800 -20.409  0.00  0.00    +0.003 C 
ATOM     11  C   UNL     1      34.202 -22.233 -19.089  0.00  0.00    +0.106 C 
ATOM     12  C   UNL     1      33.079 -21.581 -19.599  0.00  0.00    +0.018 C 
ATOM     13  C   UNL     1      35.478 -21.842 -19.494  0.00  0.00    +0.018 C 
BRANCH  11  14
ATOM     14  S   UNL     1      34.011 -23.537 -17.945  0.00  0.00    +0.010 S 
ATOM     15  O   UNL     1      33.753 -24.759 -18.696  0.00  0.00    -0.169 OA
ATOM     16  O   UNL     1      35.111 -23.494 -16.992  0.00  0.00    -0.169 OA
ATOM     17  C   UNL     1      32.531 -23.125 -17.048  0.00  0.00    +0.182 C 
ENDBRANCH  11  14
ENDBRANCH   7   8
ENDBRANCH   1   3
BRANCH   1  18
ATOM     18  C   UNL     1      34.222 -15.653 -25.385  0.00  0.00    +0.205 C 
BRANCH  18  23
ATOM     19  O   UNL     1      32.954 -10.333 -22.053  0.00  0.00    -0.296 OA
ATOM     20  N   UNL     1      33.128 -11.760 -23.902  0.00  0.00    -0.251 N 
ATOM     21  N   UNL     1      32.738  -9.343 -24.051  0.00  0.00    -0.300 NA
ATOM     22  N   UNL     1      32.746  -8.971 -21.794  0.00  0.00    -0.010 NA
ATOM     23  C   UNL     1      33.403 -14.421 -25.007  0.00  0.00    +0.047 C 
ATOM     24  C   UNL     1      33.904 -13.183 -25.757  0.00  0.00    +0.025 C 
ATOM     25  C   UNL     1      33.467 -14.165 -23.498  0.00  0.00    +0.025 C 
ATOM     26  C   UNL     1      33.118 -11.933 -25.361  0.00  0.00    +0.096 C 
ATOM     27  C   UNL     1      32.687 -12.910 -23.106  0.00  0.00    +0.096 C 
ATOM     28  C   UNL     1      32.935 -10.465 -23.405  0.00  0.00    +0.379 C 
ATOM     29  C   UNL     1      32.628  -8.456 -23.021  0.00  0.00    +0.104 C 
BRANCH  29  30
ATOM     30  C   UNL     1      32.395  -7.025 -23.244  0.00  0.00    +0.101 C 
ATOM     31  C   UNL     1      33.619  -6.291 -23.851  0.00  0.00    +0.017 C 
ATOM     32  C   UNL     1      31.152  -6.734 -24.122  0.00  0.00    +0.017 C 
ENDBRANCH  29  30
ENDBRANCH  18  23
ENDBRANCH   1  18
TORSDOF 6
ENDMDL
MODEL 8
REMARK VINA RESULT:     -10.6      1.774      2.220
REMARK  Name = 24996872
REMARK  6 active torsions:
REMARK  status: ('A' for Active; 'I' for Inactive)
REMARK    1  A    between atoms: O_1  and  C_3
REMARK    2  A    between atoms: O_1  and  C_18
REMARK    3  A    between atoms: C_7  and  C_8
REMARK    4  A    between atoms: C_11  and  S_14
REMARK    5  A    between atoms: C_18  and  C_23
REMARK    6  A    between atoms: C_29  and  C_30
REMARK                            x       y       z     vdW  Elec       q    Type
REMARK                         _______ _______ _______ _____ _____    ______ ____
ROOT
ATOM      1  O   UNL     1      35.446 -18.043 -22.495  0.00  0.00    -0.474 OA
ENDROOT
BRANCH   1   3
ATOM      2  N   UNL     1      34.461 -14.617 -21.659  0.00  0.00    -0.241 NA
ATOM      3  C   UNL     1      34.979 -16.761 -22.650  0.00  0.00    +0.158 C 
ATOM      4  C   UNL     1      34.559 -16.297 -23.892  0.00  0.00    +0.040 C 
ATOM      5  C   UNL     1      34.910 -15.890 -21.575  0.00  0.00    +0.136 C 
ATOM      6  C   UNL     1      34.090 -14.994 -24.019  0.00  0.00    +0.022 C 
ATOM      7  C   UNL     1      34.062 -14.202 -22.882  0.00  0.00    +0.082 C 
BRANCH   7   8
ATOM      8  C   UNL     1      33.588 -12.839 -22.938  0.00  0.00    +0.018 C 
ATOM      9  C   UNL     1      34.129 -11.950 -23.867  0.00  0.00    +0.003 C 
ATOM     10  C   UNL     1      32.588 -12.412 -22.065  0.00  0.00    +0.003 C 
ATOM     11  C   UNL     1      32.670 -10.207 -23.047  0.00  0.00    +0.106 C 
ATOM     12  C   UNL     1      33.670 -10.634 -23.921  0.00  0.00    +0.018 C 
ATOM     13  C   UNL     1      32.129 -11.096 -22.118  0.00  0.00    +0.018 C 
BRANCH  11  14
ATOM     14  S   UNL     1      32.096  -8.560 -23.114  0.00  0.00    +0.010 S 
ATOM     15  O   UNL     1      33.090  -7.767 -23.828  0.00  0.00    -0.169 OA
ATOM     16  O   UNL     1      30.712  -8.559 -23.567  0.00  0.00    -0.169 OA
ATOM     17  C   UNL     1      32.087  -8.024 -21.418  0.00  0.00    +0.182 C 
ENDBRANCH  11  14
ENDBRANCH   7   8
ENDBRANCH   1   3
BRANCH   1  18
ATOM     18  C   UNL     1      34.494 -19.089 -22.570  0.00  0.00    +0.205 C 
BRANCH  18  23
ATOM     19  O   UNL     1      37.171 -21.730 -17.385  0.00  0.00    -0.296 OA
ATOM     20  N   UNL     1      35.666 -21.440 -19.157  0.00  0.00    -0.251 N 
ATOM     21  N   UNL     1      35.314 -22.979 -17.280  0.00  0.00    -0.300 NA
ATOM     22  N   UNL     1      37.275 -22.486 -16.210  0.00  0.00    -0.010 NA
ATOM     23  C   UNL     1      34.980 -20.249 -21.704  0.00  0.00    +0.047 C 
ATOM     24  C   UNL     1      33.905 -20.660 -20.692  0.00  0.00    +0.025 C 
ATOM     25  C   UNL     1      36.265 -19.874 -20.960  0.00  0.00    +0.025 C 
ATOM     26  C   UNL     1      34.390 -21.796 -19.792  0.00  0.00    +0.096 C 
ATOM     27  C   UNL     1      36.743 -21.009 -20.054  0.00  0.00    +0.096 C 
ATOM     28  C   UNL     1      35.987 -22.081 -17.953  0.00  0.00    +0.379 C 
ATOM     29  C   UNL     1      36.143 -23.196 -16.218  0.00  0.00    +0.104 C 
BRANCH  29  30
ATOM     30  C   UNL     1      35.816 -24.148 -15.152  0.00  0.00    +0.101 C 
ATOM     31  C   UNL     1      36.799 -25.345 -15.075  0.00  0.00    +0.017 C 
ATOM     32  C   UNL     1      35.718 -23.491 -13.751  0.00  0.00    +0.017 C 
ENDBRANCH  29  30
ENDBRANCH  18  23
ENDBRANCH   1  18
TORSDOF 6
ENDMDL
MODEL 9
REMARK VINA RESULT:     -10.2      2.040      3.266
REMARK  Name = 24996872
REMARK  6 active torsions:
REMARK  status: ('A' for Active; 'I' for Inactive)
REMARK    1  A    between atoms: O_1  and  C_3
REMARK    2  A    between atoms: O_1  and  C_18
REMARK    3  A    between atoms: C_7  and  C_8
REMARK    4  A    between atoms: C_11  and  S_14
REMARK    5  A    between atoms: C_18  and  C_23
REMARK    6  A    between atoms: C_29  and  C_30
REMARK                            x       y       z     vdW  Elec       q    Type
REMARK                         _______ _______ _______ _____ _____    ______ ____
ROOT
ATOM      1  O   UNL     1      35.858 -20.803 -21.544  0.00  0.00    -0.474 OA
ENDROOT
BRANCH   1   3
ATOM      2  N   UNL     1      35.356 -17.176 -21.544  0.00  0.00    -0.241 NA
ATOM      3  C   UNL     1      35.517 -19.548 -21.986  0.00  0.00    +0.158 C 
ATOM      4  C   UNL     1      35.005 -19.353 -23.263  0.00  0.00    +0.040 C 
ATOM      5  C   UNL     1      35.672 -18.437 -21.172  0.00  0.00    +0.136 C 
ATOM      6  C   UNL     1      34.668 -18.070 -23.683  0.00  0.00    +0.022 C 
ATOM      7  C   UNL     1      34.861 -17.026 -22.793  0.00  0.00    +0.082 C 
BRANCH   7   8
ATOM      8  C   UNL     1      34.534 -15.668 -23.160  0.00  0.00    +0.018 C 
ATOM      9  C   UNL     1      34.132 -15.375 -24.463  0.00  0.00    +0.003 C 
ATOM     10  C   UNL     1      34.618 -14.650 -22.211  0.00  0.00    +0.003 C 
ATOM     11  C   UNL     1      33.900 -13.045 -23.867  0.00  0.00    +0.106 C 
ATOM     12  C   UNL     1      33.816 -14.063 -24.816  0.00  0.00    +0.018 C 
ATOM     13  C   UNL     1      34.302 -13.338 -22.564  0.00  0.00    +0.018 C 
BRANCH  11  14
ATOM     14  S   UNL     1      33.504 -11.404 -24.309  0.00  0.00    +0.010 S 
ATOM     15  O   UNL     1      32.974 -11.420 -25.666  0.00  0.00    -0.169 OA
ATOM     16  O   UNL     1      32.725 -10.800 -23.237  0.00  0.00    -0.169 OA
ATOM     17  C   UNL     1      35.072 -10.565 -24.346  0.00  0.00    +0.182 C 
ENDBRANCH  11  14
ENDBRANCH   7   8
ENDBRANCH   1   3
BRANCH   1  18
ATOM     18  C   UNL     1      36.306 -20.914 -20.205  0.00  0.00    +0.205 C 
BRANCH  18  23
ATOM     19  O   UNL     1      33.198 -23.421 -15.198  0.00  0.00    -0.296 OA
ATOM     20  N   UNL     1      33.609 -22.780 -17.412  0.00  0.00    -0.251 N 
ATOM     21  N   UNL     1      31.426 -23.509 -16.565  0.00  0.00    -0.300 NA
ATOM     22  N   UNL     1      32.123 -23.867 -14.416  0.00  0.00    -0.010 NA
ATOM     23  C   UNL     1      35.446 -21.955 -19.492  0.00  0.00    +0.047 C 
ATOM     24  C   UNL     1      33.968 -21.550 -19.517  0.00  0.00    +0.025 C 
ATOM     25  C   UNL     1      35.902 -22.138 -18.041  0.00  0.00    +0.025 C 
ATOM     26  C   UNL     1      33.099 -22.564 -18.773  0.00  0.00    +0.096 C 
ATOM     27  C   UNL     1      35.024 -23.146 -17.298  0.00  0.00    +0.096 C 
ATOM     28  C   UNL     1      32.700 -23.233 -16.448  0.00  0.00    +0.379 C 
ATOM     29  C   UNL     1      31.116 -23.892 -15.293  0.00  0.00    +0.104 C 
BRANCH  29  30
ATOM     30  C   UNL     1      29.763 -24.307 -14.910  0.00  0.00    +0.101 C 
ATOM     31  C   UNL     1      28.683 -23.920 -15.954  0.00  0.00    +0.017 C 
ATOM     32  C   UNL     1      29.647 -25.823 -14.609  0.00  0.00    +0.017 C 
ENDBRANCH  29  30
ENDBRANCH  18  23
ENDBRANCH   1  18
TORSDOF 6
ENDMDL
