MODEL 1
REMARK VINA RESULT:     -11.8      0.000      0.000
REMARK  Name = 448903
REMARK  11 active torsions:
REMARK  status: ('A' for Active; 'I' for Inactive)
REMARK    1  A    between atoms: N_1  and  C_22
REMARK    2  A    between atoms: C_8  and  N_11
REMARK    3  A    between atoms: C_12  and  C_14
REMARK    4  A    between atoms: C_14  and  C_15
REMARK    5  A    between atoms: C_15  and  C_16
REMARK    6  A    between atoms: C_22  and  C_23
REMARK    7  A    between atoms: C_23  and  C_24
REMARK    8  A    between atoms: C_24  and  N_25
REMARK    9  A    between atoms: C_24  and  C_35
REMARK   10  A    between atoms: C_29  and  C_32
REMARK   11  A    between atoms: C_35  and  O_36
REMARK                            x       y       z     vdW  Elec       q    Type
REMARK                         _______ _______ _______ _____ _____    ______ ____
ROOT
ATOM      1  N   UNL     1      34.585 -24.236 -14.703  0.00  0.00    -0.286 N 
ATOM      2  C   UNL     1      35.250 -23.524 -15.676  0.00  0.00    +0.053 C 
ATOM      3  C   UNL     1      36.596 -23.480 -15.304  0.00  0.00    +0.015 C 
ATOM      4  C   UNL     1      35.461 -24.643 -13.733  0.00  0.00    +0.065 C 
ATOM      5  C   UNL     1      36.713 -24.191 -14.077  0.00  0.00    +0.017 C 
ATOM      6  C   UNL     1      34.768 -22.922 -16.844  0.00  0.00    +0.029 C 
ATOM      7  C   UNL     1      37.507 -22.801 -16.138  0.00  0.00    +0.003 C 
ATOM      8  C   UNL     1      35.692 -22.256 -17.655  0.00  0.00    +0.052 C 
ATOM      9  C   UNL     1      37.040 -22.196 -17.310  0.00  0.00    +0.015 C 
ENDROOT
BRANCH   8  11
ATOM     10  O   UNL     1      32.996 -22.292 -18.986  0.00  0.00    -0.275 OA
ATOM     11  N   UNL     1      35.253 -21.643 -18.830  0.00  0.00    -0.284 N 
ATOM     12  C   UNL     1      33.975 -21.681 -19.402  0.00  0.00    +0.226 C 
ATOM     13  H   UNL     1      35.927 -21.118 -19.319  0.00  0.00    +0.155 HD
BRANCH  12  14
ATOM     14  C   UNL     1      33.891 -20.882 -20.693  0.00  0.00    +0.090 C 
BRANCH  14  15
ATOM     15  C   UNL     1      35.245 -20.284 -21.077  0.00  0.00    +0.036 C 
BRANCH  15  16
ATOM     16  C   UNL     1      35.137 -19.131 -22.046  0.00  0.00    -0.022 C 
ATOM     17  C   UNL     1      35.522 -17.851 -21.651  0.00  0.00    -0.004 C 
ATOM     18  C   UNL     1      34.653 -19.348 -23.336  0.00  0.00    -0.004 C 
ATOM     19  C   UNL     1      35.422 -16.785 -22.546  0.00  0.00    -0.000 C 
ATOM     20  C   UNL     1      34.553 -18.283 -24.231  0.00  0.00    -0.000 C 
ATOM     21  C   UNL     1      34.938 -17.001 -23.836  0.00  0.00    -0.000 C 
ENDBRANCH  15  16
ENDBRANCH  14  15
ENDBRANCH  12  14
ENDBRANCH   8  11
BRANCH   1  22
ATOM     22  C   UNL     1      33.166 -24.522 -14.692  0.00  0.00    +0.097 C 
BRANCH  22  23
ATOM     23  C   UNL     1      32.271 -23.278 -14.616  0.00  0.00    +0.040 C 
BRANCH  23  24
ATOM     24  C   UNL     1      30.801 -23.550 -14.226  0.00  0.00    +0.091 C 
BRANCH  24  25
ATOM     25  N   UNL     1      29.839 -23.220 -15.290  0.00  0.00    -0.246 NA
ATOM     26  N   UNL     1      28.896 -22.841 -17.265  0.00  0.00    -0.251 NA
ATOM     27  C   UNL     1      28.522 -22.871 -15.126  0.00  0.00    +0.125 C 
ATOM     28  C   UNL     1      30.032 -23.193 -16.590  0.00  0.00    +0.201 C 
ATOM     29  C   UNL     1      27.916 -22.631 -16.337  0.00  0.00    +0.124 C 
BRANCH  29  32
ATOM     30  O   UNL     1      25.629 -22.360 -15.803  0.00  0.00    -0.269 OA
ATOM     31  N   UNL     1      26.299 -21.694 -17.877  0.00  0.00    -0.324 N 
ATOM     32  C   UNL     1      26.573 -22.248 -16.621  0.00  0.00    +0.257 C 
ATOM     33  H   UNL     1      25.381 -21.419 -18.104  0.00  0.00    +0.145 HD
ATOM     34  H   UNL     1      27.024 -21.580 -18.534  0.00  0.00    +0.145 HD
ENDBRANCH  29  32
ENDBRANCH  24  25
BRANCH  24  35
ATOM     35  C   UNL     1      30.622 -25.008 -13.773  0.00  0.00    +0.153 C 
BRANCH  35  36
ATOM     36  O   UNL     1      30.406 -25.051 -12.367  0.00  0.00    -0.381 OA
ATOM     37  H   UNL     1      31.219 -25.338 -11.924  0.00  0.00    +0.210 HD
ENDBRANCH  35  36
ENDBRANCH  24  35
ENDBRANCH  23  24
ENDBRANCH  22  23
ENDBRANCH   1  22
TORSDOF 11
ENDMDL
MODEL 2
REMARK VINA RESULT:     -11.8      2.921      6.861
REMARK  Name = 448903
REMARK  11 active torsions:
REMARK  status: ('A' for Active; 'I' for Inactive)
REMARK    1  A    between atoms: N_1  and  C_22
REMARK    2  A    between atoms: C_8  and  N_11
REMARK    3  A    between atoms: C_12  and  C_14
REMARK    4  A    between atoms: C_14  and  C_15
REMARK    5  A    between atoms: C_15  and  C_16
REMARK    6  A    between atoms: C_22  and  C_23
REMARK    7  A    between atoms: C_23  and  C_24
REMARK    8  A    between atoms: C_24  and  N_25
REMARK    9  A    between atoms: C_24  and  C_35
REMARK   10  A    between atoms: C_29  and  C_32
REMARK   11  A    between atoms: C_35  and  O_36
REMARK                            x       y       z     vdW  Elec       q    Type
REMARK                         _______ _______ _______ _____ _____    ______ ____
ROOT
ATOM      1  N   UNL     1      32.986 -24.666 -14.198  0.00  0.00    -0.286 N 
ATOM      2  C   UNL     1      32.297 -24.059 -15.224  0.00  0.00    +0.053 C 
ATOM      3  C   UNL     1      30.936 -24.254 -14.975  0.00  0.00    +0.015 C 
ATOM      4  C   UNL     1      32.112 -25.234 -13.312  0.00  0.00    +0.065 C 
ATOM      5  C   UNL     1      30.835 -24.996 -13.765  0.00  0.00    +0.017 C 
ATOM      6  C   UNL     1      32.769 -23.361 -16.341  0.00  0.00    +0.029 C 
ATOM      7  C   UNL     1      29.999 -23.727 -15.886  0.00  0.00    +0.003 C 
ATOM      8  C   UNL     1      31.820 -22.847 -17.230  0.00  0.00    +0.052 C 
ATOM      9  C   UNL     1      30.456 -23.025 -17.007  0.00  0.00    +0.015 C 
ENDROOT
BRANCH   8  11
ATOM     10  O   UNL     1      34.384 -23.032 -18.789  0.00  0.00    -0.275 OA
ATOM     11  N   UNL     1      32.248 -22.143 -18.357  0.00  0.00    -0.284 N 
ATOM     12  C   UNL     1      33.453 -22.278 -19.056  0.00  0.00    +0.226 C 
ATOM     13  H   UNL     1      31.623 -21.465 -18.704  0.00  0.00    +0.155 HD
BRANCH  12  14
ATOM     14  C   UNL     1      33.551 -21.326 -20.238  0.00  0.00    +0.090 C 
BRANCH  14  15
ATOM     15  C   UNL     1      34.945 -20.707 -20.350  0.00  0.00    +0.036 C 
BRANCH  15  16
ATOM     16  C   UNL     1      35.030 -19.607 -21.380  0.00  0.00    -0.022 C 
ATOM     17  C   UNL     1      35.570 -18.368 -21.034  0.00  0.00    -0.004 C 
ATOM     18  C   UNL     1      34.570 -19.830 -22.678  0.00  0.00    -0.004 C 
ATOM     19  C   UNL     1      35.648 -17.351 -21.986  0.00  0.00    -0.000 C 
ATOM     20  C   UNL     1      34.649 -18.813 -23.630  0.00  0.00    -0.000 C 
ATOM     21  C   UNL     1      35.188 -17.573 -23.284  0.00  0.00    -0.000 C 
ENDBRANCH  15  16
ENDBRANCH  14  15
ENDBRANCH  12  14
ENDBRANCH   8  11
BRANCH   1  22
ATOM     22  C   UNL     1      34.427 -24.706 -14.061  0.00  0.00    +0.097 C 
BRANCH  22  23
ATOM     23  C   UNL     1      34.961 -24.026 -12.793  0.00  0.00    +0.040 C 
BRANCH  23  24
ATOM     24  C   UNL     1      36.277 -24.614 -12.238  0.00  0.00    +0.091 C 
BRANCH  24  25
ATOM     25  N   UNL     1      37.356 -24.691 -13.237  0.00  0.00    -0.246 NA
ATOM     26  N   UNL     1      38.701 -24.274 -14.955  0.00  0.00    -0.251 NA
ATOM     27  C   UNL     1      38.332 -25.653 -13.317  0.00  0.00    +0.125 C 
ATOM     28  C   UNL     1      37.606 -23.876 -14.237  0.00  0.00    +0.201 C 
ATOM     29  C   UNL     1      39.178 -25.415 -14.375  0.00  0.00    +0.124 C 
BRANCH  29  32
ATOM     30  O   UNL     1      40.743 -26.137 -15.993  0.00  0.00    -0.269 OA
ATOM     31  N   UNL     1      40.999 -26.930 -13.871  0.00  0.00    -0.324 N 
ATOM     32  C   UNL     1      40.312 -26.156 -14.815  0.00  0.00    +0.257 C 
ATOM     33  H   UNL     1      41.787 -27.453 -14.144  0.00  0.00    +0.145 HD
ATOM     34  H   UNL     1      40.693 -26.952 -12.935  0.00  0.00    +0.145 HD
ENDBRANCH  29  32
ENDBRANCH  24  25
BRANCH  24  35
ATOM     35  C   UNL     1      36.744 -23.825 -11.004  0.00  0.00    +0.153 C 
BRANCH  35  36
ATOM     36  O   UNL     1      36.341 -24.503  -9.819  0.00  0.00    -0.381 OA
ATOM     37  H   UNL     1      36.159 -25.433 -10.026  0.00  0.00    +0.210 HD
ENDBRANCH  35  36
ENDBRANCH  24  35
ENDBRANCH  23  24
ENDBRANCH  22  23
ENDBRANCH   1  22
TORSDOF 11
ENDMDL
MODEL 3
REMARK VINA RESULT:     -11.5      1.332      1.688
REMARK  Name = 448903
REMARK  11 active torsions:
REMARK  status: ('A' for Active; 'I' for Inactive)
REMARK    1  A    between atoms: N_1  and  C_22
REMARK    2  A    between atoms: C_8  and  N_11
REMARK    3  A    between atoms: C_12  and  C_14
REMARK    4  A    between atoms: C_14  and  C_15
REMARK    5  A    between atoms: C_15  and  C_16
REMARK    6  A    between atoms: C_22  and  C_23
REMARK    7  A    between atoms: C_23  and  C_24
REMARK    8  A    between atoms: C_24  and  N_25
REMARK    9  A    between atoms: C_24  and  C_35
REMARK   10  A    between atoms: C_29  and  C_32
REMARK   11  A    between atoms: C_35  and  O_36
REMARK                            x       y       z     vdW  Elec       q    Type
REMARK                         _______ _______ _______ _____ _____    ______ ____
ROOT
ATOM      1  N   UNL     1      34.183 -23.681 -15.826  0.00  0.00    -0.286 N 
ATOM      2  C   UNL     1      34.950 -23.032 -16.769  0.00  0.00    +0.053 C 
ATOM      3  C   UNL     1      36.258 -22.998 -16.280  0.00  0.00    +0.015 C 
ATOM      4  C   UNL     1      34.959 -24.058 -14.764  0.00  0.00    +0.065 C 
ATOM      5  C   UNL     1      36.248 -23.651 -15.015  0.00  0.00    +0.017 C 
ATOM      6  C   UNL     1      34.589 -22.478 -18.002  0.00  0.00    +0.029 C 
ATOM      7  C   UNL     1      37.257 -22.381 -17.060  0.00  0.00    +0.003 C 
ATOM      8  C   UNL     1      35.597 -21.872 -18.758  0.00  0.00    +0.052 C 
ATOM      9  C   UNL     1      36.911 -21.824 -18.296  0.00  0.00    +0.015 C 
ENDROOT
BRANCH   8  11
ATOM     10  O   UNL     1      36.777 -19.501 -20.182  0.00  0.00    -0.275 OA
ATOM     11  N   UNL     1      35.280 -21.308 -19.995  0.00  0.00    -0.284 N 
ATOM     12  C   UNL     1      35.873 -20.205 -20.622  0.00  0.00    +0.226 C 
ATOM     13  H   UNL     1      34.546 -21.741 -20.489  0.00  0.00    +0.155 HD
BRANCH  12  14
ATOM     14  C   UNL     1      35.245 -19.895 -21.972  0.00  0.00    +0.090 C 
BRANCH  14  15
ATOM     15  C   UNL     1      35.824 -18.619 -22.584  0.00  0.00    +0.036 C 
BRANCH  15  16
ATOM     16  C   UNL     1      34.980 -18.055 -23.701  0.00  0.00    -0.022 C 
ATOM     17  C   UNL     1      34.916 -16.677 -23.899  0.00  0.00    -0.004 C 
ATOM     18  C   UNL     1      34.265 -18.914 -24.536  0.00  0.00    -0.004 C 
ATOM     19  C   UNL     1      34.136 -16.156 -24.932  0.00  0.00    -0.000 C 
ATOM     20  C   UNL     1      33.485 -18.393 -25.569  0.00  0.00    -0.000 C 
ATOM     21  C   UNL     1      33.420 -17.014 -25.766  0.00  0.00    -0.000 C 
ENDBRANCH  15  16
ENDBRANCH  14  15
ENDBRANCH  12  14
ENDBRANCH   8  11
BRANCH   1  22
ATOM     22  C   UNL     1      32.762 -23.935 -15.929  0.00  0.00    +0.097 C 
BRANCH  22  23
ATOM     23  C   UNL     1      31.892 -23.022 -15.056  0.00  0.00    +0.040 C 
BRANCH  23  24
ATOM     24  C   UNL     1      30.604 -23.674 -14.504  0.00  0.00    +0.091 C 
BRANCH  24  25
ATOM     25  N   UNL     1      29.483 -23.662 -15.459  0.00  0.00    -0.246 NA
ATOM     26  N   UNL     1      28.051 -24.202 -17.068  0.00  0.00    -0.251 NA
ATOM     27  C   UNL     1      28.525 -22.686 -15.586  0.00  0.00    +0.125 C 
ATOM     28  C   UNL     1      29.168 -24.560 -16.365  0.00  0.00    +0.201 C 
ATOM     29  C   UNL     1      27.626 -22.999 -16.579  0.00  0.00    +0.124 C 
BRANCH  29  32
ATOM     30  O   UNL     1      25.569 -21.872 -16.283  0.00  0.00    -0.269 OA
ATOM     31  N   UNL     1      26.408 -21.969 -18.400  0.00  0.00    -0.324 N 
ATOM     32  C   UNL     1      26.490 -22.273 -17.036  0.00  0.00    +0.257 C 
ATOM     33  H   UNL     1      25.635 -21.468 -18.748  0.00  0.00    +0.145 HD
ATOM     34  H   UNL     1      27.123 -22.257 -19.013  0.00  0.00    +0.145 HD
ENDBRANCH  29  32
ENDBRANCH  24  25
BRANCH  24  35
ATOM     35  C   UNL     1      30.886 -25.108 -14.026  0.00  0.00    +0.153 C 
BRANCH  35  36
ATOM     36  O   UNL     1      30.422 -25.267 -12.690  0.00  0.00    -0.381 OA
ATOM     37  H   UNL     1      30.976 -24.742 -12.090  0.00  0.00    +0.210 HD
ENDBRANCH  35  36
ENDBRANCH  24  35
ENDBRANCH  23  24
ENDBRANCH  22  23
ENDBRANCH   1  22
TORSDOF 11
ENDMDL
MODEL 4
REMARK VINA RESULT:     -11.5      6.618     11.306
REMARK  Name = 448903
REMARK  11 active torsions:
REMARK  status: ('A' for Active; 'I' for Inactive)
REMARK    1  A    between atoms: N_1  and  C_22
REMARK    2  A    between atoms: C_8  and  N_11
REMARK    3  A    between atoms: C_12  and  C_14
REMARK    4  A    between atoms: C_14  and  C_15
REMARK    5  A    between atoms: C_15  and  C_16
REMARK    6  A    between atoms: C_22  and  C_23
REMARK    7  A    between atoms: C_23  and  C_24
REMARK    8  A    between atoms: C_24  and  N_25
REMARK    9  A    between atoms: C_24  and  C_35
REMARK   10  A    between atoms: C_29  and  C_32
REMARK   11  A    between atoms: C_35  and  O_36
REMARK                            x       y       z     vdW  Elec       q    Type
REMARK                         _______ _______ _______ _____ _____    ______ ____
ROOT
ATOM      1  N   UNL     1      34.766 -16.559 -23.421  0.00  0.00    -0.286 N 
ATOM      2  C   UNL     1      34.240 -15.410 -23.967  0.00  0.00    +0.053 C 
ATOM      3  C   UNL     1      33.796 -15.734 -25.252  0.00  0.00    +0.015 C 
ATOM      4  C   UNL     1      34.670 -17.594 -24.311  0.00  0.00    +0.065 C 
ATOM      5  C   UNL     1      34.073 -17.115 -25.454  0.00  0.00    +0.017 C 
ATOM      6  C   UNL     1      34.125 -14.124 -23.429  0.00  0.00    +0.029 C 
ATOM      7  C   UNL     1      33.208 -14.724 -26.040  0.00  0.00    +0.003 C 
ATOM      8  C   UNL     1      33.537 -13.139 -24.230  0.00  0.00    +0.052 C 
ATOM      9  C   UNL     1      33.085 -13.433 -25.515  0.00  0.00    +0.015 C 
ENDROOT
BRANCH   8  11
ATOM     10  O   UNL     1      34.982 -10.605 -24.961  0.00  0.00    -0.275 OA
ATOM     11  N   UNL     1      33.401 -11.843 -23.731  0.00  0.00    -0.284 N 
ATOM     12  C   UNL     1      34.093 -10.688 -24.117  0.00  0.00    +0.226 C 
ATOM     13  H   UNL     1      32.734 -11.724 -23.016  0.00  0.00    +0.155 HD
BRANCH  12  14
ATOM     14  C   UNL     1      33.661  -9.459 -23.333  0.00  0.00    +0.090 C 
BRANCH  14  15
ATOM     15  C   UNL     1      34.652  -8.306 -23.499  0.00  0.00    +0.036 C 
BRANCH  15  16
ATOM     16  C   UNL     1      34.012  -7.034 -23.997  0.00  0.00    -0.022 C 
ATOM     17  C   UNL     1      34.657  -6.258 -24.959  0.00  0.00    -0.004 C 
ATOM     18  C   UNL     1      32.773  -6.634 -23.495  0.00  0.00    -0.004 C 
ATOM     19  C   UNL     1      34.065  -5.082 -25.420  0.00  0.00    -0.000 C 
ATOM     20  C   UNL     1      32.181  -5.457 -23.955  0.00  0.00    -0.000 C 
ATOM     21  C   UNL     1      32.827  -4.681 -24.917  0.00  0.00    -0.000 C 
ENDBRANCH  15  16
ENDBRANCH  14  15
ENDBRANCH  12  14
ENDBRANCH   8  11
BRANCH   1  22
ATOM     22  C   UNL     1      35.341 -16.673 -22.097  0.00  0.00    +0.097 C 
BRANCH  22  23
ATOM     23  C   UNL     1      35.080 -18.019 -21.408  0.00  0.00    +0.040 C 
BRANCH  23  24
ATOM     24  C   UNL     1      36.346 -18.817 -21.025  0.00  0.00    +0.091 C 
BRANCH  24  25
ATOM     25  N   UNL     1      36.056 -20.102 -20.367  0.00  0.00    -0.246 NA
ATOM     26  N   UNL     1      36.243 -22.010 -19.245  0.00  0.00    -0.251 NA
ATOM     27  C   UNL     1      34.837 -20.728 -20.294  0.00  0.00    +0.125 C 
ATOM     28  C   UNL     1      36.881 -20.900 -19.726  0.00  0.00    +0.201 C 
ATOM     29  C   UNL     1      34.927 -21.914 -19.603  0.00  0.00    +0.124 C 
BRANCH  29  32
ATOM     30  O   UNL     1      34.003 -24.089 -19.561  0.00  0.00    -0.269 OA
ATOM     31  N   UNL     1      32.762 -22.414 -18.641  0.00  0.00    -0.324 N 
ATOM     32  C   UNL     1      33.914 -22.866 -19.296  0.00  0.00    +0.257 C 
ATOM     33  H   UNL     1      32.043 -23.048 -18.415  0.00  0.00    +0.145 HD
ATOM     34  H   UNL     1      32.671 -21.462 -18.406  0.00  0.00    +0.145 HD
ENDBRANCH  29  32
ENDBRANCH  24  25
BRANCH  24  35
ATOM     35  C   UNL     1      37.242 -19.035 -22.256  0.00  0.00    +0.153 C 
BRANCH  35  36
ATOM     36  O   UNL     1      38.575 -18.639 -21.954  0.00  0.00    -0.381 OA
ATOM     37  H   UNL     1      38.561 -17.811 -21.449  0.00  0.00    +0.210 HD
ENDBRANCH  35  36
ENDBRANCH  24  35
ENDBRANCH  23  24
ENDBRANCH  22  23
ENDBRANCH   1  22
TORSDOF 11
ENDMDL
MODEL 5
REMARK VINA RESULT:     -11.4      6.343     11.132
REMARK  Name = 448903
REMARK  11 active torsions:
REMARK  status: ('A' for Active; 'I' for Inactive)
REMARK    1  A    between atoms: N_1  and  C_22
REMARK    2  A    between atoms: C_8  and  N_11
REMARK    3  A    between atoms: C_12  and  C_14
REMARK    4  A    between atoms: C_14  and  C_15
REMARK    5  A    between atoms: C_15  and  C_16
REMARK    6  A    between atoms: C_22  and  C_23
REMARK    7  A    between atoms: C_23  and  C_24
REMARK    8  A    between atoms: C_24  and  N_25
REMARK    9  A    between atoms: C_24  and  C_35
REMARK   10  A    between atoms: C_29  and  C_32
REMARK   11  A    between atoms: C_35  and  O_36
REMARK                            x       y       z     vdW  Elec       q    Type
REMARK                         _______ _______ _______ _____ _____    ______ ____
ROOT
ATOM      1  N   UNL     1      34.751 -16.619 -23.537  0.00  0.00    -0.286 N 
ATOM      2  C   UNL     1      34.257 -15.469 -24.109  0.00  0.00    +0.053 C 
ATOM      3  C   UNL     1      33.735 -15.823 -25.356  0.00  0.00    +0.015 C 
ATOM      4  C   UNL     1      34.560 -17.684 -24.375  0.00  0.00    +0.065 C 
ATOM      5  C   UNL     1      33.933 -17.224 -25.509  0.00  0.00    +0.017 C 
ATOM      6  C   UNL     1      34.232 -14.156 -23.625  0.00  0.00    +0.029 C 
ATOM      7  C   UNL     1      33.160 -14.818 -26.160  0.00  0.00    +0.003 C 
ATOM      8  C   UNL     1      33.656 -13.177 -24.440  0.00  0.00    +0.052 C 
ATOM      9  C   UNL     1      33.127 -13.501 -25.688  0.00  0.00    +0.015 C 
ENDROOT
BRANCH   8  11
ATOM     10  O   UNL     1      35.182 -10.754 -25.356  0.00  0.00    -0.275 OA
ATOM     11  N   UNL     1      33.609 -11.855 -23.994  0.00  0.00    -0.284 N 
ATOM     12  C   UNL     1      34.336 -10.755 -24.466  0.00  0.00    +0.226 C 
ATOM     13  H   UNL     1      32.987 -11.673 -23.252  0.00  0.00    +0.155 HD
BRANCH  12  14
ATOM     14  C   UNL     1      34.005  -9.474 -23.718  0.00  0.00    +0.090 C 
BRANCH  14  15
ATOM     15  C   UNL     1      32.660  -9.572 -22.997  0.00  0.00    +0.036 C 
BRANCH  15  16
ATOM     16  C   UNL     1      32.192  -8.257 -22.421  0.00  0.00    -0.022 C 
ATOM     17  C   UNL     1      32.638  -7.847 -21.165  0.00  0.00    -0.004 C 
ATOM     18  C   UNL     1      31.314  -7.451 -23.147  0.00  0.00    -0.004 C 
ATOM     19  C   UNL     1      32.205  -6.633 -20.633  0.00  0.00    -0.000 C 
ATOM     20  C   UNL     1      30.882  -6.236 -22.615  0.00  0.00    -0.000 C 
ATOM     21  C   UNL     1      31.328  -5.827 -21.358  0.00  0.00    -0.000 C 
ENDBRANCH  15  16
ENDBRANCH  14  15
ENDBRANCH  12  14
ENDBRANCH   8  11
BRANCH   1  22
ATOM     22  C   UNL     1      35.385 -16.707 -22.238  0.00  0.00    +0.097 C 
BRANCH  22  23
ATOM     23  C   UNL     1      35.108 -18.016 -21.487  0.00  0.00    +0.040 C 
BRANCH  23  24
ATOM     24  C   UNL     1      36.366 -18.810 -21.067  0.00  0.00    +0.091 C 
BRANCH  24  25
ATOM     25  N   UNL     1      36.060 -20.089 -20.406  0.00  0.00    -0.246 NA
ATOM     26  N   UNL     1      36.228 -22.004 -19.293  0.00  0.00    -0.251 NA
ATOM     27  C   UNL     1      34.830 -20.689 -20.309  0.00  0.00    +0.125 C 
ATOM     28  C   UNL     1      36.880 -20.906 -19.784  0.00  0.00    +0.201 C 
ATOM     29  C   UNL     1      34.908 -21.878 -19.623  0.00  0.00    +0.124 C 
BRANCH  29  32
ATOM     30  O   UNL     1      33.974 -24.046 -19.489  0.00  0.00    -0.269 OA
ATOM     31  N   UNL     1      32.709 -22.317 -18.711  0.00  0.00    -0.324 N 
ATOM     32  C   UNL     1      33.881 -22.809 -19.298  0.00  0.00    +0.257 C 
ATOM     33  H   UNL     1      31.980 -22.935 -18.474  0.00  0.00    +0.145 HD
ATOM     34  H   UNL     1      32.613 -21.353 -18.534  0.00  0.00    +0.145 HD
ENDBRANCH  29  32
ENDBRANCH  24  25
BRANCH  24  35
ATOM     35  C   UNL     1      37.291 -19.036 -22.274  0.00  0.00    +0.153 C 
BRANCH  35  36
ATOM     36  O   UNL     1      38.621 -18.657 -21.936  0.00  0.00    -0.381 OA
ATOM     37  H   UNL     1      38.657 -17.698 -21.791  0.00  0.00    +0.210 HD
ENDBRANCH  35  36
ENDBRANCH  24  35
ENDBRANCH  23  24
ENDBRANCH  22  23
ENDBRANCH   1  22
TORSDOF 11
ENDMDL
MODEL 6
REMARK VINA RESULT:     -10.9      6.468     11.883
REMARK  Name = 448903
REMARK  11 active torsions:
REMARK  status: ('A' for Active; 'I' for Inactive)
REMARK    1  A    between atoms: N_1  and  C_22
REMARK    2  A    between atoms: C_8  and  N_11
REMARK    3  A    between atoms: C_12  and  C_14
REMARK    4  A    between atoms: C_14  and  C_15
REMARK    5  A    between atoms: C_15  and  C_16
REMARK    6  A    between atoms: C_22  and  C_23
REMARK    7  A    between atoms: C_23  and  C_24
REMARK    8  A    between atoms: C_24  and  N_25
REMARK    9  A    between atoms: C_24  and  C_35
REMARK   10  A    between atoms: C_29  and  C_32
REMARK   11  A    between atoms: C_35  and  O_36
REMARK                            x       y       z     vdW  Elec       q    Type
REMARK                         _______ _______ _______ _____ _____    ______ ____
ROOT
ATOM      1  N   UNL     1      34.062 -15.236 -24.121  0.00  0.00    -0.286 N 
ATOM      2  C   UNL     1      34.332 -16.582 -24.009  0.00  0.00    +0.053 C 
ATOM      3  C   UNL     1      33.933 -17.180 -25.206  0.00  0.00    +0.015 C 
ATOM      4  C   UNL     1      33.510 -14.965 -25.343  0.00  0.00    +0.065 C 
ATOM      5  C   UNL     1      33.417 -16.148 -26.038  0.00  0.00    +0.017 C 
ATOM      6  C   UNL     1      34.892 -17.306 -22.951  0.00  0.00    +0.029 C 
ATOM      7  C   UNL     1      34.100 -18.572 -25.356  0.00  0.00    +0.003 C 
ATOM      8  C   UNL     1      35.048 -18.685 -23.123  0.00  0.00    +0.052 C 
ATOM      9  C   UNL     1      34.660 -19.310 -24.307  0.00  0.00    +0.015 C 
ENDROOT
BRANCH   8  11
ATOM     10  O   UNL     1      33.728 -20.243 -20.917  0.00  0.00    -0.275 OA
ATOM     11  N   UNL     1      35.604 -19.445 -22.093  0.00  0.00    -0.284 N 
ATOM     12  C   UNL     1      34.941 -20.166 -21.093  0.00  0.00    +0.226 C 
ATOM     13  H   UNL     1      36.588 -19.478 -22.066  0.00  0.00    +0.155 HD
BRANCH  12  14
ATOM     14  C   UNL     1      35.901 -20.870 -20.147  0.00  0.00    +0.090 C 
BRANCH  14  15
ATOM     15  C   UNL     1      35.289 -22.146 -19.568  0.00  0.00    +0.036 C 
BRANCH  15  16
ATOM     16  C   UNL     1      35.627 -22.365 -18.113  0.00  0.00    -0.022 C 
ATOM     17  C   UNL     1      34.701 -22.973 -17.266  0.00  0.00    -0.004 C 
ATOM     18  C   UNL     1      36.866 -21.959 -17.616  0.00  0.00    -0.004 C 
ATOM     19  C   UNL     1      35.013 -23.175 -15.921  0.00  0.00    -0.000 C 
ATOM     20  C   UNL     1      37.178 -22.161 -16.272  0.00  0.00    -0.000 C 
ATOM     21  C   UNL     1      36.252 -22.769 -15.424  0.00  0.00    -0.000 C 
ENDBRANCH  15  16
ENDBRANCH  14  15
ENDBRANCH  12  14
ENDBRANCH   8  11
BRANCH   1  22
ATOM     22  C   UNL     1      34.320 -14.240 -23.103  0.00  0.00    +0.097 C 
BRANCH  22  23
ATOM     23  C   UNL     1      33.067 -13.503 -22.608  0.00  0.00    +0.040 C 
BRANCH  23  24
ATOM     24  C   UNL     1      32.824 -12.118 -23.249  0.00  0.00    +0.091 C 
BRANCH  24  25
ATOM     25  N   UNL     1      32.373 -11.097 -22.290  0.00  0.00    -0.246 NA
ATOM     26  N   UNL     1      31.415 -10.065 -20.572  0.00  0.00    -0.251 NA
ATOM     27  C   UNL     1      32.657  -9.754 -22.327  0.00  0.00    +0.125 C 
ATOM     28  C   UNL     1      31.624 -11.250 -21.221  0.00  0.00    +0.201 C 
ATOM     29  C   UNL     1      32.073  -9.093 -21.272  0.00  0.00    +0.124 C 
BRANCH  29  32
ATOM     30  O   UNL     1      31.538  -6.813 -21.597  0.00  0.00    -0.269 OA
ATOM     31  N   UNL     1      32.812  -7.335 -19.780  0.00  0.00    -0.324 N 
ATOM     32  C   UNL     1      32.112  -7.710 -20.933  0.00  0.00    +0.257 C 
ATOM     33  H   UNL     1      32.857  -6.386 -19.519  0.00  0.00    +0.145 HD
ATOM     34  H   UNL     1      33.259  -8.019 -19.231  0.00  0.00    +0.145 HD
ENDBRANCH  29  32
ENDBRANCH  24  25
BRANCH  24  35
ATOM     35  C   UNL     1      34.082 -11.638 -23.993  0.00  0.00    +0.153 C 
BRANCH  35  36
ATOM     36  O   UNL     1      33.781 -11.450 -25.371  0.00  0.00    -0.381 OA
ATOM     37  H   UNL     1      34.417 -10.829 -25.759  0.00  0.00    +0.210 HD
ENDBRANCH  35  36
ENDBRANCH  24  35
ENDBRANCH  23  24
ENDBRANCH  22  23
ENDBRANCH   1  22
TORSDOF 11
ENDMDL
MODEL 7
REMARK VINA RESULT:     -10.8      8.968     13.826
REMARK  Name = 448903
REMARK  11 active torsions:
REMARK  status: ('A' for Active; 'I' for Inactive)
REMARK    1  A    between atoms: N_1  and  C_22
REMARK    2  A    between atoms: C_8  and  N_11
REMARK    3  A    between atoms: C_12  and  C_14
REMARK    4  A    between atoms: C_14  and  C_15
REMARK    5  A    between atoms: C_15  and  C_16
REMARK    6  A    between atoms: C_22  and  C_23
REMARK    7  A    between atoms: C_23  and  C_24
REMARK    8  A    between atoms: C_24  and  N_25
REMARK    9  A    between atoms: C_24  and  C_35
REMARK   10  A    between atoms: C_29  and  C_32
REMARK   11  A    between atoms: C_35  and  O_36
REMARK                            x       y       z     vdW  Elec       q    Type
REMARK                         _______ _______ _______ _____ _____    ______ ____
ROOT
ATOM      1  N   UNL     1      32.907 -12.922 -22.635  0.00  0.00    -0.286 N 
ATOM      2  C   UNL     1      32.674 -11.572 -22.505  0.00  0.00    +0.053 C 
ATOM      3  C   UNL     1      31.891 -11.400 -21.360  0.00  0.00    +0.015 C 
ATOM      4  C   UNL     1      32.302 -13.607 -21.616  0.00  0.00    +0.065 C 
ATOM      5  C   UNL     1      31.666 -12.693 -20.811  0.00  0.00    +0.017 C 
ATOM      6  C   UNL     1      33.091 -10.501 -23.303  0.00  0.00    +0.029 C 
ATOM      7  C   UNL     1      31.504 -10.095 -20.994  0.00  0.00    +0.003 C 
ATOM      8  C   UNL     1      32.696  -9.216 -22.919  0.00  0.00    +0.052 C 
ATOM      9  C   UNL     1      31.915  -9.014 -21.782  0.00  0.00    +0.015 C 
ENDROOT
BRANCH   8  11
ATOM     10  O   UNL     1      35.203  -7.560 -22.808  0.00  0.00    -0.275 OA
ATOM     11  N   UNL     1      33.092  -8.120 -23.687  0.00  0.00    -0.284 N 
ATOM     12  C   UNL     1      34.283  -7.388 -23.603  0.00  0.00    +0.226 C 
ATOM     13  H   UNL     1      32.452  -7.822 -24.374  0.00  0.00    +0.155 HD
BRANCH  12  14
ATOM     14  C   UNL     1      34.345  -6.257 -24.618  0.00  0.00    +0.090 C 
BRANCH  14  15
ATOM     15  C   UNL     1      32.967  -5.948 -25.204  0.00  0.00    +0.036 C 
BRANCH  15  16
ATOM     16  C   UNL     1      32.398  -4.632 -24.733  0.00  0.00    -0.022 C 
ATOM     17  C   UNL     1      32.609  -3.474 -25.480  0.00  0.00    -0.004 C 
ATOM     18  C   UNL     1      31.661  -4.574 -23.550  0.00  0.00    -0.004 C 
ATOM     19  C   UNL     1      32.083  -2.257 -25.045  0.00  0.00    -0.000 C 
ATOM     20  C   UNL     1      31.135  -3.358 -23.115  0.00  0.00    -0.000 C 
ATOM     21  C   UNL     1      31.346  -2.199 -23.862  0.00  0.00    -0.000 C 
ENDBRANCH  15  16
ENDBRANCH  14  15
ENDBRANCH  12  14
ENDBRANCH   8  11
BRANCH   1  22
ATOM     22  C   UNL     1      33.679 -13.544 -23.691  0.00  0.00    +0.097 C 
BRANCH  22  23
ATOM     23  C   UNL     1      34.544 -14.724 -23.230  0.00  0.00    +0.040 C 
BRANCH  23  24
ATOM     24  C   UNL     1      34.665 -15.885 -24.243  0.00  0.00    +0.091 C 
BRANCH  24  25
ATOM     25  N   UNL     1      34.887 -17.196 -23.613  0.00  0.00    -0.246 NA
ATOM     26  N   UNL     1      34.930 -19.377 -23.193  0.00  0.00    -0.251 NA
ATOM     27  C   UNL     1      35.498 -17.433 -22.407  0.00  0.00    +0.125 C 
ATOM     28  C   UNL     1      34.557 -18.387 -24.060  0.00  0.00    +0.201 C 
ATOM     29  C   UNL     1      35.537 -18.779 -22.125  0.00  0.00    +0.124 C 
BRANCH  29  32
ATOM     30  O   UNL     1      37.180 -19.168 -20.470  0.00  0.00    -0.269 OA
ATOM     31  N   UNL     1      35.317 -20.481 -20.417  0.00  0.00    -0.324 N 
ATOM     32  C   UNL     1      36.075 -19.454 -20.992  0.00  0.00    +0.257 C 
ATOM     33  H   UNL     1      35.662 -20.967 -19.633  0.00  0.00    +0.145 HD
ATOM     34  H   UNL     1      34.439 -20.717 -20.796  0.00  0.00    +0.145 HD
ENDBRANCH  29  32
ENDBRANCH  24  25
BRANCH  24  35
ATOM     35  C   UNL     1      33.432 -15.932 -25.161  0.00  0.00    +0.153 C 
BRANCH  35  36
ATOM     36  O   UNL     1      33.847 -16.062 -26.516  0.00  0.00    -0.381 OA
ATOM     37  H   UNL     1      33.243 -16.659 -26.984  0.00  0.00    +0.210 HD
ENDBRANCH  35  36
ENDBRANCH  24  35
ENDBRANCH  23  24
ENDBRANCH  22  23
ENDBRANCH   1  22
TORSDOF 11
ENDMDL
MODEL 8
REMARK VINA RESULT:     -10.7      8.961     13.817
REMARK  Name = 448903
REMARK  11 active torsions:
REMARK  status: ('A' for Active; 'I' for Inactive)
REMARK    1  A    between atoms: N_1  and  C_22
REMARK    2  A    between atoms: C_8  and  N_11
REMARK    3  A    between atoms: C_12  and  C_14
REMARK    4  A    between atoms: C_14  and  C_15
REMARK    5  A    between atoms: C_15  and  C_16
REMARK    6  A    between atoms: C_22  and  C_23
REMARK    7  A    between atoms: C_23  and  C_24
REMARK    8  A    between atoms: C_24  and  N_25
REMARK    9  A    between atoms: C_24  and  C_35
REMARK   10  A    between atoms: C_29  and  C_32
REMARK   11  A    between atoms: C_35  and  O_36
REMARK                            x       y       z     vdW  Elec       q    Type
REMARK                         _______ _______ _______ _____ _____    ______ ____
ROOT
ATOM      1  N   UNL     1      32.872 -12.979 -22.623  0.00  0.00    -0.286 N 
ATOM      2  C   UNL     1      32.665 -11.624 -22.491  0.00  0.00    +0.053 C 
ATOM      3  C   UNL     1      31.912 -11.436 -21.329  0.00  0.00    +0.015 C 
ATOM      4  C   UNL     1      32.280 -13.650 -21.588  0.00  0.00    +0.065 C 
ATOM      5  C   UNL     1      31.678 -12.723 -20.770  0.00  0.00    +0.017 C 
ATOM      6  C   UNL     1      33.081 -10.562 -23.303  0.00  0.00    +0.029 C 
ATOM      7  C   UNL     1      31.556 -10.123 -20.958  0.00  0.00    +0.003 C 
ATOM      8  C   UNL     1      32.716  -9.270 -22.913  0.00  0.00    +0.052 C 
ATOM      9  C   UNL     1      31.966  -9.052 -21.759  0.00  0.00    +0.015 C 
ENDROOT
BRANCH   8  11
ATOM     10  O   UNL     1      35.209  -7.592 -22.801  0.00  0.00    -0.275 OA
ATOM     11  N   UNL     1      33.112  -8.183 -23.694  0.00  0.00    -0.284 N 
ATOM     12  C   UNL     1      34.296  -7.440 -23.609  0.00  0.00    +0.226 C 
ATOM     13  H   UNL     1      32.478  -7.901 -24.393  0.00  0.00    +0.155 HD
BRANCH  12  14
ATOM     14  C   UNL     1      34.361  -6.325 -24.640  0.00  0.00    +0.090 C 
BRANCH  14  15
ATOM     15  C   UNL     1      33.047  -5.545 -24.711  0.00  0.00    +0.036 C 
BRANCH  15  16
ATOM     16  C   UNL     1      33.021  -4.517 -25.816  0.00  0.00    -0.022 C 
ATOM     17  C   UNL     1      32.275  -3.349 -25.665  0.00  0.00    -0.004 C 
ATOM     18  C   UNL     1      33.745  -4.735 -26.989  0.00  0.00    -0.004 C 
ATOM     19  C   UNL     1      32.251  -2.399 -26.686  0.00  0.00    -0.000 C 
ATOM     20  C   UNL     1      33.721  -3.785 -28.010  0.00  0.00    -0.000 C 
ATOM     21  C   UNL     1      32.974  -2.617 -27.858  0.00  0.00    -0.000 C 
ENDBRANCH  15  16
ENDBRANCH  14  15
ENDBRANCH  12  14
ENDBRANCH   8  11
BRANCH   1  22
ATOM     22  C   UNL     1      33.607 -13.616 -23.695  0.00  0.00    +0.097 C 
BRANCH  22  23
ATOM     23  C   UNL     1      34.517 -14.765 -23.241  0.00  0.00    +0.040 C 
BRANCH  23  24
ATOM     24  C   UNL     1      34.668 -15.922 -24.254  0.00  0.00    +0.091 C 
BRANCH  24  25
ATOM     25  N   UNL     1      34.888 -17.234 -23.622  0.00  0.00    -0.246 NA
ATOM     26  N   UNL     1      34.920 -19.413 -23.196  0.00  0.00    -0.251 NA
ATOM     27  C   UNL     1      35.510 -17.471 -22.421  0.00  0.00    +0.125 C 
ATOM     28  C   UNL     1      34.545 -18.424 -24.062  0.00  0.00    +0.201 C 
ATOM     29  C   UNL     1      35.541 -18.816 -22.136  0.00  0.00    +0.124 C 
BRANCH  29  32
ATOM     30  O   UNL     1      37.189 -19.199 -20.484  0.00  0.00    -0.269 OA
ATOM     31  N   UNL     1      35.338 -20.528 -20.435  0.00  0.00    -0.324 N 
ATOM     32  C   UNL     1      36.087 -19.492 -21.007  0.00  0.00    +0.257 C 
ATOM     33  H   UNL     1      35.687 -21.015 -19.654  0.00  0.00    +0.145 HD
ATOM     34  H   UNL     1      34.462 -20.770 -20.815  0.00  0.00    +0.145 HD
ENDBRANCH  29  32
ENDBRANCH  24  25
BRANCH  24  35
ATOM     35  C   UNL     1      33.456 -15.977 -25.198  0.00  0.00    +0.153 C 
BRANCH  35  36
ATOM     36  O   UNL     1      33.901 -16.045 -26.547  0.00  0.00    -0.381 OA
ATOM     37  H   UNL     1      34.539 -15.332 -26.714  0.00  0.00    +0.210 HD
ENDBRANCH  35  36
ENDBRANCH  24  35
ENDBRANCH  23  24
ENDBRANCH  22  23
ENDBRANCH   1  22
TORSDOF 11
ENDMDL
MODEL 9
REMARK VINA RESULT:     -10.5      8.084     13.105
REMARK  Name = 448903
REMARK  11 active torsions:
REMARK  status: ('A' for Active; 'I' for Inactive)
REMARK    1  A    between atoms: N_1  and  C_22
REMARK    2  A    between atoms: C_8  and  N_11
REMARK    3  A    between atoms: C_12  and  C_14
REMARK    4  A    between atoms: C_14  and  C_15
REMARK    5  A    between atoms: C_15  and  C_16
REMARK    6  A    between atoms: C_22  and  C_23
REMARK    7  A    between atoms: C_23  and  C_24
REMARK    8  A    between atoms: C_24  and  N_25
REMARK    9  A    between atoms: C_24  and  C_35
REMARK   10  A    between atoms: C_29  and  C_32
REMARK   11  A    between atoms: C_35  and  O_36
REMARK                            x       y       z     vdW  Elec       q    Type
REMARK                         _______ _______ _______ _____ _____    ______ ____
ROOT
ATOM      1  N   UNL     1      33.551 -12.984 -24.563  0.00  0.00    -0.286 N 
ATOM      2  C   UNL     1      33.858 -14.327 -24.580  0.00  0.00    +0.053 C 
ATOM      3  C   UNL     1      33.463 -14.821 -25.826  0.00  0.00    +0.015 C 
ATOM      4  C   UNL     1      32.980 -12.615 -25.750  0.00  0.00    +0.065 C 
ATOM      5  C   UNL     1      32.912 -13.729 -26.553  0.00  0.00    +0.017 C 
ATOM      6  C   UNL     1      34.447 -15.132 -23.600  0.00  0.00    +0.029 C 
ATOM      7  C   UNL     1      33.667 -16.187 -26.108  0.00  0.00    +0.003 C 
ATOM      8  C   UNL     1      34.639 -16.484 -23.903  0.00  0.00    +0.052 C 
ATOM      9  C   UNL     1      34.256 -17.004 -25.138  0.00  0.00    +0.015 C 
ENDROOT
BRANCH   8  11
ATOM     10  O   UNL     1      34.932 -16.157 -20.929  0.00  0.00    -0.275 OA
ATOM     11  N   UNL     1      35.225 -17.321 -22.953  0.00  0.00    -0.284 N 
ATOM     12  C   UNL     1      35.324 -17.127 -21.570  0.00  0.00    +0.226 C 
ATOM     13  H   UNL     1      35.620 -18.155 -23.299  0.00  0.00    +0.155 HD
BRANCH  12  14
ATOM     14  C   UNL     1      36.038 -18.273 -20.870  0.00  0.00    +0.090 C 
BRANCH  14  15
ATOM     15  C   UNL     1      35.721 -19.619 -21.522  0.00  0.00    +0.036 C 
BRANCH  15  16
ATOM     16  C   UNL     1      34.952 -20.555 -20.620  0.00  0.00    -0.022 C 
ATOM     17  C   UNL     1      33.558 -20.528 -20.614  0.00  0.00    -0.004 C 
ATOM     18  C   UNL     1      35.637 -21.446 -19.795  0.00  0.00    -0.004 C 
ATOM     19  C   UNL     1      32.848 -21.393 -19.780  0.00  0.00    -0.000 C 
ATOM     20  C   UNL     1      34.927 -22.311 -18.961  0.00  0.00    -0.000 C 
ATOM     21  C   UNL     1      33.533 -22.284 -18.954  0.00  0.00    -0.000 C 
ENDBRANCH  15  16
ENDBRANCH  14  15
ENDBRANCH  12  14
ENDBRANCH   8  11
BRANCH   1  22
ATOM     22  C   UNL     1      33.791 -12.082 -23.457  0.00  0.00    +0.097 C 
BRANCH  22  23
ATOM     23  C   UNL     1      33.373 -10.630 -23.725  0.00  0.00    +0.040 C 
BRANCH  23  24
ATOM     24  C   UNL     1      32.651  -9.928 -22.553  0.00  0.00    +0.091 C 
BRANCH  24  25
ATOM     25  N   UNL     1      32.081  -8.618 -22.911  0.00  0.00    -0.246 NA
ATOM     26  N   UNL     1      31.254  -6.894 -24.040  0.00  0.00    -0.251 NA
ATOM     27  C   UNL     1      31.767  -7.597 -22.050  0.00  0.00    +0.125 C 
ATOM     28  C   UNL     1      31.760  -8.163 -24.102  0.00  0.00    +0.201 C 
ATOM     29  C   UNL     1      31.252  -6.516 -22.727  0.00  0.00    +0.124 C 
BRANCH  29  32
ATOM     30  O   UNL     1      30.435  -4.310 -22.956  0.00  0.00    -0.269 OA
ATOM     31  N   UNL     1      30.743  -5.090 -20.837  0.00  0.00    -0.324 N 
ATOM     32  C   UNL     1      30.802  -5.262 -22.226  0.00  0.00    +0.257 C 
ATOM     33  H   UNL     1      30.435  -4.235 -20.459  0.00  0.00    +0.145 HD
ATOM     34  H   UNL     1      31.009  -5.826 -20.238  0.00  0.00    +0.145 HD
ENDBRANCH  29  32
ENDBRANCH  24  25
BRANCH  24  35
ATOM     35  C   UNL     1      31.565 -10.842 -21.961  0.00  0.00    +0.153 C 
BRANCH  35  36
ATOM     36  O   UNL     1      31.698 -10.891 -20.545  0.00  0.00    -0.381 OA
ATOM     37  H   UNL     1      31.439 -10.037 -20.166  0.00  0.00    +0.210 HD
ENDBRANCH  35  36
ENDBRANCH  24  35
ENDBRANCH  23  24
ENDBRANCH  22  23
ENDBRANCH   1  22
TORSDOF 11
ENDMDL
