MODEL 1
REMARK VINA RESULT:     -11.4      0.000      0.000
REMARK  Name = 5288712
REMARK  5 active torsions:
REMARK  status: ('A' for Active; 'I' for Inactive)
REMARK    1  A    between atoms: C_1  and  N_18
REMARK    2  A    between atoms: C_2  and  S_7
REMARK    3  A    between atoms: S_7  and  N_10
REMARK    4  A    between atoms: N_10  and  C_13
REMARK    5  A    between atoms: N_18  and  C_26
REMARK                            x       y       z     vdW  Elec       q    Type
REMARK                         _______ _______ _______ _____ _____    ______ ____
ROOT
ATOM      1  C   UNL     1      35.609 -19.842 -21.067  0.00  0.00    +0.048 C 
ATOM      2  C   UNL     1      34.461 -21.839 -19.484  0.00  0.00    +0.129 C 
ATOM      3  C   UNL     1      36.419 -20.675 -20.292  0.00  0.00    +0.016 C 
ATOM      4  C   UNL     1      34.222 -20.013 -21.047  0.00  0.00    +0.016 C 
ATOM      5  C   UNL     1      35.846 -21.672 -19.502  0.00  0.00    +0.022 C 
ATOM      6  C   UNL     1      33.648 -21.009 -20.256  0.00  0.00    +0.022 C 
ENDROOT
BRANCH   2   7
ATOM      7  S   UNL     1      33.743 -23.085 -18.494  0.00  0.00    +0.103 S 
ATOM      8  O   UNL     1      33.890 -24.354 -19.199  0.00  0.00    -0.146 OA
ATOM      9  O   UNL     1      32.410 -22.610 -18.146  0.00  0.00    -0.146 OA
BRANCH   7  10
ATOM     10  N   UNL     1      34.689 -23.123 -17.158  0.00  0.00    -0.093 NA
BRANCH  10  13
ATOM     11  N   UNL     1      32.958 -23.834 -15.650  0.00  0.00    -0.369 N 
ATOM     12  N   UNL     1      34.929 -23.014 -14.844  0.00  0.00    -0.369 N 
ATOM     13  C   UNL     1      34.196 -23.322 -15.964  0.00  0.00    +0.212 C 
ATOM     14  H   UNL     1      32.335 -24.094 -16.366  0.00  0.00    +0.159 HD
ATOM     15  H   UNL     1      32.695 -23.938 -14.707  0.00  0.00    +0.159 HD
ATOM     16  H   UNL     1      35.836 -22.640 -14.936  0.00  0.00    +0.159 HD
ATOM     17  H   UNL     1      34.549 -23.168 -13.949  0.00  0.00    +0.159 HD
ENDBRANCH  10  13
ENDBRANCH   7  10
ENDBRANCH   2   7
BRANCH   1  18
ATOM     18  N   UNL     1      36.186 -18.839 -21.864  0.00  0.00    -0.311 N 
ATOM     19  H   UNL     1      37.041 -19.073 -22.291  0.00  0.00    +0.152 HD
BRANCH  18  26
ATOM     20  O   UNL     1      34.924 -19.265 -24.440  0.00  0.00    -0.270 OA
ATOM     21  N   UNL     1      33.977 -17.246 -25.220  0.00  0.00    -0.280 N 
ATOM     22  C   UNL     1      34.533 -15.840 -23.487  0.00  0.00    +0.019 C 
ATOM     23  C   UNL     1      35.039 -17.176 -23.194  0.00  0.00    +0.069 C 
ATOM     24  C   UNL     1      33.896 -15.938 -24.728  0.00  0.00    +0.051 C 
ATOM     25  C   UNL     1      34.668 -18.079 -24.335  0.00  0.00    +0.251 C 
ATOM     26  C   UNL     1      35.720 -17.591 -22.125  0.00  0.00    +0.066 C 
ATOM     27  C   UNL     1      34.580 -14.635 -22.811  0.00  0.00    +0.001 C 
ATOM     28  C   UNL     1      33.290 -14.856 -25.335  0.00  0.00    +0.015 C 
ATOM     29  C   UNL     1      33.970 -13.526 -23.409  0.00  0.00    +0.000 C 
ATOM     30  C   UNL     1      33.332 -13.636 -24.658  0.00  0.00    +0.001 C 
ATOM     31  H   UNL     1      33.596 -17.541 -26.079  0.00  0.00    +0.155 HD
ENDBRANCH  18  26
ENDBRANCH   1  18
TORSDOF 5
ENDMDL
MODEL 2
REMARK VINA RESULT:     -11.2      1.369      2.025
REMARK  Name = 5288712
REMARK  5 active torsions:
REMARK  status: ('A' for Active; 'I' for Inactive)
REMARK    1  A    between atoms: C_1  and  N_18
REMARK    2  A    between atoms: C_2  and  S_7
REMARK    3  A    between atoms: S_7  and  N_10
REMARK    4  A    between atoms: N_10  and  C_13
REMARK    5  A    between atoms: N_18  and  C_26
REMARK                            x       y       z     vdW  Elec       q    Type
REMARK                         _______ _______ _______ _____ _____    ______ ____
ROOT
ATOM      1  C   UNL     1      35.539 -19.841 -21.064  0.00  0.00    +0.048 C 
ATOM      2  C   UNL     1      34.426 -21.850 -19.471  0.00  0.00    +0.129 C 
ATOM      3  C   UNL     1      34.157 -20.040 -21.049  0.00  0.00    +0.016 C 
ATOM      4  C   UNL     1      36.363 -20.652 -20.277  0.00  0.00    +0.016 C 
ATOM      5  C   UNL     1      33.601 -21.042 -20.254  0.00  0.00    +0.022 C 
ATOM      6  C   UNL     1      35.807 -21.655 -19.483  0.00  0.00    +0.022 C 
ENDROOT
BRANCH   2   7
ATOM      7  S   UNL     1      33.730 -23.105 -18.476  0.00  0.00    +0.103 S 
ATOM      8  O   UNL     1      33.884 -24.371 -19.184  0.00  0.00    -0.146 OA
ATOM      9  O   UNL     1      32.395 -22.644 -18.116  0.00  0.00    -0.146 OA
BRANCH   7  10
ATOM     10  N   UNL     1      34.688 -23.133 -17.149  0.00  0.00    -0.093 NA
BRANCH  10  13
ATOM     11  N   UNL     1      32.982 -23.864 -15.621  0.00  0.00    -0.369 N 
ATOM     12  N   UNL     1      34.940 -22.993 -14.837  0.00  0.00    -0.369 N 
ATOM     13  C   UNL     1      34.207 -23.329 -15.950  0.00  0.00    +0.212 C 
ATOM     14  H   UNL     1      32.362 -24.146 -16.331  0.00  0.00    +0.159 HD
ATOM     15  H   UNL     1      32.727 -23.964 -14.676  0.00  0.00    +0.159 HD
ATOM     16  H   UNL     1      35.838 -22.600 -14.940  0.00  0.00    +0.159 HD
ATOM     17  H   UNL     1      34.569 -23.145 -13.939  0.00  0.00    +0.159 HD
ENDBRANCH  10  13
ENDBRANCH   7  10
ENDBRANCH   2   7
BRANCH   1  18
ATOM     18  N   UNL     1      36.100 -18.831 -21.864  0.00  0.00    -0.311 N 
ATOM     19  H   UNL     1      37.015 -18.557 -21.626  0.00  0.00    +0.152 HD
BRANCH  18  26
ATOM     20  O   UNL     1      35.342 -16.323 -20.622  0.00  0.00    -0.270 OA
ATOM     21  N   UNL     1      34.324 -14.907 -22.215  0.00  0.00    -0.280 N 
ATOM     22  C   UNL     1      34.422 -16.253 -24.077  0.00  0.00    +0.019 C 
ATOM     23  C   UNL     1      35.017 -16.961 -22.949  0.00  0.00    +0.069 C 
ATOM     24  C   UNL     1      34.018 -15.012 -23.577  0.00  0.00    +0.051 C 
ATOM     25  C   UNL     1      34.944 -16.068 -21.744  0.00  0.00    +0.251 C 
ATOM     26  C   UNL     1      35.549 -18.184 -22.922  0.00  0.00    +0.066 C 
ATOM     27  C   UNL     1      34.218 -16.579 -25.405  0.00  0.00    +0.001 C 
ATOM     28  C   UNL     1      33.404 -14.060 -24.367  0.00  0.00    +0.015 C 
ATOM     29  C   UNL     1      33.598 -15.629 -26.223  0.00  0.00    +0.000 C 
ATOM     30  C   UNL     1      33.195 -14.382 -25.710  0.00  0.00    +0.001 C 
ATOM     31  H   UNL     1      34.127 -14.117 -21.660  0.00  0.00    +0.155 HD
ENDBRANCH  18  26
ENDBRANCH   1  18
TORSDOF 5
ENDMDL
MODEL 3
REMARK VINA RESULT:     -10.9      2.590      9.430
REMARK  Name = 5288712
REMARK  5 active torsions:
REMARK  status: ('A' for Active; 'I' for Inactive)
REMARK    1  A    between atoms: C_1  and  N_18
REMARK    2  A    between atoms: C_2  and  S_7
REMARK    3  A    between atoms: S_7  and  N_10
REMARK    4  A    between atoms: N_10  and  C_13
REMARK    5  A    between atoms: N_18  and  C_26
REMARK                            x       y       z     vdW  Elec       q    Type
REMARK                         _______ _______ _______ _____ _____    ______ ____
ROOT
ATOM      1  C   UNL     1      34.473 -22.066 -19.604  0.00  0.00    +0.048 C 
ATOM      2  C   UNL     1      35.279 -19.779 -20.994  0.00  0.00    +0.129 C 
ATOM      3  C   UNL     1      33.524 -21.252 -20.227  0.00  0.00    +0.016 C 
ATOM      4  C   UNL     1      35.828 -21.731 -19.681  0.00  0.00    +0.016 C 
ATOM      5  C   UNL     1      33.927 -20.110 -20.921  0.00  0.00    +0.022 C 
ATOM      6  C   UNL     1      36.230 -20.589 -20.373  0.00  0.00    +0.022 C 
ENDROOT
BRANCH   2   7
ATOM      7  S   UNL     1      35.784 -18.350 -21.861  0.00  0.00    +0.103 S 
ATOM      8  O   UNL     1      37.198 -18.502 -22.186  0.00  0.00    -0.146 OA
ATOM      9  O   UNL     1      35.352 -17.213 -21.056  0.00  0.00    -0.146 OA
BRANCH   7  10
ATOM     10  N   UNL     1      34.923 -18.407 -23.252  0.00  0.00    -0.093 NA
BRANCH  10  13
ATOM     11  N   UNL     1      34.373 -17.403 -25.366  0.00  0.00    -0.369 N 
ATOM     12  N   UNL     1      35.398 -16.179 -23.736  0.00  0.00    -0.369 N 
ATOM     13  C   UNL     1      34.888 -17.404 -24.089  0.00  0.00    +0.212 C 
ATOM     14  H   UNL     1      33.977 -18.223 -25.738  0.00  0.00    +0.159 HD
ATOM     15  H   UNL     1      34.403 -16.581 -25.907  0.00  0.00    +0.159 HD
ATOM     16  H   UNL     1      35.796 -16.049 -22.844  0.00  0.00    +0.159 HD
ATOM     17  H   UNL     1      35.366 -15.430 -24.373  0.00  0.00    +0.159 HD
ENDBRANCH  10  13
ENDBRANCH   7  10
ENDBRANCH   2   7
BRANCH   1  18
ATOM     18  N   UNL     1      34.068 -23.217 -18.906  0.00  0.00    -0.311 N 
ATOM     19  H   UNL     1      34.559 -24.042 -19.124  0.00  0.00    +0.152 HD
BRANCH  18  26
ATOM     20  O   UNL     1      35.655 -23.318 -16.482  0.00  0.00    -0.270 OA
ATOM     21  N   UNL     1      34.244 -23.538 -14.600  0.00  0.00    -0.280 N 
ATOM     22  C   UNL     1      32.190 -23.570 -15.635  0.00  0.00    +0.019 C 
ATOM     23  C   UNL     1      33.229 -23.435 -16.649  0.00  0.00    +0.069 C 
ATOM     24  C   UNL     1      32.860 -23.628 -14.409  0.00  0.00    +0.051 C 
ATOM     25  C   UNL     1      34.561 -23.416 -15.957  0.00  0.00    +0.251 C 
ATOM     26  C   UNL     1      33.091 -23.342 -17.973  0.00  0.00    +0.066 C 
ATOM     27  C   UNL     1      30.810 -23.642 -15.688  0.00  0.00    +0.001 C 
ATOM     28  C   UNL     1      32.193 -23.757 -13.207  0.00  0.00    +0.015 C 
ATOM     29  C   UNL     1      30.115 -23.773 -14.481  0.00  0.00    +0.000 C 
ATOM     30  C   UNL     1      30.799 -23.830 -13.253  0.00  0.00    +0.001 C 
ATOM     31  H   UNL     1      34.908 -23.558 -13.873  0.00  0.00    +0.155 HD
ENDBRANCH  18  26
ENDBRANCH   1  18
TORSDOF 5
ENDMDL
MODEL 4
REMARK VINA RESULT:     -10.9      3.734      6.172
REMARK  Name = 5288712
REMARK  5 active torsions:
REMARK  status: ('A' for Active; 'I' for Inactive)
REMARK    1  A    between atoms: C_1  and  N_18
REMARK    2  A    between atoms: C_2  and  S_7
REMARK    3  A    between atoms: S_7  and  N_10
REMARK    4  A    between atoms: N_10  and  C_13
REMARK    5  A    between atoms: N_18  and  C_26
REMARK                            x       y       z     vdW  Elec       q    Type
REMARK                         _______ _______ _______ _____ _____    ______ ____
ROOT
ATOM      1  C   UNL     1      35.577 -23.101 -16.371  0.00  0.00    +0.048 C 
ATOM      2  C   UNL     1      36.388 -23.576 -13.739  0.00  0.00    +0.129 C 
ATOM      3  C   UNL     1      34.708 -23.719 -15.469  0.00  0.00    +0.016 C 
ATOM      4  C   UNL     1      36.854 -22.720 -15.949  0.00  0.00    +0.016 C 
ATOM      5  C   UNL     1      35.112 -23.957 -14.155  0.00  0.00    +0.022 C 
ATOM      6  C   UNL     1      37.260 -22.958 -14.636  0.00  0.00    +0.022 C 
ENDROOT
BRANCH   2   7
ATOM      7  S   UNL     1      36.895 -23.874 -12.095  0.00  0.00    +0.103 S 
ATOM      8  O   UNL     1      35.842 -24.637 -11.434  0.00  0.00    -0.146 OA
ATOM      9  O   UNL     1      37.289 -22.579 -11.551  0.00  0.00    -0.146 OA
BRANCH   7  10
ATOM     10  N   UNL     1      38.210 -24.835 -12.254  0.00  0.00    -0.093 NA
BRANCH  10  13
ATOM     11  N   UNL     1      37.115 -26.859 -12.948  0.00  0.00    -0.369 N 
ATOM     12  N   UNL     1      39.244 -26.403 -13.633  0.00  0.00    -0.369 N 
ATOM     13  C   UNL     1      38.166 -25.972 -12.898  0.00  0.00    +0.212 C 
ATOM     14  H   UNL     1      36.282 -26.665 -12.461  0.00  0.00    +0.159 HD
ATOM     15  H   UNL     1      37.198 -27.690 -13.469  0.00  0.00    +0.159 HD
ATOM     16  H   UNL     1      40.061 -25.854 -13.678  0.00  0.00    +0.159 HD
ATOM     17  H   UNL     1      39.200 -27.260 -14.114  0.00  0.00    +0.159 HD
ENDBRANCH  10  13
ENDBRANCH   7  10
ENDBRANCH   2   7
BRANCH   1  18
ATOM     18  N   UNL     1      35.169 -22.861 -17.694  0.00  0.00    -0.311 N 
ATOM     19  H   UNL     1      34.409 -23.400 -18.010  0.00  0.00    +0.152 HD
BRANCH  18  26
ATOM     20  O   UNL     1      32.782 -22.161 -19.184  0.00  0.00    -0.270 OA
ATOM     21  N   UNL     1      33.316 -20.606 -20.881  0.00  0.00    -0.280 N 
ATOM     22  C   UNL     1      35.577 -20.378 -20.528  0.00  0.00    +0.019 C 
ATOM     23  C   UNL     1      35.038 -21.322 -19.555  0.00  0.00    +0.069 C 
ATOM     24  C   UNL     1      34.489 -19.973 -21.307  0.00  0.00    +0.051 C 
ATOM     25  C   UNL     1      33.563 -21.459 -19.800  0.00  0.00    +0.251 C 
ATOM     26  C   UNL     1      35.683 -21.984 -18.593  0.00  0.00    +0.066 C 
ATOM     27  C   UNL     1      36.843 -19.881 -20.771  0.00  0.00    +0.001 C 
ATOM     28  C   UNL     1      34.618 -19.071 -22.344  0.00  0.00    +0.015 C 
ATOM     29  C   UNL     1      36.996 -18.964 -21.817  0.00  0.00    +0.000 C 
ATOM     30  C   UNL     1      35.895 -18.563 -22.596  0.00  0.00    +0.001 C 
ATOM     31  H   UNL     1      32.430 -20.467 -21.289  0.00  0.00    +0.155 HD
ENDBRANCH  18  26
ENDBRANCH   1  18
TORSDOF 5
ENDMDL
MODEL 5
REMARK VINA RESULT:     -10.2      4.093      6.532
REMARK  Name = 5288712
REMARK  5 active torsions:
REMARK  status: ('A' for Active; 'I' for Inactive)
REMARK    1  A    between atoms: C_1  and  N_18
REMARK    2  A    between atoms: C_2  and  S_7
REMARK    3  A    between atoms: S_7  and  N_10
REMARK    4  A    between atoms: N_10  and  C_13
REMARK    5  A    between atoms: N_18  and  C_26
REMARK                            x       y       z     vdW  Elec       q    Type
REMARK                         _______ _______ _______ _____ _____    ______ ____
ROOT
ATOM      1  C   UNL     1      33.952 -14.621 -23.692  0.00  0.00    +0.048 C 
ATOM      2  C   UNL     1      35.181 -16.856 -22.547  0.00  0.00    +0.129 C 
ATOM      3  C   UNL     1      34.344 -14.598 -22.351  0.00  0.00    +0.016 C 
ATOM      4  C   UNL     1      34.178 -15.769 -24.458  0.00  0.00    +0.016 C 
ATOM      5  C   UNL     1      34.958 -15.712 -21.780  0.00  0.00    +0.022 C 
ATOM      6  C   UNL     1      34.791 -16.884 -23.886  0.00  0.00    +0.022 C 
ENDROOT
BRANCH   2   7
ATOM      7  S   UNL     1      35.949 -18.252 -21.833  0.00  0.00    +0.103 S 
ATOM      8  O   UNL     1      36.109 -17.992 -20.406  0.00  0.00    -0.146 OA
ATOM      9  O   UNL     1      37.127 -18.528 -22.646  0.00  0.00    -0.146 OA
BRANCH   7  10
ATOM     10  N   UNL     1      34.847 -19.448 -22.021  0.00  0.00    -0.093 NA
BRANCH  10  13
ATOM     11  N   UNL     1      33.195 -20.571 -20.685  0.00  0.00    -0.369 N 
ATOM     12  N   UNL     1      35.413 -20.772 -20.189  0.00  0.00    -0.369 N 
ATOM     13  C   UNL     1      34.479 -20.216 -21.029  0.00  0.00    +0.212 C 
ATOM     14  H   UNL     1      32.433 -20.236 -21.210  0.00  0.00    +0.159 HD
ATOM     15  H   UNL     1      33.038 -21.159 -19.911  0.00  0.00    +0.159 HD
ATOM     16  H   UNL     1      36.372 -20.594 -20.332  0.00  0.00    +0.159 HD
ATOM     17  H   UNL     1      35.125 -21.349 -19.446  0.00  0.00    +0.159 HD
ENDBRANCH  10  13
ENDBRANCH   7  10
ENDBRANCH   2   7
BRANCH   1  18
ATOM     18  N   UNL     1      33.334 -13.498 -24.268  0.00  0.00    -0.311 N 
ATOM     19  H   UNL     1      32.519 -13.681 -24.788  0.00  0.00    +0.152 HD
BRANCH  18  26
ATOM     20  O   UNL     1      31.544 -12.526 -22.205  0.00  0.00    -0.270 OA
ATOM     21  N   UNL     1      31.932 -10.228 -21.816  0.00  0.00    -0.280 N 
ATOM     22  C   UNL     1      33.620  -9.839 -23.329  0.00  0.00    +0.019 C 
ATOM     23  C   UNL     1      33.225 -11.241 -23.410  0.00  0.00    +0.069 C 
ATOM     24  C   UNL     1      32.804  -9.270 -22.346  0.00  0.00    +0.051 C 
ATOM     25  C   UNL     1      32.123 -11.476 -22.417  0.00  0.00    +0.251 C 
ATOM     26  C   UNL     1      33.712 -12.197 -24.202  0.00  0.00    +0.066 C 
ATOM     27  C   UNL     1      34.562  -9.075 -23.992  0.00  0.00    +0.001 C 
ATOM     28  C   UNL     1      32.894  -7.939 -21.990  0.00  0.00    +0.015 C 
ATOM     29  C   UNL     1      34.670  -7.724 -23.647  0.00  0.00    +0.000 C 
ATOM     30  C   UNL     1      33.843  -7.161 -22.656  0.00  0.00    +0.001 C 
ATOM     31  H   UNL     1      31.269 -10.046 -21.111  0.00  0.00    +0.155 HD
ENDBRANCH  18  26
ENDBRANCH   1  18
TORSDOF 5
ENDMDL
MODEL 6
REMARK VINA RESULT:     -10.1      6.606     10.851
REMARK  Name = 5288712
REMARK  5 active torsions:
REMARK  status: ('A' for Active; 'I' for Inactive)
REMARK    1  A    between atoms: C_1  and  N_18
REMARK    2  A    between atoms: C_2  and  S_7
REMARK    3  A    between atoms: S_7  and  N_10
REMARK    4  A    between atoms: N_10  and  C_13
REMARK    5  A    between atoms: N_18  and  C_26
REMARK                            x       y       z     vdW  Elec       q    Type
REMARK                         _______ _______ _______ _____ _____    ______ ____
ROOT
ATOM      1  C   UNL     1      33.738 -12.170 -24.073  0.00  0.00    +0.048 C 
ATOM      2  C   UNL     1      33.537  -9.440 -23.507  0.00  0.00    +0.129 C 
ATOM      3  C   UNL     1      32.812 -11.714 -23.132  0.00  0.00    +0.016 C 
ATOM      4  C   UNL     1      34.563 -11.253 -24.731  0.00  0.00    +0.016 C 
ATOM      5  C   UNL     1      32.711 -10.351 -22.849  0.00  0.00    +0.022 C 
ATOM      6  C   UNL     1      34.463  -9.890 -24.448  0.00  0.00    +0.022 C 
ENDROOT
BRANCH   2   7
ATOM      7  S   UNL     1      33.412  -7.734 -23.154  0.00  0.00    +0.103 S 
ATOM      8  O   UNL     1      32.895  -7.069 -24.344  0.00  0.00    -0.146 OA
ATOM      9  O   UNL     1      34.708  -7.335 -22.617  0.00  0.00    -0.146 OA
BRANCH   7  10
ATOM     10  N   UNL     1      32.274  -7.656 -21.980  0.00  0.00    -0.093 NA
BRANCH  10  13
ATOM     11  N   UNL     1      32.033  -5.732 -20.560  0.00  0.00    -0.369 N 
ATOM     12  N   UNL     1      33.176  -7.568 -19.834  0.00  0.00    -0.369 N 
ATOM     13  C   UNL     1      32.469  -7.001 -20.866  0.00  0.00    +0.212 C 
ATOM     14  H   UNL     1      31.513  -5.217 -21.218  0.00  0.00    +0.159 HD
ATOM     15  H   UNL     1      32.242  -5.339 -19.682  0.00  0.00    +0.159 HD
ATOM     16  H   UNL     1      33.542  -8.478 -19.930  0.00  0.00    +0.159 HD
ATOM     17  H   UNL     1      33.317  -7.067 -18.999  0.00  0.00    +0.159 HD
ENDBRANCH  10  13
ENDBRANCH   7  10
ENDBRANCH   2   7
BRANCH   1  18
ATOM     18  N   UNL     1      33.839 -13.542 -24.358  0.00  0.00    -0.311 N 
ATOM     19  H   UNL     1      33.550 -13.812 -25.260  0.00  0.00    +0.152 HD
BRANCH  18  26
ATOM     20  O   UNL     1      33.659 -15.796 -26.173  0.00  0.00    -0.270 OA
ATOM     21  N   UNL     1      34.374 -17.768 -25.085  0.00  0.00    -0.280 N 
ATOM     22  C   UNL     1      34.895 -16.922 -23.011  0.00  0.00    +0.019 C 
ATOM     23  C   UNL     1      34.420 -15.835 -23.860  0.00  0.00    +0.069 C 
ATOM     24  C   UNL     1      34.847 -18.073 -23.804  0.00  0.00    +0.051 C 
ATOM     25  C   UNL     1      34.085 -16.405 -25.209  0.00  0.00    +0.251 C 
ATOM     26  C   UNL     1      34.282 -14.544 -23.558  0.00  0.00    +0.066 C 
ATOM     27  C   UNL     1      35.331 -16.985 -21.701  0.00  0.00    +0.001 C 
ATOM     28  C   UNL     1      35.227 -19.313 -23.330  0.00  0.00    +0.015 C 
ATOM     29  C   UNL     1      35.722 -18.232 -21.201  0.00  0.00    +0.000 C 
ATOM     30  C   UNL     1      35.670 -19.385 -22.008  0.00  0.00    +0.001 C 
ATOM     31  H   UNL     1      34.260 -18.428 -25.807  0.00  0.00    +0.155 HD
ENDBRANCH  18  26
ENDBRANCH   1  18
TORSDOF 5
ENDMDL
MODEL 7
REMARK VINA RESULT:      -9.9      2.503      9.570
REMARK  Name = 5288712
REMARK  5 active torsions:
REMARK  status: ('A' for Active; 'I' for Inactive)
REMARK    1  A    between atoms: C_1  and  N_18
REMARK    2  A    between atoms: C_2  and  S_7
REMARK    3  A    between atoms: S_7  and  N_10
REMARK    4  A    between atoms: N_10  and  C_13
REMARK    5  A    between atoms: N_18  and  C_26
REMARK                            x       y       z     vdW  Elec       q    Type
REMARK                         _______ _______ _______ _____ _____    ______ ____
ROOT
ATOM      1  C   UNL     1      34.166 -21.873 -19.680  0.00  0.00    +0.048 C 
ATOM      2  C   UNL     1      35.047 -19.716 -21.225  0.00  0.00    +0.129 C 
ATOM      3  C   UNL     1      35.532 -21.602 -19.794  0.00  0.00    +0.016 C 
ATOM      4  C   UNL     1      33.243 -21.059 -20.343  0.00  0.00    +0.016 C 
ATOM      5  C   UNL     1      35.971 -20.525 -20.565  0.00  0.00    +0.022 C 
ATOM      6  C   UNL     1      33.682 -19.983 -21.114  0.00  0.00    +0.022 C 
ENDROOT
BRANCH   2   7
ATOM      7  S   UNL     1      35.597 -18.369 -22.190  0.00  0.00    +0.103 S 
ATOM      8  O   UNL     1      37.006 -18.587 -22.499  0.00  0.00    -0.146 OA
ATOM      9  O   UNL     1      35.200 -17.165 -21.470  0.00  0.00    -0.146 OA
BRANCH   7  10
ATOM     10  N   UNL     1      34.737 -18.499 -23.577  0.00  0.00    -0.093 NA
BRANCH  10  13
ATOM     11  N   UNL     1      33.812 -17.440 -25.527  0.00  0.00    -0.369 N 
ATOM     12  N   UNL     1      35.415 -16.388 -24.290  0.00  0.00    -0.369 N 
ATOM     13  C   UNL     1      34.641 -17.513 -24.429  0.00  0.00    +0.212 C 
ATOM     14  H   UNL     1      33.206 -18.187 -25.737  0.00  0.00    +0.159 HD
ATOM     15  H   UNL     1      33.828 -16.641 -26.101  0.00  0.00    +0.159 HD
ATOM     16  H   UNL     1      36.051 -16.317 -23.540  0.00  0.00    +0.159 HD
ATOM     17  H   UNL     1      35.335 -15.651 -24.937  0.00  0.00    +0.159 HD
ENDBRANCH  10  13
ENDBRANCH   7  10
ENDBRANCH   2   7
BRANCH   1  18
ATOM     18  N   UNL     1      33.723 -22.957 -18.904  0.00  0.00    -0.311 N 
ATOM     19  H   UNL     1      32.995 -23.492 -19.295  0.00  0.00    +0.152 HD
BRANCH  18  26
ATOM     20  O   UNL     1      31.285 -22.738 -17.349  0.00  0.00    -0.270 OA
ATOM     21  N   UNL     1      31.691 -23.388 -15.114  0.00  0.00    -0.280 N 
ATOM     22  C   UNL     1      33.928 -23.907 -15.242  0.00  0.00    +0.019 C 
ATOM     23  C   UNL     1      33.467 -23.471 -16.555  0.00  0.00    +0.069 C 
ATOM     24  C   UNL     1      32.810 -23.838 -14.404  0.00  0.00    +0.051 C 
ATOM     25  C   UNL     1      32.007 -23.137 -16.453  0.00  0.00    +0.251 C 
ATOM     26  C   UNL     1      34.164 -23.364 -17.687  0.00  0.00    +0.066 C 
ATOM     27  C   UNL     1      35.150 -24.327 -14.753  0.00  0.00    +0.001 C 
ATOM     28  C   UNL     1      32.865 -24.180 -13.068  0.00  0.00    +0.015 C 
ATOM     29  C   UNL     1      35.228 -24.679 -13.401  0.00  0.00    +0.000 C 
ATOM     30  C   UNL     1      34.098 -24.605 -12.566  0.00  0.00    +0.001 C 
ATOM     31  H   UNL     1      30.796 -23.264 -14.721  0.00  0.00    +0.155 HD
ENDBRANCH  18  26
ENDBRANCH   1  18
TORSDOF 5
ENDMDL
MODEL 8
REMARK VINA RESULT:      -9.8      4.264      6.663
REMARK  Name = 5288712
REMARK  5 active torsions:
REMARK  status: ('A' for Active; 'I' for Inactive)
REMARK    1  A    between atoms: C_1  and  N_18
REMARK    2  A    between atoms: C_2  and  S_7
REMARK    3  A    between atoms: S_7  and  N_10
REMARK    4  A    between atoms: N_10  and  C_13
REMARK    5  A    between atoms: N_18  and  C_26
REMARK                            x       y       z     vdW  Elec       q    Type
REMARK                         _______ _______ _______ _____ _____    ______ ____
ROOT
ATOM      1  C   UNL     1      34.046 -14.410 -23.482  0.00  0.00    +0.048 C 
ATOM      2  C   UNL     1      35.147 -16.774 -22.474  0.00  0.00    +0.129 C 
ATOM      3  C   UNL     1      34.406 -14.499 -22.135  0.00  0.00    +0.016 C 
ATOM      4  C   UNL     1      34.240 -15.510 -24.323  0.00  0.00    +0.016 C 
ATOM      5  C   UNL     1      34.956 -15.678 -21.632  0.00  0.00    +0.022 C 
ATOM      6  C   UNL     1      34.789 -16.690 -23.820  0.00  0.00    +0.022 C 
ENDROOT
BRANCH   2   7
ATOM      7  S   UNL     1      35.834 -18.251 -21.845  0.00  0.00    +0.103 S 
ATOM      8  O   UNL     1      36.095 -18.051 -20.423  0.00  0.00    -0.146 OA
ATOM      9  O   UNL     1      36.937 -18.596 -22.734  0.00  0.00    -0.146 OA
BRANCH   7  10
ATOM     10  N   UNL     1      34.628 -19.346 -22.001  0.00  0.00    -0.093 NA
BRANCH  10  13
ATOM     11  N   UNL     1      33.044 -20.581 -20.681  0.00  0.00    -0.369 N 
ATOM     12  N   UNL     1      35.279 -20.734 -20.248  0.00  0.00    -0.369 N 
ATOM     13  C   UNL     1      34.308 -20.170 -21.039  0.00  0.00    +0.212 C 
ATOM     14  H   UNL     1      32.259 -20.247 -21.172  0.00  0.00    +0.159 HD
ATOM     15  H   UNL     1      32.925 -21.209 -19.932  0.00  0.00    +0.159 HD
ATOM     16  H   UNL     1      36.228 -20.519 -20.404  0.00  0.00    +0.159 HD
ATOM     17  H   UNL     1      35.028 -21.353 -19.526  0.00  0.00    +0.159 HD
ENDBRANCH  10  13
ENDBRANCH   7  10
ENDBRANCH   2   7
BRANCH   1  18
ATOM     18  N   UNL     1      33.494 -13.222 -23.989  0.00  0.00    -0.311 N 
ATOM     19  H   UNL     1      33.399 -13.181 -24.968  0.00  0.00    +0.152 HD
BRANCH  18  26
ATOM     20  O   UNL     1      35.088 -11.160 -25.260  0.00  0.00    -0.270 OA
ATOM     21  N   UNL     1      34.602  -9.057 -24.301  0.00  0.00    -0.280 N 
ATOM     22  C   UNL     1      33.024  -9.674 -22.746  0.00  0.00    +0.019 C 
ATOM     23  C   UNL     1      33.467 -10.861 -23.468  0.00  0.00    +0.069 C 
ATOM     24  C   UNL     1      33.744  -8.606 -23.291  0.00  0.00    +0.051 C 
ATOM     25  C   UNL     1      34.496 -10.440 -24.477  0.00  0.00    +0.251 C 
ATOM     26  C   UNL     1      33.073 -12.126 -23.310  0.00  0.00    +0.066 C 
ATOM     27  C   UNL     1      32.113  -9.464 -21.728  0.00  0.00    +0.001 C 
ATOM     28  C   UNL     1      33.586  -7.307 -22.851  0.00  0.00    +0.015 C 
ATOM     29  C   UNL     1      31.938  -8.154 -21.267  0.00  0.00    +0.000 C 
ATOM     30  C   UNL     1      32.667  -7.087 -21.822  0.00  0.00    +0.001 C 
ATOM     31  H   UNL     1      35.202  -8.474 -24.821  0.00  0.00    +0.155 HD
ENDBRANCH  18  26
ENDBRANCH   1  18
TORSDOF 5
ENDMDL
MODEL 9
REMARK VINA RESULT:      -9.8      2.389      9.696
REMARK  Name = 5288712
REMARK  5 active torsions:
REMARK  status: ('A' for Active; 'I' for Inactive)
REMARK    1  A    between atoms: C_1  and  N_18
REMARK    2  A    between atoms: C_2  and  S_7
REMARK    3  A    between atoms: S_7  and  N_10
REMARK    4  A    between atoms: N_10  and  C_13
REMARK    5  A    between atoms: N_18  and  C_26
REMARK                            x       y       z     vdW  Elec       q    Type
REMARK                         _______ _______ _______ _____ _____    ______ ____
ROOT
ATOM      1  C   UNL     1      34.376 -21.844 -19.336  0.00  0.00    +0.048 C 
ATOM      2  C   UNL     1      35.096 -19.935 -21.247  0.00  0.00    +0.129 C 
ATOM      3  C   UNL     1      35.723 -21.560 -19.572  0.00  0.00    +0.016 C 
ATOM      4  C   UNL     1      33.390 -21.168 -20.061  0.00  0.00    +0.016 C 
ATOM      5  C   UNL     1      36.083 -20.607 -20.526  0.00  0.00    +0.022 C 
ATOM      6  C   UNL     1      33.749 -20.216 -21.016  0.00  0.00    +0.022 C 
ENDROOT
BRANCH   2   7
ATOM      7  S   UNL     1      35.546 -18.744 -22.442  0.00  0.00    +0.103 S 
ATOM      8  O   UNL     1      34.755 -18.995 -23.642  0.00  0.00    -0.146 OA
ATOM      9  O   UNL     1      37.001 -18.779 -22.523  0.00  0.00    -0.146 OA
BRANCH   7  10
ATOM     10  N   UNL     1      35.057 -17.325 -21.788  0.00  0.00    -0.093 NA
BRANCH  10  13
ATOM     11  N   UNL     1      34.688 -14.961 -22.022  0.00  0.00    -0.369 N 
ATOM     12  N   UNL     1      35.434 -16.196 -23.790  0.00  0.00    -0.369 N 
ATOM     13  C   UNL     1      35.051 -16.211 -22.471  0.00  0.00    +0.212 C 
ATOM     14  H   UNL     1      34.393 -14.839 -21.091  0.00  0.00    +0.159 HD
ATOM     15  H   UNL     1      34.723 -14.190 -22.633  0.00  0.00    +0.159 HD
ATOM     16  H   UNL     1      35.718 -17.030 -24.230  0.00  0.00    +0.159 HD
ATOM     17  H   UNL     1      35.426 -15.351 -24.296  0.00  0.00    +0.159 HD
ENDBRANCH  10  13
ENDBRANCH   7  10
ENDBRANCH   2   7
BRANCH   1  18
ATOM     18  N   UNL     1      34.013 -22.802 -18.375  0.00  0.00    -0.311 N 
ATOM     19  H   UNL     1      33.166 -23.275 -18.543  0.00  0.00    +0.152 HD
BRANCH  18  26
ATOM     20  O   UNL     1      31.788 -23.257 -16.572  0.00  0.00    -0.270 OA
ATOM     21  N   UNL     1      32.590 -23.922 -14.451  0.00  0.00    -0.280 N 
ATOM     22  C   UNL     1      34.856 -23.890 -14.845  0.00  0.00    +0.019 C 
ATOM     23  C   UNL     1      34.157 -23.500 -16.064  0.00  0.00    +0.069 C 
ATOM     24  C   UNL     1      33.858 -24.136 -13.897  0.00  0.00    +0.051 C 
ATOM     25  C   UNL     1      32.682 -23.526 -15.789  0.00  0.00    +0.251 C 
ATOM     26  C   UNL     1      34.675 -23.165 -17.247  0.00  0.00    +0.066 C 
ATOM     27  C   UNL     1      36.191 -24.037 -14.518  0.00  0.00    +0.001 C 
ATOM     28  C   UNL     1      34.145 -24.532 -12.606  0.00  0.00    +0.015 C 
ATOM     29  C   UNL     1      36.504 -24.439 -13.215  0.00  0.00    +0.000 C 
ATOM     30  C   UNL     1      35.492 -24.684 -12.268  0.00  0.00    +0.001 C 
ATOM     31  H   UNL     1      31.743 -24.037 -13.961  0.00  0.00    +0.155 HD
ENDBRANCH  18  26
ENDBRANCH   1  18
TORSDOF 5
ENDMDL
