MODEL 1
REMARK VINA RESULT:     -10.9      0.000      0.000
REMARK  Name = 24771824
REMARK  4 active torsions:
REMARK  status: ('A' for Active; 'I' for Inactive)
REMARK    1  A    between atoms: C_11  and  C_18
REMARK    2  A    between atoms: C_21  and  O_24
REMARK    3  A    between atoms: O_24  and  C_26
REMARK    4  A    between atoms: C_28  and  C_34
REMARK                            x       y       z     vdW  Elec       q    Type
REMARK                         _______ _______ _______ _____ _____    ______ ____
ROOT
ATOM      1  O   UNL     1      33.693 -23.658 -16.897  0.00  0.00    -0.252 OA
ATOM      2  N   UNL     1      33.765 -21.991 -18.500  0.00  0.00    -0.263 N 
ATOM      3  N   UNL     1      31.700 -22.715 -17.614  0.00  0.00    -0.252 N 
ATOM      4  N   UNL     1      31.214 -24.355 -15.952  0.00  0.00    -0.133 NA
ATOM      5  N   UNL     1      30.318 -25.037 -15.189  0.00  0.00    -0.145 NA
ATOM      6  C   UNL     1      35.735 -22.199 -19.995  0.00  0.00    +0.044 C 
ATOM      7  C   UNL     1      33.620 -21.081 -20.811  0.00  0.00    +0.044 C 
ATOM      8  C   UNL     1      35.233 -22.037 -18.562  0.00  0.00    +0.099 C 
ATOM      9  C   UNL     1      33.138 -20.969 -19.360  0.00  0.00    +0.099 C 
ATOM     10  C   UNL     1      35.122 -21.145 -20.877  0.00  0.00    -0.041 C 
ATOM     11  C   UNL     1      35.852 -20.318 -21.639  0.00  0.00    -0.008 C 
ATOM     12  C   UNL     1      33.086 -22.861 -17.617  0.00  0.00    +0.309 C 
ATOM     13  C   UNL     1      30.763 -23.423 -16.820  0.00  0.00    +0.157 C 
ATOM     14  C   UNL     1      29.424 -23.125 -16.973  0.00  0.00    +0.038 C 
ATOM     15  C   UNL     1      28.513 -23.819 -16.195  0.00  0.00    +0.025 C 
ATOM     16  C   UNL     1      29.003 -24.766 -15.317  0.00  0.00    +0.122 C 
ATOM     17  H   UNL     1      31.329 -22.045 -18.234  0.00  0.00    +0.158 HD
ENDROOT
BRANCH  11  18
ATOM     18  C   UNL     1      35.319 -19.269 -22.522  0.00  0.00    +0.002 C 
ATOM     19  C   UNL     1      35.714 -17.943 -22.345  0.00  0.00    +0.038 C 
ATOM     20  C   UNL     1      34.419 -19.599 -23.535  0.00  0.00    +0.000 C 
ATOM     21  C   UNL     1      35.210 -16.947 -23.183  0.00  0.00    +0.147 C 
ATOM     22  C   UNL     1      33.915 -18.605 -24.372  0.00  0.00    +0.003 C 
ATOM     23  C   UNL     1      34.311 -17.278 -24.196  0.00  0.00    +0.038 C 
BRANCH  21  24
ATOM     24  O   UNL     1      35.596 -15.654 -23.010  0.00  0.00    -0.436 OA
BRANCH  24  26
ATOM     25  N   UNL     1      34.232 -13.831 -23.519  0.00  0.00    -0.210 NA
ATOM     26  C   UNL     1      34.634 -14.743 -22.606  0.00  0.00    +0.230 C 
ATOM     27  C   UNL     1      34.143 -14.815 -21.313  0.00  0.00    +0.058 C 
ATOM     28  C   UNL     1      32.738 -12.936 -21.843  0.00  0.00    +0.091 C 
ATOM     29  C   UNL     1      33.177 -13.890 -20.931  0.00  0.00    +0.010 C 
ATOM     30  C   UNL     1      33.292 -12.949 -23.113  0.00  0.00    +0.106 C 
BRANCH  28  34
ATOM     31  F   UNL     1      31.852 -10.728 -22.097  0.00  0.00    -0.166 F 
ATOM     32  F   UNL     1      30.428 -12.325 -21.740  0.00  0.00    -0.166 F 
ATOM     33  F   UNL     1      31.718 -11.643 -20.129  0.00  0.00    -0.166 F 
ATOM     34  C   UNL     1      31.708 -11.932 -21.464  0.00  0.00    +0.420 C 
ENDBRANCH  28  34
ENDBRANCH  24  26
ENDBRANCH  21  24
ENDBRANCH  11  18
TORSDOF 4
ENDMDL
MODEL 2
REMARK VINA RESULT:     -10.9      5.609     12.510
REMARK  Name = 24771824
REMARK  4 active torsions:
REMARK  status: ('A' for Active; 'I' for Inactive)
REMARK    1  A    between atoms: C_11  and  C_18
REMARK    2  A    between atoms: C_21  and  O_24
REMARK    3  A    between atoms: O_24  and  C_26
REMARK    4  A    between atoms: C_28  and  C_34
REMARK                            x       y       z     vdW  Elec       q    Type
REMARK                         _______ _______ _______ _____ _____    ______ ____
ROOT
ATOM      1  O   UNL     1      31.707  -7.202 -21.122  0.00  0.00    -0.252 OA
ATOM      2  N   UNL     1      32.574  -9.167 -21.981  0.00  0.00    -0.263 N 
ATOM      3  N   UNL     1      32.511  -7.208 -23.297  0.00  0.00    -0.252 N 
ATOM      4  N   UNL     1      31.742  -5.012 -22.775  0.00  0.00    -0.133 NA
ATOM      5  N   UNL     1      31.532  -3.716 -23.130  0.00  0.00    -0.145 NA
ATOM      6  C   UNL     1      31.557 -11.182 -20.948  0.00  0.00    +0.044 C 
ATOM      7  C   UNL     1      32.495 -11.279 -23.293  0.00  0.00    +0.044 C 
ATOM      8  C   UNL     1      32.336  -9.888 -20.722  0.00  0.00    +0.099 C 
ATOM      9  C   UNL     1      33.233  -9.961 -23.036  0.00  0.00    +0.099 C 
ATOM     10  C   UNL     1      32.234 -12.012 -22.004  0.00  0.00    -0.041 C 
ATOM     11  C   UNL     1      32.597 -13.288 -21.807  0.00  0.00    -0.008 C 
ATOM     12  C   UNL     1      32.215  -7.803 -22.072  0.00  0.00    +0.309 C 
ATOM     13  C   UNL     1      32.295  -5.858 -23.671  0.00  0.00    +0.157 C 
ATOM     14  C   UNL     1      32.662  -5.469 -24.943  0.00  0.00    +0.038 C 
ATOM     15  C   UNL     1      32.449  -4.150 -25.304  0.00  0.00    +0.025 C 
ATOM     16  C   UNL     1      31.881  -3.308 -24.368  0.00  0.00    +0.122 C 
ATOM     17  H   UNL     1      32.916  -7.791 -23.980  0.00  0.00    +0.158 HD
ENDROOT
BRANCH  11  18
ATOM     18  C   UNL     1      33.261 -14.154 -22.794  0.00  0.00    +0.002 C 
ATOM     19  C   UNL     1      34.340 -14.949 -22.407  0.00  0.00    +0.038 C 
ATOM     20  C   UNL     1      32.811 -14.181 -24.113  0.00  0.00    +0.000 C 
ATOM     21  C   UNL     1      34.969 -15.772 -23.342  0.00  0.00    +0.147 C 
ATOM     22  C   UNL     1      33.440 -15.003 -25.048  0.00  0.00    +0.003 C 
ATOM     23  C   UNL     1      34.519 -15.799 -24.662  0.00  0.00    +0.038 C 
BRANCH  21  24
ATOM     24  O   UNL     1      36.022 -16.547 -22.966  0.00  0.00    -0.436 OA
BRANCH  24  26
ATOM     25  N   UNL     1      36.540 -18.055 -21.262  0.00  0.00    -0.210 NA
ATOM     26  C   UNL     1      35.745 -17.734 -22.308  0.00  0.00    +0.230 C 
ATOM     27  C   UNL     1      34.688 -18.514 -22.746  0.00  0.00    +0.058 C 
ATOM     28  C   UNL     1      35.225 -20.065 -20.988  0.00  0.00    +0.091 C 
ATOM     29  C   UNL     1      34.429 -19.701 -22.069  0.00  0.00    +0.010 C 
ATOM     30  C   UNL     1      36.259 -19.215 -20.628  0.00  0.00    +0.106 C 
BRANCH  28  34
ATOM     31  F   UNL     1      35.325 -21.270 -18.923  0.00  0.00    -0.166 F 
ATOM     32  F   UNL     1      33.666 -21.720 -20.246  0.00  0.00    -0.166 F 
ATOM     33  F   UNL     1      35.671 -22.388 -20.755  0.00  0.00    -0.166 F 
ATOM     34  C   UNL     1      34.976 -21.329 -20.244  0.00  0.00    +0.420 C 
ENDBRANCH  28  34
ENDBRANCH  24  26
ENDBRANCH  21  24
ENDBRANCH  11  18
TORSDOF 4
ENDMDL
MODEL 3
REMARK VINA RESULT:     -10.3      7.173     14.188
REMARK  Name = 24771824
REMARK  4 active torsions:
REMARK  status: ('A' for Active; 'I' for Inactive)
REMARK    1  A    between atoms: C_11  and  C_18
REMARK    2  A    between atoms: C_21  and  O_24
REMARK    3  A    between atoms: O_24  and  C_26
REMARK    4  A    between atoms: C_28  and  C_34
REMARK                            x       y       z     vdW  Elec       q    Type
REMARK                         _______ _______ _______ _____ _____    ______ ____
ROOT
ATOM      1  O   UNL     1      32.608  -4.513 -24.468  0.00  0.00    -0.252 OA
ATOM      2  N   UNL     1      32.940  -6.676 -23.718  0.00  0.00    -0.263 N 
ATOM      3  N   UNL     1      34.358  -5.745 -25.360  0.00  0.00    -0.252 N 
ATOM      4  N   UNL     1      34.368  -3.577 -26.353  0.00  0.00    -0.133 NA
ATOM      5  N   UNL     1      34.907  -2.672 -27.213  0.00  0.00    -0.145 NA
ATOM      6  C   UNL     1      30.837  -7.746 -22.948  0.00  0.00    +0.044 C 
ATOM      7  C   UNL     1      32.742  -9.154 -23.829  0.00  0.00    +0.044 C 
ATOM      8  C   UNL     1      31.813  -6.583 -22.779  0.00  0.00    +0.099 C 
ATOM      9  C   UNL     1      33.681  -7.952 -23.675  0.00  0.00    +0.099 C 
ATOM     10  C   UNL     1      31.577  -9.053 -22.880  0.00  0.00    -0.041 C 
ATOM     11  C   UNL     1      31.244 -10.036 -22.032  0.00  0.00    -0.008 C 
ATOM     12  C   UNL     1      33.255  -5.562 -24.528  0.00  0.00    +0.309 C 
ATOM     13  C   UNL     1      34.924  -4.804 -26.256  0.00  0.00    +0.157 C 
ATOM     14  C   UNL     1      36.025  -5.189 -26.994  0.00  0.00    +0.038 C 
ATOM     15  C   UNL     1      36.574  -4.267 -27.868  0.00  0.00    +0.025 C 
ATOM     16  C   UNL     1      35.984  -3.021 -27.947  0.00  0.00    +0.122 C 
ATOM     17  H   UNL     1      34.794  -6.627 -25.320  0.00  0.00    +0.158 HD
ENDROOT
BRANCH  11  18
ATOM     18  C   UNL     1      31.923 -11.336 -21.914  0.00  0.00    +0.002 C 
ATOM     19  C   UNL     1      32.773 -11.772 -22.930  0.00  0.00    +0.038 C 
ATOM     20  C   UNL     1      31.719 -12.130 -20.787  0.00  0.00    +0.000 C 
ATOM     21  C   UNL     1      33.420 -13.003 -22.818  0.00  0.00    +0.147 C 
ATOM     22  C   UNL     1      32.364 -13.361 -20.674  0.00  0.00    +0.003 C 
ATOM     23  C   UNL     1      33.215 -13.798 -21.691  0.00  0.00    +0.038 C 
BRANCH  21  24
ATOM     24  O   UNL     1      34.249 -13.429 -23.809  0.00  0.00    -0.436 OA
BRANCH  24  26
ATOM     25  N   UNL     1      34.918 -15.638 -23.471  0.00  0.00    -0.210 NA
ATOM     26  C   UNL     1      34.176 -14.761 -24.183  0.00  0.00    +0.230 C 
ATOM     27  C   UNL     1      33.360 -15.117 -25.244  0.00  0.00    +0.058 C 
ATOM     28  C   UNL     1      34.053 -17.393 -24.890  0.00  0.00    +0.091 C 
ATOM     29  C   UNL     1      33.303 -16.460 -25.599  0.00  0.00    +0.010 C 
ATOM     30  C   UNL     1      34.838 -16.935 -23.844  0.00  0.00    +0.106 C 
BRANCH  28  34
ATOM     31  F   UNL     1      34.725 -19.635 -24.393  0.00  0.00    -0.166 F 
ATOM     32  F   UNL     1      32.756 -19.368 -25.261  0.00  0.00    -0.166 F 
ATOM     33  F   UNL     1      34.529 -19.087 -26.489  0.00  0.00    -0.166 F 
ATOM     34  C   UNL     1      34.015 -18.837 -25.247  0.00  0.00    +0.420 C 
ENDBRANCH  28  34
ENDBRANCH  24  26
ENDBRANCH  21  24
ENDBRANCH  11  18
TORSDOF 4
ENDMDL
MODEL 4
REMARK VINA RESULT:     -10.2      4.744     10.933
REMARK  Name = 24771824
REMARK  4 active torsions:
REMARK  status: ('A' for Active; 'I' for Inactive)
REMARK    1  A    between atoms: C_11  and  C_18
REMARK    2  A    between atoms: C_21  and  O_24
REMARK    3  A    between atoms: O_24  and  C_26
REMARK    4  A    between atoms: C_28  and  C_34
REMARK                            x       y       z     vdW  Elec       q    Type
REMARK                         _______ _______ _______ _____ _____    ______ ____
ROOT
ATOM      1  O   UNL     1      32.935 -12.211 -25.243  0.00  0.00    -0.252 OA
ATOM      2  N   UNL     1      33.391 -14.115 -24.011  0.00  0.00    -0.263 N 
ATOM      3  N   UNL     1      33.000 -12.053 -22.930  0.00  0.00    -0.252 N 
ATOM      4  N   UNL     1      32.473  -9.907 -23.827  0.00  0.00    -0.133 NA
ATOM      5  N   UNL     1      32.182  -8.590 -23.651  0.00  0.00    -0.145 NA
ATOM      6  C   UNL     1      34.795 -15.738 -25.259  0.00  0.00    +0.044 C 
ATOM      7  C   UNL     1      34.847 -15.676 -22.733  0.00  0.00    +0.044 C 
ATOM      8  C   UNL     1      33.491 -14.942 -25.222  0.00  0.00    +0.099 C 
ATOM      9  C   UNL     1      33.556 -14.850 -22.741  0.00  0.00    +0.099 C 
ATOM     10  C   UNL     1      34.962 -16.511 -23.980  0.00  0.00    -0.041 C 
ATOM     11  C   UNL     1      35.171 -17.835 -23.951  0.00  0.00    -0.008 C 
ATOM     12  C   UNL     1      33.104 -12.738 -24.140  0.00  0.00    +0.309 C 
ATOM     13  C   UNL     1      32.696 -10.681 -22.743  0.00  0.00    +0.157 C 
ATOM     14  C   UNL     1      32.643 -10.198 -21.451  0.00  0.00    +0.038 C 
ATOM     15  C   UNL     1      32.346  -8.858 -21.273  0.00  0.00    +0.025 C 
ATOM     16  C   UNL     1      32.123  -8.090 -22.399  0.00  0.00    +0.122 C 
ATOM     17  H   UNL     1      33.156 -12.581 -22.114  0.00  0.00    +0.158 HD
ENDROOT
BRANCH  11  18
ATOM     18  C   UNL     1      35.342 -18.651 -22.739  0.00  0.00    +0.002 C 
ATOM     19  C   UNL     1      34.296 -19.458 -22.289  0.00  0.00    +0.038 C 
ATOM     20  C   UNL     1      36.548 -18.620 -22.040  0.00  0.00    +0.000 C 
ATOM     21  C   UNL     1      34.459 -20.233 -21.141  0.00  0.00    +0.147 C 
ATOM     22  C   UNL     1      36.711 -19.394 -20.893  0.00  0.00    +0.003 C 
ATOM     23  C   UNL     1      35.665 -20.202 -20.443  0.00  0.00    +0.038 C 
BRANCH  21  24
ATOM     24  O   UNL     1      33.439 -21.020 -20.702  0.00  0.00    -0.436 OA
BRANCH  24  26
ATOM     25  N   UNL     1      32.510 -22.073 -18.839  0.00  0.00    -0.210 NA
ATOM     26  C   UNL     1      33.623 -21.712 -19.516  0.00  0.00    +0.230 C 
ATOM     27  C   UNL     1      34.913 -21.992 -19.096  0.00  0.00    +0.058 C 
ATOM     28  C   UNL     1      33.950 -23.078 -17.177  0.00  0.00    +0.091 C 
ATOM     29  C   UNL     1      35.071 -22.688 -17.902  0.00  0.00    +0.010 C 
ATOM     30  C   UNL     1      32.703 -22.748 -17.684  0.00  0.00    +0.106 C 
BRANCH  28  34
ATOM     31  F   UNL     1      32.903 -24.299 -15.406  0.00  0.00    -0.166 F 
ATOM     32  F   UNL     1      34.902 -24.916 -15.979  0.00  0.00    -0.166 F 
ATOM     33  F   UNL     1      34.611 -23.054 -14.893  0.00  0.00    -0.166 F 
ATOM     34  C   UNL     1      34.087 -23.822 -15.896  0.00  0.00    +0.420 C 
ENDBRANCH  28  34
ENDBRANCH  24  26
ENDBRANCH  21  24
ENDBRANCH  11  18
TORSDOF 4
ENDMDL
MODEL 5
REMARK VINA RESULT:     -10.1      3.270      4.301
REMARK  Name = 24771824
REMARK  4 active torsions:
REMARK  status: ('A' for Active; 'I' for Inactive)
REMARK    1  A    between atoms: C_11  and  C_18
REMARK    2  A    between atoms: C_21  and  O_24
REMARK    3  A    between atoms: O_24  and  C_26
REMARK    4  A    between atoms: C_28  and  C_34
REMARK                            x       y       z     vdW  Elec       q    Type
REMARK                         _______ _______ _______ _____ _____    ______ ____
ROOT
ATOM      1  O   UNL     1      33.736 -24.653 -15.140  0.00  0.00    -0.252 OA
ATOM      2  N   UNL     1      34.680 -23.398 -16.839  0.00  0.00    -0.263 N 
ATOM      3  N   UNL     1      35.696 -23.491 -14.710  0.00  0.00    -0.252 N 
ATOM      4  N   UNL     1      35.065 -24.677 -12.740  0.00  0.00    -0.133 NA
ATOM      5  N   UNL     1      35.290 -25.023 -11.444  0.00  0.00    -0.145 NA
ATOM      6  C   UNL     1      32.989 -22.574 -18.459  0.00  0.00    +0.044 C 
ATOM      7  C   UNL     1      35.145 -21.305 -18.101  0.00  0.00    +0.044 C 
ATOM      8  C   UNL     1      33.627 -23.789 -17.788  0.00  0.00    +0.099 C 
ATOM      9  C   UNL     1      35.736 -22.535 -17.403  0.00  0.00    +0.099 C 
ATOM     10  C   UNL     1      34.055 -21.700 -19.061  0.00  0.00    -0.041 C 
ATOM     11  C   UNL     1      34.049 -21.324 -20.348  0.00  0.00    -0.008 C 
ATOM     12  C   UNL     1      34.635 -23.898 -15.518  0.00  0.00    +0.309 C 
ATOM     13  C   UNL     1      35.934 -23.850 -13.360  0.00  0.00    +0.157 C 
ATOM     14  C   UNL     1      37.052 -23.332 -12.737  0.00  0.00    +0.038 C 
ATOM     15  C   UNL     1      37.280 -23.684 -11.418  0.00  0.00    +0.025 C 
ATOM     16  C   UNL     1      36.375 -24.531 -10.811  0.00  0.00    +0.122 C 
ATOM     17  H   UNL     1      36.353 -22.886 -15.124  0.00  0.00    +0.158 HD
ENDROOT
BRANCH  11  18
ATOM     18  C   UNL     1      35.057 -20.473 -20.999  0.00  0.00    +0.002 C 
ATOM     19  C   UNL     1      34.752 -19.823 -22.195  0.00  0.00    +0.038 C 
ATOM     20  C   UNL     1      36.316 -20.316 -20.421  0.00  0.00    +0.000 C 
ATOM     21  C   UNL     1      35.707 -19.014 -22.812  0.00  0.00    +0.147 C 
ATOM     22  C   UNL     1      37.271 -19.508 -21.038  0.00  0.00    +0.003 C 
ATOM     23  C   UNL     1      36.966 -18.857 -22.234  0.00  0.00    +0.038 C 
BRANCH  21  24
ATOM     24  O   UNL     1      35.410 -18.380 -23.978  0.00  0.00    -0.436 OA
BRANCH  24  26
ATOM     25  N   UNL     1      34.194 -16.646 -24.957  0.00  0.00    -0.210 NA
ATOM     26  C   UNL     1      34.912 -17.090 -23.901  0.00  0.00    +0.230 C 
ATOM     27  C   UNL     1      35.170 -16.337 -22.767  0.00  0.00    +0.058 C 
ATOM     28  C   UNL     1      33.914 -14.553 -23.781  0.00  0.00    +0.091 C 
ATOM     29  C   UNL     1      34.659 -15.045 -22.713  0.00  0.00    +0.010 C 
ATOM     30  C   UNL     1      33.713 -15.386 -24.870  0.00  0.00    +0.106 C 
BRANCH  28  34
ATOM     31  F   UNL     1      34.224 -12.238 -23.263  0.00  0.00    -0.166 F 
ATOM     32  F   UNL     1      32.988 -12.705 -24.984  0.00  0.00    -0.166 F 
ATOM     33  F   UNL     1      32.236 -13.073 -22.977  0.00  0.00    -0.166 F 
ATOM     34  C   UNL     1      33.356 -13.175 -23.754  0.00  0.00    +0.420 C 
ENDBRANCH  28  34
ENDBRANCH  24  26
ENDBRANCH  21  24
ENDBRANCH  11  18
TORSDOF 4
ENDMDL
MODEL 6
REMARK VINA RESULT:      -9.9      4.972      7.915
REMARK  Name = 24771824
REMARK  4 active torsions:
REMARK  status: ('A' for Active; 'I' for Inactive)
REMARK    1  A    between atoms: C_11  and  C_18
REMARK    2  A    between atoms: C_21  and  O_24
REMARK    3  A    between atoms: O_24  and  C_26
REMARK    4  A    between atoms: C_28  and  C_34
REMARK                            x       y       z     vdW  Elec       q    Type
REMARK                         _______ _______ _______ _____ _____    ______ ____
ROOT
ATOM      1  O   UNL     1      34.505 -19.222 -24.166  0.00  0.00    -0.252 OA
ATOM      2  N   UNL     1      34.726 -16.919 -24.130  0.00  0.00    -0.263 N 
ATOM      3  N   UNL     1      35.473 -18.223 -22.310  0.00  0.00    -0.252 N 
ATOM      4  N   UNL     1      35.457 -20.585 -21.983  0.00  0.00    -0.133 NA
ATOM      5  N   UNL     1      35.742 -21.677 -21.224  0.00  0.00    -0.145 NA
ATOM      6  C   UNL     1      32.979 -15.779 -25.477  0.00  0.00    +0.044 C 
ATOM      7  C   UNL     1      34.058 -14.601 -23.518  0.00  0.00    +0.044 C 
ATOM      8  C   UNL     1      34.128 -16.785 -25.467  0.00  0.00    +0.099 C 
ATOM      9  C   UNL     1      35.174 -15.652 -23.521  0.00  0.00    +0.099 C 
ATOM     10  C   UNL     1      33.433 -14.475 -24.881  0.00  0.00    -0.041 C 
ATOM     11  C   UNL     1      33.312 -13.302 -25.519  0.00  0.00    -0.008 C 
ATOM     12  C   UNL     1      34.868 -18.206 -23.566  0.00  0.00    +0.309 C 
ATOM     13  C   UNL     1      35.773 -19.358 -21.516  0.00  0.00    +0.157 C 
ATOM     14  C   UNL     1      36.377 -19.154 -20.292  0.00  0.00    +0.038 C 
ATOM     15  C   UNL     1      36.668 -20.265 -19.520  0.00  0.00    +0.025 C 
ATOM     16  C   UNL     1      36.333 -21.507 -20.023  0.00  0.00    +0.122 C 
ATOM     17  H   UNL     1      35.720 -17.348 -21.932  0.00  0.00    +0.158 HD
ENDROOT
BRANCH  11  18
ATOM     18  C   UNL     1      33.734 -11.993 -24.996  0.00  0.00    +0.002 C 
ATOM     19  C   UNL     1      33.064 -11.428 -23.911  0.00  0.00    +0.038 C 
ATOM     20  C   UNL     1      34.802 -11.317 -25.585  0.00  0.00    +0.000 C 
ATOM     21  C   UNL     1      33.465 -10.188 -23.413  0.00  0.00    +0.147 C 
ATOM     22  C   UNL     1      35.202 -10.077 -25.088  0.00  0.00    +0.003 C 
ATOM     23  C   UNL     1      34.533  -9.512 -24.002  0.00  0.00    +0.038 C 
BRANCH  21  24
ATOM     24  O   UNL     1      32.812  -9.636 -22.354  0.00  0.00    -0.436 OA
BRANCH  24  26
ATOM     25  N   UNL     1      31.567  -8.032 -23.502  0.00  0.00    -0.210 NA
ATOM     26  C   UNL     1      32.390  -8.322 -22.470  0.00  0.00    +0.230 C 
ATOM     27  C   UNL     1      32.825  -7.393 -21.539  0.00  0.00    +0.058 C 
ATOM     28  C   UNL     1      31.539  -5.743 -22.726  0.00  0.00    +0.091 C 
ATOM     29  C   UNL     1      32.388  -6.080 -21.677  0.00  0.00    +0.010 C 
ATOM     30  C   UNL     1      31.162  -6.746 -23.603  0.00  0.00    +0.106 C 
BRANCH  28  34
ATOM     31  F   UNL     1      32.052  -3.410 -22.872  0.00  0.00    -0.166 F 
ATOM     32  F   UNL     1      30.404  -4.133 -24.083  0.00  0.00    -0.166 F 
ATOM     33  F   UNL     1      30.174  -3.967 -21.927  0.00  0.00    -0.166 F 
ATOM     34  C   UNL     1      31.056  -4.347 -22.900  0.00  0.00    +0.420 C 
ENDBRANCH  28  34
ENDBRANCH  24  26
ENDBRANCH  21  24
ENDBRANCH  11  18
TORSDOF 4
ENDMDL
MODEL 7
REMARK VINA RESULT:      -9.6      6.578     11.461
REMARK  Name = 24771824
REMARK  4 active torsions:
REMARK  status: ('A' for Active; 'I' for Inactive)
REMARK    1  A    between atoms: C_11  and  C_18
REMARK    2  A    between atoms: C_21  and  O_24
REMARK    3  A    between atoms: O_24  and  C_26
REMARK    4  A    between atoms: C_28  and  C_34
REMARK                            x       y       z     vdW  Elec       q    Type
REMARK                         _______ _______ _______ _____ _____    ______ ____
ROOT
ATOM      1  O   UNL     1      35.458 -15.695 -24.072  0.00  0.00    -0.252 OA
ATOM      2  N   UNL     1      35.213 -17.380 -22.506  0.00  0.00    -0.263 N 
ATOM      3  N   UNL     1      34.098 -15.317 -22.233  0.00  0.00    -0.252 N 
ATOM      4  N   UNL     1      34.066 -13.376 -23.617  0.00  0.00    -0.133 NA
ATOM      5  N   UNL     1      33.632 -12.113 -23.874  0.00  0.00    -0.145 NA
ATOM      6  C   UNL     1      37.200 -18.863 -22.390  0.00  0.00    +0.044 C 
ATOM      7  C   UNL     1      35.708 -18.561 -20.372  0.00  0.00    +0.044 C 
ATOM      8  C   UNL     1      36.087 -18.288 -23.263  0.00  0.00    +0.099 C 
ATOM      9  C   UNL     1      34.630 -17.958 -21.279  0.00  0.00    +0.099 C 
ATOM     10  C   UNL     1      36.615 -19.479 -21.149  0.00  0.00    -0.041 C 
ATOM     11  C   UNL     1      36.861 -20.743 -20.777  0.00  0.00    -0.008 C 
ATOM     12  C   UNL     1      34.963 -16.085 -23.011  0.00  0.00    +0.309 C 
ATOM     13  C   UNL     1      33.643 -14.001 -22.497  0.00  0.00    +0.157 C 
ATOM     14  C   UNL     1      32.784 -13.416 -21.589  0.00  0.00    +0.038 C 
ATOM     15  C   UNL     1      32.342 -12.131 -21.851  0.00  0.00    +0.025 C 
ATOM     16  C   UNL     1      32.791 -11.516 -23.004  0.00  0.00    +0.122 C 
ATOM     17  H   UNL     1      33.767 -15.736 -21.405  0.00  0.00    +0.158 HD
ENDROOT
BRANCH  11  18
ATOM     18  C   UNL     1      36.322 -21.406 -19.579  0.00  0.00    +0.002 C 
ATOM     19  C   UNL     1      36.990 -21.290 -18.360  0.00  0.00    +0.038 C 
ATOM     20  C   UNL     1      35.145 -22.149 -19.662  0.00  0.00    +0.000 C 
ATOM     21  C   UNL     1      36.479 -21.917 -17.223  0.00  0.00    +0.147 C 
ATOM     22  C   UNL     1      34.634 -22.776 -18.526  0.00  0.00    +0.003 C 
ATOM     23  C   UNL     1      35.302 -22.660 -17.306  0.00  0.00    +0.038 C 
BRANCH  21  24
ATOM     24  O   UNL     1      37.130 -21.805 -16.034  0.00  0.00    -0.436 OA
BRANCH  24  26
ATOM     25  N   UNL     1      38.302 -23.711 -15.376  0.00  0.00    -0.210 NA
ATOM     26  C   UNL     1      37.207 -22.931 -15.232  0.00  0.00    +0.230 C 
ATOM     27  C   UNL     1      36.179 -23.193 -14.342  0.00  0.00    +0.058 C 
ATOM     28  C   UNL     1      37.392 -25.158 -13.666  0.00  0.00    +0.091 C 
ATOM     29  C   UNL     1      36.280 -24.330 -13.547  0.00  0.00    +0.010 C 
ATOM     30  C   UNL     1      38.366 -24.807 -14.587  0.00  0.00    +0.106 C 
BRANCH  28  34
ATOM     31  F   UNL     1      36.812 -26.338 -11.667  0.00  0.00    -0.166 F 
ATOM     32  F   UNL     1      37.112 -27.524 -13.458  0.00  0.00    -0.166 F 
ATOM     33  F   UNL     1      38.819 -26.624 -12.455  0.00  0.00    -0.166 F 
ATOM     34  C   UNL     1      37.527 -26.382 -12.831  0.00  0.00    +0.420 C 
ENDBRANCH  28  34
ENDBRANCH  24  26
ENDBRANCH  21  24
ENDBRANCH  11  18
TORSDOF 4
ENDMDL
MODEL 8
REMARK VINA RESULT:      -9.4      4.620     10.457
REMARK  Name = 24771824
REMARK  4 active torsions:
REMARK  status: ('A' for Active; 'I' for Inactive)
REMARK    1  A    between atoms: C_11  and  C_18
REMARK    2  A    between atoms: C_21  and  O_24
REMARK    3  A    between atoms: O_24  and  C_26
REMARK    4  A    between atoms: C_28  and  C_34
REMARK                            x       y       z     vdW  Elec       q    Type
REMARK                         _______ _______ _______ _____ _____    ______ ____
ROOT
ATOM      1  O   UNL     1      33.615 -13.219 -23.909  0.00  0.00    -0.252 OA
ATOM      2  N   UNL     1      33.901 -15.212 -22.770  0.00  0.00    -0.263 N 
ATOM      3  N   UNL     1      33.034 -13.314 -21.666  0.00  0.00    -0.252 N 
ATOM      4  N   UNL     1      32.565 -11.124 -22.482  0.00  0.00    -0.133 NA
ATOM      5  N   UNL     1      32.111  -9.858 -22.280  0.00  0.00    -0.145 NA
ATOM      6  C   UNL     1      35.741 -16.586 -23.713  0.00  0.00    +0.044 C 
ATOM      7  C   UNL     1      35.100 -16.802 -21.278  0.00  0.00    +0.044 C 
ATOM      8  C   UNL     1      34.406 -15.891 -23.973  0.00  0.00    +0.099 C 
ATOM      9  C   UNL     1      33.786 -16.070 -21.575  0.00  0.00    +0.099 C 
ATOM     10  C   UNL     1      35.628 -17.484 -22.511  0.00  0.00    -0.041 C 
ATOM     11  C   UNL     1      35.949 -18.785 -22.541  0.00  0.00    -0.008 C 
ATOM     12  C   UNL     1      33.528 -13.852 -22.853  0.00  0.00    +0.309 C 
ATOM     13  C   UNL     1      32.560 -11.997 -21.451  0.00  0.00    +0.157 C 
ATOM     14  C   UNL     1      32.112 -11.664 -20.189  0.00  0.00    +0.038 C 
ATOM     15  C   UNL     1      31.650 -10.376 -19.984  0.00  0.00    +0.025 C 
ATOM     16  C   UNL     1      31.667  -9.505 -21.056  0.00  0.00    +0.122 C 
ATOM     17  H   UNL     1      33.014 -13.918 -20.888  0.00  0.00    +0.158 HD
ENDROOT
BRANCH  11  18
ATOM     18  C   UNL     1      35.863 -19.717 -21.406  0.00  0.00    +0.002 C 
ATOM     19  C   UNL     1      34.666 -20.381 -21.140  0.00  0.00    +0.038 C 
ATOM     20  C   UNL     1      36.978 -19.937 -20.598  0.00  0.00    +0.000 C 
ATOM     21  C   UNL     1      34.584 -21.267 -20.065  0.00  0.00    +0.147 C 
ATOM     22  C   UNL     1      36.897 -20.821 -19.523  0.00  0.00    +0.003 C 
ATOM     23  C   UNL     1      35.699 -21.487 -19.256  0.00  0.00    +0.038 C 
BRANCH  21  24
ATOM     24  O   UNL     1      33.416 -21.915 -19.804  0.00  0.00    -0.436 OA
BRANCH  24  26
ATOM     25  N   UNL     1      31.991 -22.459 -18.040  0.00  0.00    -0.210 NA
ATOM     26  C   UNL     1      33.247 -22.454 -18.540  0.00  0.00    +0.230 C 
ATOM     27  C   UNL     1      34.351 -22.951 -17.869  0.00  0.00    +0.058 C 
ATOM     28  C   UNL     1      32.877 -23.512 -16.053  0.00  0.00    +0.091 C 
ATOM     29  C   UNL     1      34.155 -23.488 -16.601  0.00  0.00    +0.010 C 
ATOM     30  C   UNL     1      31.838 -22.989 -16.806  0.00  0.00    +0.106 C 
BRANCH  28  34
ATOM     31  F   UNL     1      33.769 -24.522 -14.075  0.00  0.00    -0.166 F 
ATOM     32  F   UNL     1      32.076 -23.189 -13.822  0.00  0.00    -0.166 F 
ATOM     33  F   UNL     1      31.788 -25.150 -14.717  0.00  0.00    -0.166 F 
ATOM     34  C   UNL     1      32.635 -24.077 -14.698  0.00  0.00    +0.420 C 
ENDBRANCH  28  34
ENDBRANCH  24  26
ENDBRANCH  21  24
ENDBRANCH  11  18
TORSDOF 4
ENDMDL
MODEL 9
REMARK VINA RESULT:      -9.3      2.844      4.053
REMARK  Name = 24771824
REMARK  4 active torsions:
REMARK  status: ('A' for Active; 'I' for Inactive)
REMARK    1  A    between atoms: C_11  and  C_18
REMARK    2  A    between atoms: C_21  and  O_24
REMARK    3  A    between atoms: O_24  and  C_26
REMARK    4  A    between atoms: C_28  and  C_34
REMARK                            x       y       z     vdW  Elec       q    Type
REMARK                         _______ _______ _______ _____ _____    ______ ____
ROOT
ATOM      1  O   UNL     1      36.637 -21.506 -19.411  0.00  0.00    -0.252 OA
ATOM      2  N   UNL     1      35.668 -19.764 -20.586  0.00  0.00    -0.263 N 
ATOM      3  N   UNL     1      34.337 -21.234 -19.305  0.00  0.00    -0.252 N 
ATOM      4  N   UNL     1      34.948 -23.097 -17.948  0.00  0.00    -0.133 NA
ATOM      5  N   UNL     1      34.608 -24.115 -17.113  0.00  0.00    -0.145 NA
ATOM      6  C   UNL     1      36.975 -19.138 -22.601  0.00  0.00    +0.044 C 
ATOM      7  C   UNL     1      34.482 -18.735 -22.516  0.00  0.00    +0.044 C 
ATOM      8  C   UNL     1      36.971 -19.300 -21.083  0.00  0.00    +0.099 C 
ATOM      9  C   UNL     1      34.516 -18.938 -20.997  0.00  0.00    +0.099 C 
ATOM     10  C   UNL     1      35.820 -18.275 -23.030  0.00  0.00    -0.041 C 
ATOM     11  C   UNL     1      35.970 -17.177 -23.784  0.00  0.00    -0.008 C 
ATOM     12  C   UNL     1      35.617 -20.897 -19.743  0.00  0.00    +0.309 C 
ATOM     13  C   UNL     1      33.978 -22.294 -18.436  0.00  0.00    +0.157 C 
ATOM     14  C   UNL     1      32.643 -22.457 -18.126  0.00  0.00    +0.038 C 
ATOM     15  C   UNL     1      32.297 -23.494 -17.277  0.00  0.00    +0.025 C 
ATOM     16  C   UNL     1      33.310 -24.298 -16.794  0.00  0.00    +0.122 C 
ATOM     17  H   UNL     1      33.599 -20.673 -19.638  0.00  0.00    +0.158 HD
ENDROOT
BRANCH  11  18
ATOM     18  C   UNL     1      34.887 -16.291 -24.238  0.00  0.00    +0.002 C 
ATOM     19  C   UNL     1      34.372 -15.324 -23.374  0.00  0.00    +0.038 C 
ATOM     20  C   UNL     1      34.376 -16.417 -25.529  0.00  0.00    +0.000 C 
ATOM     21  C   UNL     1      33.345 -14.482 -23.804  0.00  0.00    +0.147 C 
ATOM     22  C   UNL     1      33.350 -15.577 -25.958  0.00  0.00    +0.003 C 
ATOM     23  C   UNL     1      32.835 -14.608 -25.096  0.00  0.00    +0.038 C 
BRANCH  21  24
ATOM     24  O   UNL     1      32.843 -13.539 -22.963  0.00  0.00    -0.436 OA
BRANCH  24  26
ATOM     25  N   UNL     1      32.477 -11.274 -22.538  0.00  0.00    -0.210 NA
ATOM     26  C   UNL     1      33.187 -12.218 -23.196  0.00  0.00    +0.230 C 
ATOM     27  C   UNL     1      34.222 -11.939 -24.074  0.00  0.00    +0.058 C 
ATOM     28  C   UNL     1      33.842  -9.605 -23.631  0.00  0.00    +0.091 C 
ATOM     29  C   UNL     1      34.550 -10.605 -24.291  0.00  0.00    +0.010 C 
ATOM     30  C   UNL     1      32.824  -9.989 -22.774  0.00  0.00    +0.106 C 
BRANCH  28  34
ATOM     31  F   UNL     1      33.079  -7.343 -23.788  0.00  0.00    -0.166 F 
ATOM     32  F   UNL     1      35.044  -7.661 -22.928  0.00  0.00    -0.166 F 
ATOM     33  F   UNL     1      34.739  -7.932 -25.063  0.00  0.00    -0.166 F 
ATOM     34  C   UNL     1      34.167  -8.169 -23.845  0.00  0.00    +0.420 C 
ENDBRANCH  28  34
ENDBRANCH  24  26
ENDBRANCH  21  24
ENDBRANCH  11  18
TORSDOF 4
ENDMDL
