MODEL 1
REMARK VINA RESULT:     -11.9      0.000      0.000
REMARK  Name = 46937091
REMARK  8 active torsions:
REMARK  status: ('A' for Active; 'I' for Inactive)
REMARK    1  A    between atoms: C_1  and  C_4
REMARK    2  A    between atoms: C_1  and  C_18
REMARK    3  A    between atoms: C_10  and  C_12
REMARK    4  A    between atoms: C_18  and  C_19
REMARK    5  A    between atoms: C_19  and  N_20
REMARK    6  A    between atoms: C_19  and  C_30
REMARK    7  A    between atoms: C_24  and  C_27
REMARK    8  A    between atoms: C_30  and  O_32
REMARK                            x       y       z     vdW  Elec       q    Type
REMARK                         _______ _______ _______ _____ _____    ______ ____
ROOT
ATOM      1  C   UNL     1      34.759 -24.638 -14.438  0.00  0.00    +0.031 C 
ENDROOT
BRANCH   1   4
ATOM      2  O   UNL     1      33.771 -23.149 -16.919  0.00  0.00    -0.425 OA
ATOM      3  N   UNL     1      31.631 -22.848 -17.600  0.00  0.00    -0.368 NA
ATOM      4  C   UNL     1      33.326 -24.454 -14.869  0.00  0.00    +0.014 C 
ATOM      5  C   UNL     1      32.953 -23.761 -16.014  0.00  0.00    +0.170 C 
ATOM      6  C   UNL     1      32.275 -24.986 -14.114  0.00  0.00    -0.005 C 
ATOM      7  C   UNL     1      31.643 -23.576 -16.434  0.00  0.00    +0.151 C 
ATOM      8  C   UNL     1      30.940 -24.822 -14.502  0.00  0.00    -0.019 C 
ATOM      9  C   UNL     1      30.602 -24.116 -15.666  0.00  0.00    +0.088 C 
ATOM     10  C   UNL     1      32.906 -22.629 -17.833  0.00  0.00    +0.282 C 
BRANCH  10  12
ATOM     11 CL   UNL     1      35.449 -19.675 -22.325  0.00  0.00    -0.082 Cl
ATOM     12  C   UNL     1      33.521 -21.915 -18.918  0.00  0.00    +0.066 C 
ATOM     13  C   UNL     1      32.735 -21.163 -19.791  0.00  0.00    +0.007 C 
ATOM     14  C   UNL     1      34.902 -21.974 -19.098  0.00  0.00    +0.007 C 
ATOM     15  C   UNL     1      33.332 -20.470 -20.845  0.00  0.00    +0.012 C 
ATOM     16  C   UNL     1      35.499 -21.282 -20.152  0.00  0.00    +0.012 C 
ATOM     17  C   UNL     1      34.713 -20.530 -21.025  0.00  0.00    +0.058 C 
ENDBRANCH  10  12
ENDBRANCH   1   4
BRANCH   1  18
ATOM     18  C   UNL     1      35.011 -24.382 -12.942  0.00  0.00    +0.023 C 
BRANCH  18  19
ATOM     19  C   UNL     1      36.390 -23.755 -12.605  0.00  0.00    +0.087 C 
BRANCH  19  20
ATOM     20  N   UNL     1      37.479 -24.161 -13.590  0.00  0.00    -0.246 NA
ATOM     21  N   UNL     1      38.758 -24.131 -15.405  0.00  0.00    -0.251 NA
ATOM     22  C   UNL     1      38.349 -25.203 -13.450  0.00  0.00    +0.125 C 
ATOM     23  C   UNL     1      37.761 -23.546 -14.778  0.00  0.00    +0.201 C 
ATOM     24  C   UNL     1      39.130 -25.165 -14.582  0.00  0.00    +0.124 C 
BRANCH  24  27
ATOM     25  O   UNL     1      40.640 -26.187 -16.073  0.00  0.00    -0.269 OA
ATOM     26  N   UNL     1      40.778 -26.811 -13.871  0.00  0.00    -0.324 N 
ATOM     27  C   UNL     1      40.197 -26.061 -14.904  0.00  0.00    +0.257 C 
ATOM     28  H   UNL     1      41.514 -27.435 -14.069  0.00  0.00    +0.145 HD
ATOM     29  H   UNL     1      40.451 -26.714 -12.948  0.00  0.00    +0.145 HD
ENDBRANCH  24  27
ENDBRANCH  19  20
BRANCH  19  30
ATOM     30  C   UNL     1      36.772 -24.045 -11.128  0.00  0.00    +0.125 C 
ATOM     31  C   UNL     1      35.656 -24.699 -10.320  0.00  0.00    +0.033 C 
BRANCH  30  32
ATOM     32  O   UNL     1      37.191 -22.852 -10.470  0.00  0.00    -0.383 OA
ATOM     33  H   UNL     1      37.119 -22.970  -9.509  0.00  0.00    +0.210 HD
ENDBRANCH  30  32
ENDBRANCH  19  30
ENDBRANCH  18  19
ENDBRANCH   1  18
TORSDOF 8
ENDMDL
MODEL 2
REMARK VINA RESULT:     -11.2      3.676      7.459
REMARK  Name = 46937091
REMARK  8 active torsions:
REMARK  status: ('A' for Active; 'I' for Inactive)
REMARK    1  A    between atoms: C_1  and  C_4
REMARK    2  A    between atoms: C_1  and  C_18
REMARK    3  A    between atoms: C_10  and  C_12
REMARK    4  A    between atoms: C_18  and  C_19
REMARK    5  A    between atoms: C_19  and  N_20
REMARK    6  A    between atoms: C_19  and  C_30
REMARK    7  A    between atoms: C_24  and  C_27
REMARK    8  A    between atoms: C_30  and  O_32
REMARK                            x       y       z     vdW  Elec       q    Type
REMARK                         _______ _______ _______ _____ _____    ______ ____
ROOT
ATOM      1  C   UNL     1      32.945 -23.527 -17.239  0.00  0.00    +0.031 C 
ENDROOT
BRANCH   1   4
ATOM      2  O   UNL     1      34.719 -21.718 -18.951  0.00  0.00    -0.425 OA
ATOM      3  N   UNL     1      36.909 -21.222 -18.641  0.00  0.00    -0.368 NA
ATOM      4  C   UNL     1      34.402 -23.213 -17.009  0.00  0.00    +0.014 C 
ATOM      5  C   UNL     1      35.146 -22.378 -17.835  0.00  0.00    +0.170 C 
ATOM      6  C   UNL     1      35.093 -23.764 -15.924  0.00  0.00    -0.005 C 
ATOM      7  C   UNL     1      36.486 -22.072 -17.648  0.00  0.00    +0.151 C 
ATOM      8  C   UNL     1      36.446 -23.481 -15.700  0.00  0.00    -0.019 C 
ATOM      9  C   UNL     1      37.164 -22.632 -16.556  0.00  0.00    +0.088 C 
ATOM     10  C   UNL     1      35.830 -21.052 -19.373  0.00  0.00    +0.282 C 
BRANCH  10  12
ATOM     11 CL   UNL     1      35.092 -17.779 -24.283  0.00  0.00    -0.082 Cl
ATOM     12  C   UNL     1      35.652 -20.261 -20.559  0.00  0.00    +0.066 C 
ATOM     13  C   UNL     1      34.451 -20.325 -21.266  0.00  0.00    +0.007 C 
ATOM     14  C   UNL     1      36.679 -19.429 -21.004  0.00  0.00    +0.007 C 
ATOM     15  C   UNL     1      34.278 -19.558 -22.418  0.00  0.00    +0.012 C 
ATOM     16  C   UNL     1      36.506 -18.661 -22.155  0.00  0.00    +0.012 C 
ATOM     17  C   UNL     1      35.305 -18.726 -22.862  0.00  0.00    +0.058 C 
ENDBRANCH  10  12
ENDBRANCH   1   4
BRANCH   1  18
ATOM     18  C   UNL     1      32.012 -23.082 -16.100  0.00  0.00    +0.023 C 
BRANCH  18  19
ATOM     19  C   UNL     1      31.006 -24.159 -15.613  0.00  0.00    +0.087 C 
BRANCH  19  20
ATOM     20  N   UNL     1      29.597 -23.932 -16.145  0.00  0.00    -0.246 NA
ATOM     21  N   UNL     1      27.718 -24.285 -17.274  0.00  0.00    -0.251 NA
ATOM     22  C   UNL     1      28.784 -22.874 -15.856  0.00  0.00    +0.125 C 
ATOM     23  C   UNL     1      28.915 -24.753 -16.999  0.00  0.00    +0.201 C 
ATOM     24  C   UNL     1      27.629 -23.113 -16.564  0.00  0.00    +0.124 C 
BRANCH  24  27
ATOM     25  O   UNL     1      25.633 -22.260 -15.649  0.00  0.00    -0.269 OA
ATOM     26  N   UNL     1      26.260 -21.450 -17.700  0.00  0.00    -0.324 N 
ATOM     27  C   UNL     1      26.466 -22.282 -16.590  0.00  0.00    +0.257 C 
ATOM     28  H   UNL     1      25.466 -20.868 -17.740  0.00  0.00    +0.145 HD
ATOM     29  H   UNL     1      26.909 -21.446 -18.440  0.00  0.00    +0.145 HD
ENDBRANCH  24  27
ENDBRANCH  19  20
BRANCH  19  30
ATOM     30  C   UNL     1      31.056 -24.290 -14.067  0.00  0.00    +0.125 C 
ATOM     31  C   UNL     1      32.457 -24.527 -13.513  0.00  0.00    +0.033 C 
BRANCH  30  32
ATOM     32  O   UNL     1      30.191 -25.331 -13.618  0.00  0.00    -0.383 OA
ATOM     33  H   UNL     1      30.368 -25.516 -12.683  0.00  0.00    +0.210 HD
ENDBRANCH  30  32
ENDBRANCH  19  30
ENDBRANCH  18  19
ENDBRANCH   1  18
TORSDOF 8
ENDMDL
MODEL 3
REMARK VINA RESULT:     -10.4     11.585     15.517
REMARK  Name = 46937091
REMARK  8 active torsions:
REMARK  status: ('A' for Active; 'I' for Inactive)
REMARK    1  A    between atoms: C_1  and  C_4
REMARK    2  A    between atoms: C_1  and  C_18
REMARK    3  A    between atoms: C_10  and  C_12
REMARK    4  A    between atoms: C_18  and  C_19
REMARK    5  A    between atoms: C_19  and  N_20
REMARK    6  A    between atoms: C_19  and  C_30
REMARK    7  A    between atoms: C_24  and  C_27
REMARK    8  A    between atoms: C_30  and  O_32
REMARK                            x       y       z     vdW  Elec       q    Type
REMARK                         _______ _______ _______ _____ _____    ______ ____
ROOT
ATOM      1  C   UNL     1      31.920 -11.915 -22.648  0.00  0.00    +0.031 C 
ENDROOT
BRANCH   1   4
ATOM      2  O   UNL     1      32.574  -8.942 -22.928  0.00  0.00    -0.425 OA
ATOM      3  N   UNL     1      32.619  -7.369 -21.297  0.00  0.00    -0.368 NA
ATOM      4  C   UNL     1      31.941 -10.889 -21.544  0.00  0.00    +0.014 C 
ATOM      5  C   UNL     1      32.250  -9.549 -21.749  0.00  0.00    +0.170 C 
ATOM      6  C   UNL     1      31.644 -11.246 -20.225  0.00  0.00    -0.005 C 
ATOM      7  C   UNL     1      32.277  -8.583 -20.753  0.00  0.00    +0.151 C 
ATOM      8  C   UNL     1      31.661 -10.303 -19.190  0.00  0.00    -0.019 C 
ATOM      9  C   UNL     1      31.977  -8.958 -19.436  0.00  0.00    +0.088 C 
ATOM     10  C   UNL     1      32.779  -7.643 -22.572  0.00  0.00    +0.282 C 
BRANCH  10  12
ATOM     11 CL   UNL     1      34.284  -4.014 -27.038  0.00  0.00    -0.082 Cl
ATOM     12  C   UNL     1      33.143  -6.766 -23.652  0.00  0.00    +0.066 C 
ATOM     13  C   UNL     1      34.469  -6.696 -24.077  0.00  0.00    +0.007 C 
ATOM     14  C   UNL     1      32.169  -5.985 -24.274  0.00  0.00    +0.007 C 
ATOM     15  C   UNL     1      34.822  -5.845 -25.124  0.00  0.00    +0.012 C 
ATOM     16  C   UNL     1      32.522  -5.134 -25.321  0.00  0.00    +0.012 C 
ATOM     17  C   UNL     1      33.849  -5.064 -25.746  0.00  0.00    +0.058 C 
ENDBRANCH  10  12
ENDBRANCH   1   4
BRANCH   1  18
ATOM     18  C   UNL     1      33.304 -12.467 -23.029  0.00  0.00    +0.023 C 
BRANCH  18  19
ATOM     19  C   UNL     1      33.331 -13.359 -24.299  0.00  0.00    +0.087 C 
BRANCH  19  20
ATOM     20  N   UNL     1      33.927 -14.737 -24.038  0.00  0.00    -0.246 NA
ATOM     21  N   UNL     1      34.518 -16.848 -24.391  0.00  0.00    -0.251 NA
ATOM     22  C   UNL     1      34.558 -15.143 -22.898  0.00  0.00    +0.125 C 
ATOM     23  C   UNL     1      33.927 -15.793 -24.906  0.00  0.00    +0.201 C 
ATOM     24  C   UNL     1      34.915 -16.449 -23.138  0.00  0.00    +0.124 C 
BRANCH  24  27
ATOM     25  O   UNL     1      35.431 -17.272 -20.992  0.00  0.00    -0.269 OA
ATOM     26  N   UNL     1      36.497 -18.263 -22.763  0.00  0.00    -0.324 N 
ATOM     27  C   UNL     1      35.606 -17.317 -22.236  0.00  0.00    +0.257 C 
ATOM     28  H   UNL     1      36.984 -18.871 -22.161  0.00  0.00    +0.145 HD
ATOM     29  H   UNL     1      36.636 -18.319 -23.736  0.00  0.00    +0.145 HD
ENDBRANCH  24  27
ENDBRANCH  19  20
BRANCH  19  30
ATOM     30  C   UNL     1      34.021 -12.613 -25.473  0.00  0.00    +0.125 C 
ATOM     31  C   UNL     1      34.355 -11.157 -25.166  0.00  0.00    +0.033 C 
BRANCH  30  32
ATOM     32  O   UNL     1      33.221 -12.674 -26.651  0.00  0.00    -0.383 OA
ATOM     33  H   UNL     1      32.347 -12.294 -26.469  0.00  0.00    +0.210 HD
ENDBRANCH  30  32
ENDBRANCH  19  30
ENDBRANCH  18  19
ENDBRANCH   1  18
TORSDOF 8
ENDMDL
MODEL 4
REMARK VINA RESULT:     -10.3     11.552     15.357
REMARK  Name = 46937091
REMARK  8 active torsions:
REMARK  status: ('A' for Active; 'I' for Inactive)
REMARK    1  A    between atoms: C_1  and  C_4
REMARK    2  A    between atoms: C_1  and  C_18
REMARK    3  A    between atoms: C_10  and  C_12
REMARK    4  A    between atoms: C_18  and  C_19
REMARK    5  A    between atoms: C_19  and  N_20
REMARK    6  A    between atoms: C_19  and  C_30
REMARK    7  A    between atoms: C_24  and  C_27
REMARK    8  A    between atoms: C_30  and  O_32
REMARK                            x       y       z     vdW  Elec       q    Type
REMARK                         _______ _______ _______ _____ _____    ______ ____
ROOT
ATOM      1  C   UNL     1      31.815 -11.639 -22.624  0.00  0.00    +0.031 C 
ENDROOT
BRANCH   1   4
ATOM      2  O   UNL     1      32.550  -8.688 -22.950  0.00  0.00    -0.425 OA
ATOM      3  N   UNL     1      32.696  -7.106 -21.334  0.00  0.00    -0.368 NA
ATOM      4  C   UNL     1      31.905 -10.606 -21.530  0.00  0.00    +0.014 C 
ATOM      5  C   UNL     1      32.247  -9.277 -21.756  0.00  0.00    +0.170 C 
ATOM      6  C   UNL     1      31.641 -10.945 -20.199  0.00  0.00    -0.005 C 
ATOM      7  C   UNL     1      32.337  -8.306 -20.769  0.00  0.00    +0.151 C 
ATOM      8  C   UNL     1      31.721  -9.995 -19.173  0.00  0.00    -0.019 C 
ATOM      9  C   UNL     1      32.069  -8.662 -19.440  0.00  0.00    +0.088 C 
ATOM     10  C   UNL     1      32.806  -7.394 -22.612  0.00  0.00    +0.282 C 
BRANCH  10  12
ATOM     11 CL   UNL     1      34.263  -3.843 -27.155  0.00  0.00    -0.082 Cl
ATOM     12  C   UNL     1      33.159  -6.536 -23.710  0.00  0.00    +0.066 C 
ATOM     13  C   UNL     1      32.195  -5.707 -24.284  0.00  0.00    +0.007 C 
ATOM     14  C   UNL     1      34.463  -6.532 -24.201  0.00  0.00    +0.007 C 
ATOM     15  C   UNL     1      32.537  -4.874 -25.349  0.00  0.00    +0.012 C 
ATOM     16  C   UNL     1      34.805  -5.699 -25.266  0.00  0.00    +0.012 C 
ATOM     17  C   UNL     1      33.842  -4.870 -25.840  0.00  0.00    +0.058 C 
ENDBRANCH  10  12
ENDBRANCH   1   4
BRANCH   1  18
ATOM     18  C   UNL     1      33.172 -12.215 -23.067  0.00  0.00    +0.023 C 
BRANCH  18  19
ATOM     19  C   UNL     1      33.128 -13.676 -23.587  0.00  0.00    +0.087 C 
BRANCH  19  20
ATOM     20  N   UNL     1      33.929 -14.636 -22.716  0.00  0.00    -0.246 NA
ATOM     21  N   UNL     1      34.943 -15.464 -20.922  0.00  0.00    -0.251 NA
ATOM     22  C   UNL     1      34.466 -15.829 -23.108  0.00  0.00    +0.125 C 
ATOM     23  C   UNL     1      34.240 -14.459 -21.397  0.00  0.00    +0.201 C 
ATOM     24  C   UNL     1      35.086 -16.322 -21.984  0.00  0.00    +0.124 C 
BRANCH  24  27
ATOM     25  O   UNL     1      36.091 -18.080 -20.781  0.00  0.00    -0.269 OA
ATOM     26  N   UNL     1      36.170 -18.215 -23.068  0.00  0.00    -0.324 N 
ATOM     27  C   UNL     1      35.800 -17.558 -21.886  0.00  0.00    +0.257 C 
ATOM     28  H   UNL     1      36.662 -19.067 -23.025  0.00  0.00    +0.145 HD
ATOM     29  H   UNL     1      35.938 -17.825 -23.942  0.00  0.00    +0.145 HD
ENDBRANCH  24  27
ENDBRANCH  19  20
BRANCH  19  30
ATOM     30  C   UNL     1      33.539 -13.732 -25.084  0.00  0.00    +0.125 C 
ATOM     31  C   UNL     1      33.677 -12.361 -25.737  0.00  0.00    +0.033 C 
BRANCH  30  32
ATOM     32  O   UNL     1      32.615 -14.519 -25.833  0.00  0.00    -0.383 OA
ATOM     33  H   UNL     1      33.015 -14.763 -26.683  0.00  0.00    +0.210 HD
ENDBRANCH  30  32
ENDBRANCH  19  30
ENDBRANCH  18  19
ENDBRANCH   1  18
TORSDOF 8
ENDMDL
MODEL 5
REMARK VINA RESULT:     -10.0      3.584      8.505
REMARK  Name = 46937091
REMARK  8 active torsions:
REMARK  status: ('A' for Active; 'I' for Inactive)
REMARK    1  A    between atoms: C_1  and  C_4
REMARK    2  A    between atoms: C_1  and  C_18
REMARK    3  A    between atoms: C_10  and  C_12
REMARK    4  A    between atoms: C_18  and  C_19
REMARK    5  A    between atoms: C_19  and  N_20
REMARK    6  A    between atoms: C_19  and  C_30
REMARK    7  A    between atoms: C_24  and  C_27
REMARK    8  A    between atoms: C_30  and  O_32
REMARK                            x       y       z     vdW  Elec       q    Type
REMARK                         _______ _______ _______ _____ _____    ______ ____
ROOT
ATOM      1  C   UNL     1      31.977 -22.878 -17.747  0.00  0.00    +0.031 C 
ENDROOT
BRANCH   1   4
ATOM      2  O   UNL     1      34.778 -23.131 -16.547  0.00  0.00    -0.425 OA
ATOM      3  N   UNL     1      36.741 -22.439 -17.442  0.00  0.00    -0.368 NA
ATOM      4  C   UNL     1      33.269 -22.409 -18.366  0.00  0.00    +0.014 C 
ATOM      5  C   UNL     1      34.510 -22.559 -17.757  0.00  0.00    +0.170 C 
ATOM      6  C   UNL     1      33.280 -21.782 -19.616  0.00  0.00    -0.005 C 
ATOM      7  C   UNL     1      35.713 -22.137 -18.303  0.00  0.00    +0.151 C 
ATOM      8  C   UNL     1      34.473 -21.341 -20.202  0.00  0.00    -0.019 C 
ATOM      9  C   UNL     1      35.707 -21.511 -19.557  0.00  0.00    +0.088 C 
ATOM     10  C   UNL     1      36.131 -23.020 -16.434  0.00  0.00    +0.282 C 
BRANCH  10  12
ATOM     11 CL   UNL     1      38.434 -25.242 -11.421  0.00  0.00    -0.082 Cl
ATOM     12  C   UNL     1      36.687 -23.557 -15.222  0.00  0.00    +0.066 C 
ATOM     13  C   UNL     1      37.885 -24.269 -15.261  0.00  0.00    +0.007 C 
ATOM     14  C   UNL     1      36.029 -23.365 -14.007  0.00  0.00    +0.007 C 
ATOM     15  C   UNL     1      38.425 -24.791 -14.086  0.00  0.00    +0.012 C 
ATOM     16  C   UNL     1      36.569 -23.886 -12.832  0.00  0.00    +0.012 C 
ATOM     17  C   UNL     1      37.768 -24.599 -12.871  0.00  0.00    +0.058 C 
ENDBRANCH  10  12
ENDBRANCH   1   4
BRANCH   1  18
ATOM     18  C   UNL     1      32.056 -23.143 -16.234  0.00  0.00    +0.023 C 
BRANCH  18  19
ATOM     19  C   UNL     1      30.985 -24.120 -15.680  0.00  0.00    +0.087 C 
BRANCH  19  20
ATOM     20  N   UNL     1      29.588 -23.824 -16.210  0.00  0.00    -0.246 NA
ATOM     21  N   UNL     1      27.668 -24.113 -17.288  0.00  0.00    -0.251 NA
ATOM     22  C   UNL     1      28.863 -22.688 -15.991  0.00  0.00    +0.125 C 
ATOM     23  C   UNL     1      28.831 -24.651 -16.993  0.00  0.00    +0.201 C 
ATOM     24  C   UNL     1      27.681 -22.889 -16.666  0.00  0.00    +0.124 C 
BRANCH  24  27
ATOM     25  O   UNL     1      26.443 -21.170 -17.695  0.00  0.00    -0.269 OA
ATOM     26  N   UNL     1      25.624 -21.992 -15.717  0.00  0.00    -0.324 N 
ATOM     27  C   UNL     1      26.584 -21.975 -16.740  0.00  0.00    +0.257 C 
ATOM     28  H   UNL     1      24.860 -21.372 -15.747  0.00  0.00    +0.145 HD
ATOM     29  H   UNL     1      25.715 -22.625 -14.969  0.00  0.00    +0.145 HD
ENDBRANCH  24  27
ENDBRANCH  19  20
BRANCH  19  30
ATOM     30  C   UNL     1      31.046 -24.169 -14.129  0.00  0.00    +0.125 C 
ATOM     31  C   UNL     1      32.458 -24.063 -13.564  0.00  0.00    +0.033 C 
BRANCH  30  32
ATOM     32  O   UNL     1      30.430 -25.357 -13.636  0.00  0.00    -0.383 OA
ATOM     33  H   UNL     1      30.798 -25.574 -12.765  0.00  0.00    +0.210 HD
ENDBRANCH  30  32
ENDBRANCH  19  30
ENDBRANCH  18  19
ENDBRANCH   1  18
TORSDOF 8
ENDMDL
MODEL 6
REMARK VINA RESULT:      -9.9      1.550      2.379
REMARK  Name = 46937091
REMARK  8 active torsions:
REMARK  status: ('A' for Active; 'I' for Inactive)
REMARK    1  A    between atoms: C_1  and  C_4
REMARK    2  A    between atoms: C_1  and  C_18
REMARK    3  A    between atoms: C_10  and  C_12
REMARK    4  A    between atoms: C_18  and  C_19
REMARK    5  A    between atoms: C_19  and  N_20
REMARK    6  A    between atoms: C_19  and  C_30
REMARK    7  A    between atoms: C_24  and  C_27
REMARK    8  A    between atoms: C_30  and  O_32
REMARK                            x       y       z     vdW  Elec       q    Type
REMARK                         _______ _______ _______ _____ _____    ______ ____
ROOT
ATOM      1  C   UNL     1      34.162 -24.800 -14.204  0.00  0.00    +0.031 C 
ENDROOT
BRANCH   1   4
ATOM      2  O   UNL     1      33.275 -23.284 -16.707  0.00  0.00    -0.425 OA
ATOM      3  N   UNL     1      31.160 -22.904 -17.425  0.00  0.00    -0.368 NA
ATOM      4  C   UNL     1      32.745 -24.563 -14.660  0.00  0.00    +0.014 C 
ATOM      5  C   UNL     1      32.418 -23.860 -15.814  0.00  0.00    +0.170 C 
ATOM      6  C   UNL     1      31.662 -25.051 -13.922  0.00  0.00    -0.005 C 
ATOM      7  C   UNL     1      31.125 -23.627 -16.257  0.00  0.00    +0.151 C 
ATOM      8  C   UNL     1      30.341 -24.837 -14.334  0.00  0.00    -0.019 C 
ATOM      9  C   UNL     1      30.050 -24.123 -15.506  0.00  0.00    +0.088 C 
ATOM     10  C   UNL     1      32.446 -22.735 -17.637  0.00  0.00    +0.282 C 
BRANCH  10  12
ATOM     11 CL   UNL     1      35.184 -19.902 -22.093  0.00  0.00    -0.082 Cl
ATOM     12  C   UNL     1      33.107 -22.050 -18.715  0.00  0.00    +0.066 C 
ATOM     13  C   UNL     1      34.482 -22.201 -18.897  0.00  0.00    +0.007 C 
ATOM     14  C   UNL     1      32.375 -21.235 -19.577  0.00  0.00    +0.007 C 
ATOM     15  C   UNL     1      35.124 -21.537 -19.942  0.00  0.00    +0.012 C 
ATOM     16  C   UNL     1      33.017 -20.571 -20.622  0.00  0.00    +0.012 C 
ATOM     17  C   UNL     1      34.392 -20.722 -20.804  0.00  0.00    +0.058 C 
ENDBRANCH  10  12
ENDBRANCH   1   4
BRANCH   1  18
ATOM     18  C   UNL     1      34.421 -24.457 -12.727  0.00  0.00    +0.023 C 
BRANCH  18  19
ATOM     19  C   UNL     1      35.722 -23.656 -12.455  0.00  0.00    +0.087 C 
BRANCH  19  20
ATOM     20  N   UNL     1      36.542 -23.419 -13.717  0.00  0.00    -0.246 NA
ATOM     21  N   UNL     1      38.168 -23.641 -15.213  0.00  0.00    -0.251 NA
ATOM     22  C   UNL     1      36.262 -22.523 -14.708  0.00  0.00    +0.125 C 
ATOM     23  C   UNL     1      37.695 -24.068 -14.063  0.00  0.00    +0.201 C 
ATOM     24  C   UNL     1      37.279 -22.678 -15.621  0.00  0.00    +0.124 C 
BRANCH  24  27
ATOM     25  O   UNL     1      37.398 -22.517 -17.968  0.00  0.00    -0.269 OA
ATOM     26  N   UNL     1      37.615 -20.565 -16.786  0.00  0.00    -0.324 N 
ATOM     27  C   UNL     1      37.434 -21.955 -16.845  0.00  0.00    +0.257 C 
ATOM     28  H   UNL     1      37.724 -20.046 -17.616  0.00  0.00    +0.145 HD
ATOM     29  H   UNL     1      37.633 -20.108 -15.914  0.00  0.00    +0.145 HD
ENDBRANCH  24  27
ENDBRANCH  19  20
BRANCH  19  30
ATOM     30  C   UNL     1      36.541 -24.321 -11.316  0.00  0.00    +0.125 C 
ATOM     31  C   UNL     1      35.683 -24.898 -10.196  0.00  0.00    +0.033 C 
BRANCH  30  32
ATOM     32  O   UNL     1      37.479 -23.400 -10.763  0.00  0.00    -0.383 OA
ATOM     33  H   UNL     1      37.462 -22.575 -11.274  0.00  0.00    +0.210 HD
ENDBRANCH  30  32
ENDBRANCH  19  30
ENDBRANCH  18  19
ENDBRANCH   1  18
TORSDOF 8
ENDMDL
MODEL 7
REMARK VINA RESULT:      -9.7      2.819      5.709
REMARK  Name = 46937091
REMARK  8 active torsions:
REMARK  status: ('A' for Active; 'I' for Inactive)
REMARK    1  A    between atoms: C_1  and  C_4
REMARK    2  A    between atoms: C_1  and  C_18
REMARK    3  A    between atoms: C_10  and  C_12
REMARK    4  A    between atoms: C_18  and  C_19
REMARK    5  A    between atoms: C_19  and  N_20
REMARK    6  A    between atoms: C_19  and  C_30
REMARK    7  A    between atoms: C_24  and  C_27
REMARK    8  A    between atoms: C_30  and  O_32
REMARK                            x       y       z     vdW  Elec       q    Type
REMARK                         _______ _______ _______ _____ _____    ______ ____
ROOT
ATOM      1  C   UNL     1      37.172 -22.622 -15.588  0.00  0.00    +0.031 C 
ENDROOT
BRANCH   1   4
ATOM      2  O   UNL     1      34.246 -23.261 -16.205  0.00  0.00    -0.425 OA
ATOM      3  N   UNL     1      33.136 -22.946 -18.156  0.00  0.00    -0.368 NA
ATOM      4  C   UNL     1      36.457 -22.401 -16.896  0.00  0.00    +0.014 C 
ATOM      5  C   UNL     1      35.119 -22.719 -17.103  0.00  0.00    +0.170 C 
ATOM      6  C   UNL     1      37.126 -21.852 -17.996  0.00  0.00    -0.005 C 
ATOM      7  C   UNL     1      34.437 -22.526 -18.296  0.00  0.00    +0.151 C 
ATOM      8  C   UNL     1      36.474 -21.643 -19.217  0.00  0.00    -0.019 C 
ATOM      9  C   UNL     1      35.122 -21.975 -19.387  0.00  0.00    +0.088 C 
ATOM     10  C   UNL     1      33.085 -23.365 -16.911  0.00  0.00    +0.282 C 
BRANCH  10  12
ATOM     11 CL   UNL     1      28.497 -25.660 -13.902  0.00  0.00    -0.082 Cl
ATOM     12  C   UNL     1      31.977 -23.920 -16.183  0.00  0.00    +0.066 C 
ATOM     13  C   UNL     1      30.671 -23.667 -16.603  0.00  0.00    +0.007 C 
ATOM     14  C   UNL     1      32.207 -24.711 -15.059  0.00  0.00    +0.007 C 
ATOM     15  C   UNL     1      29.595 -24.205 -15.898  0.00  0.00    +0.012 C 
ATOM     16  C   UNL     1      31.130 -25.249 -14.353  0.00  0.00    +0.012 C 
ATOM     17  C   UNL     1      29.825 -24.996 -14.773  0.00  0.00    +0.058 C 
ENDBRANCH  10  12
ENDBRANCH   1   4
BRANCH   1  18
ATOM     18  C   UNL     1      38.209 -23.758 -15.614  0.00  0.00    +0.023 C 
BRANCH  18  19
ATOM     19  C   UNL     1      37.751 -25.084 -14.951  0.00  0.00    +0.087 C 
BRANCH  19  20
ATOM     20  N   UNL     1      36.854 -24.859 -13.741  0.00  0.00    -0.246 NA
ATOM     21  N   UNL     1      35.001 -24.632 -12.539  0.00  0.00    -0.251 NA
ATOM     22  C   UNL     1      37.266 -24.625 -12.461  0.00  0.00    +0.125 C 
ATOM     23  C   UNL     1      35.487 -24.854 -13.740  0.00  0.00    +0.201 C 
ATOM     24  C   UNL     1      36.105 -24.488 -11.736  0.00  0.00    +0.124 C 
BRANCH  24  27
ATOM     25  O   UNL     1      35.341 -24.959  -9.559  0.00  0.00    -0.269 OA
ATOM     26  N   UNL     1      36.703 -23.131  -9.804  0.00  0.00    -0.324 N 
ATOM     27  C   UNL     1      36.009 -24.230 -10.333  0.00  0.00    +0.257 C 
ATOM     28  H   UNL     1      36.652 -22.933  -8.840  0.00  0.00    +0.145 HD
ATOM     29  H   UNL     1      37.241 -22.558 -10.396  0.00  0.00    +0.145 HD
ENDBRANCH  24  27
ENDBRANCH  19  20
BRANCH  19  30
ATOM     30  C   UNL     1      38.976 -25.986 -14.637  0.00  0.00    +0.125 C 
ATOM     31  C   UNL     1      40.244 -25.586 -15.385  0.00  0.00    +0.033 C 
BRANCH  30  32
ATOM     32  O   UNL     1      38.681 -27.354 -14.910  0.00  0.00    -0.383 OA
ATOM     33  H   UNL     1      39.011 -27.907 -14.185  0.00  0.00    +0.210 HD
ENDBRANCH  30  32
ENDBRANCH  19  30
ENDBRANCH  18  19
ENDBRANCH   1  18
TORSDOF 8
ENDMDL
MODEL 8
REMARK VINA RESULT:      -9.7     12.180     16.057
REMARK  Name = 46937091
REMARK  8 active torsions:
REMARK  status: ('A' for Active; 'I' for Inactive)
REMARK    1  A    between atoms: C_1  and  C_4
REMARK    2  A    between atoms: C_1  and  C_18
REMARK    3  A    between atoms: C_10  and  C_12
REMARK    4  A    between atoms: C_18  and  C_19
REMARK    5  A    between atoms: C_19  and  N_20
REMARK    6  A    between atoms: C_19  and  C_30
REMARK    7  A    between atoms: C_24  and  C_27
REMARK    8  A    between atoms: C_30  and  O_32
REMARK                            x       y       z     vdW  Elec       q    Type
REMARK                         _______ _______ _______ _____ _____    ______ ____
ROOT
ATOM      1  C   UNL     1      31.556 -10.997 -22.565  0.00  0.00    +0.031 C 
ENDROOT
BRANCH   1   4
ATOM      2  O   UNL     1      32.470  -8.116 -23.027  0.00  0.00    -0.425 OA
ATOM      3  N   UNL     1      32.773  -6.488 -21.480  0.00  0.00    -0.368 NA
ATOM      4  C   UNL     1      31.749  -9.933 -21.515  0.00  0.00    +0.014 C 
ATOM      5  C   UNL     1      32.169  -8.639 -21.803  0.00  0.00    +0.170 C 
ATOM      6  C   UNL     1      31.508 -10.204 -20.164  0.00  0.00    -0.005 C 
ATOM      7  C   UNL     1      32.355  -7.640 -20.858  0.00  0.00    +0.151 C 
ATOM      8  C   UNL     1      31.684  -9.224 -19.179  0.00  0.00    -0.019 C 
ATOM      9  C   UNL     1      32.109  -7.929 -19.508  0.00  0.00    +0.088 C 
ATOM     10  C   UNL     1      32.821  -6.830 -22.748  0.00  0.00    +0.282 C 
BRANCH  10  12
ATOM     11 CL   UNL     1      34.356  -3.553 -27.468  0.00  0.00    -0.082 Cl
ATOM     12  C   UNL     1      33.193  -6.038 -23.889  0.00  0.00    +0.066 C 
ATOM     13  C   UNL     1      32.341  -5.033 -24.346  0.00  0.00    +0.007 C 
ATOM     14  C   UNL     1      34.404  -6.274 -24.538  0.00  0.00    +0.007 C 
ATOM     15  C   UNL     1      32.701  -4.265 -25.453  0.00  0.00    +0.012 C 
ATOM     16  C   UNL     1      34.764  -5.506 -25.644  0.00  0.00    +0.012 C 
ATOM     17  C   UNL     1      33.912  -4.501 -26.102  0.00  0.00    +0.058 C 
ENDBRANCH  10  12
ENDBRANCH   1   4
BRANCH   1  18
ATOM     18  C   UNL     1      32.493 -12.209 -22.420  0.00  0.00    +0.023 C 
BRANCH  18  19
ATOM     19  C   UNL     1      32.895 -12.894 -23.753  0.00  0.00    +0.087 C 
BRANCH  19  20
ATOM     20  N   UNL     1      33.704 -14.167 -23.541  0.00  0.00    -0.246 NA
ATOM     21  N   UNL     1      35.110 -15.606 -22.600  0.00  0.00    -0.251 NA
ATOM     22  C   UNL     1      33.709 -15.267 -24.350  0.00  0.00    +0.125 C 
ATOM     23  C   UNL     1      34.560 -14.416 -22.504  0.00  0.00    +0.201 C 
ATOM     24  C   UNL     1      34.583 -16.143 -23.749  0.00  0.00    +0.124 C 
BRANCH  24  27
ATOM     25  O   UNL     1      35.655 -18.231 -23.557  0.00  0.00    -0.269 OA
ATOM     26  N   UNL     1      34.429 -17.869 -25.460  0.00  0.00    -0.324 N 
ATOM     27  C   UNL     1      34.931 -17.447 -24.220  0.00  0.00    +0.257 C 
ATOM     28  H   UNL     1      34.655 -18.764 -25.805  0.00  0.00    +0.145 HD
ATOM     29  H   UNL     1      33.851 -17.271 -25.986  0.00  0.00    +0.145 HD
ENDBRANCH  24  27
ENDBRANCH  19  20
BRANCH  19  30
ATOM     30  C   UNL     1      33.598 -11.879 -24.695  0.00  0.00    +0.125 C 
ATOM     31  C   UNL     1      33.715 -12.356 -26.138  0.00  0.00    +0.033 C 
BRANCH  30  32
ATOM     32  O   UNL     1      34.895 -11.548 -24.203  0.00  0.00    -0.383 OA
ATOM     33  H   UNL     1      35.460 -11.274 -24.943  0.00  0.00    +0.210 HD
ENDBRANCH  30  32
ENDBRANCH  19  30
ENDBRANCH  18  19
ENDBRANCH   1  18
TORSDOF 8
ENDMDL
MODEL 9
REMARK VINA RESULT:      -9.6      8.987     14.315
REMARK  Name = 46937091
REMARK  8 active torsions:
REMARK  status: ('A' for Active; 'I' for Inactive)
REMARK    1  A    between atoms: C_1  and  C_4
REMARK    2  A    between atoms: C_1  and  C_18
REMARK    3  A    between atoms: C_10  and  C_12
REMARK    4  A    between atoms: C_18  and  C_19
REMARK    5  A    between atoms: C_19  and  N_20
REMARK    6  A    between atoms: C_19  and  C_30
REMARK    7  A    between atoms: C_24  and  C_27
REMARK    8  A    between atoms: C_30  and  O_32
REMARK                            x       y       z     vdW  Elec       q    Type
REMARK                         _______ _______ _______ _____ _____    ______ ____
ROOT
ATOM      1  C   UNL     1      34.512 -14.467 -23.032  0.00  0.00    +0.031 C 
ENDROOT
BRANCH   1   4
ATOM      2  O   UNL     1      34.951 -17.444 -22.489  0.00  0.00    -0.425 OA
ATOM      3  N   UNL     1      34.580 -19.182 -23.895  0.00  0.00    -0.368 NA
ATOM      4  C   UNL     1      34.255 -15.605 -23.986  0.00  0.00    +0.014 C 
ATOM      5  C   UNL     1      34.481 -16.939 -23.667  0.00  0.00    +0.170 C 
ATOM      6  C   UNL     1      33.766 -15.365 -25.275  0.00  0.00    -0.005 C 
ATOM      7  C   UNL     1      34.254 -18.005 -24.525  0.00  0.00    +0.151 C 
ATOM      8  C   UNL     1      33.524 -16.413 -26.171  0.00  0.00    -0.019 C 
ATOM      9  C   UNL     1      33.763 -17.748 -25.813  0.00  0.00    +0.088 C 
ATOM     10  C   UNL     1      34.981 -18.788 -22.707  0.00  0.00    +0.282 C 
BRANCH  10  12
ATOM     11 CL   UNL     1      36.917 -22.044 -18.122  0.00  0.00    -0.082 Cl
ATOM     12  C   UNL     1      35.450 -19.574 -21.599  0.00  0.00    +0.066 C 
ATOM     13  C   UNL     1      34.602 -20.503 -20.996  0.00  0.00    +0.007 C 
ATOM     14  C   UNL     1      36.751 -19.410 -21.127  0.00  0.00    +0.007 C 
ATOM     15  C   UNL     1      35.055 -21.267 -19.921  0.00  0.00    +0.012 C 
ATOM     16  C   UNL     1      37.205 -20.173 -20.052  0.00  0.00    +0.012 C 
ATOM     17  C   UNL     1      36.357 -21.102 -19.449  0.00  0.00    +0.058 C 
ENDBRANCH  10  12
ENDBRANCH   1   4
BRANCH   1  18
ATOM     18  C   UNL     1      33.414 -13.389 -23.017  0.00  0.00    +0.023 C 
BRANCH  18  19
ATOM     19  C   UNL     1      33.884 -11.965 -23.418  0.00  0.00    +0.087 C 
BRANCH  19  20
ATOM     20  N   UNL     1      32.897 -10.881 -23.003  0.00  0.00    -0.246 NA
ATOM     21  N   UNL     1      31.139  -9.927 -22.038  0.00  0.00    -0.251 NA
ATOM     22  C   UNL     1      32.953  -9.561 -23.347  0.00  0.00    +0.125 C 
ATOM     23  C   UNL     1      31.792 -11.054 -22.217  0.00  0.00    +0.201 C 
ATOM     24  C   UNL     1      31.858  -8.991 -22.739  0.00  0.00    +0.124 C 
BRANCH  24  27
ATOM     25  O   UNL     1      31.484  -6.868 -21.792  0.00  0.00    -0.269 OA
ATOM     26  N   UNL     1      31.101  -7.078 -24.042  0.00  0.00    -0.324 N 
ATOM     27  C   UNL     1      31.477  -7.615 -22.802  0.00  0.00    +0.257 C 
ATOM     28  H   UNL     1      30.835  -6.132 -24.110  0.00  0.00    +0.145 HD
ATOM     29  H   UNL     1      31.102  -7.647 -24.846  0.00  0.00    +0.145 HD
ENDBRANCH  24  27
ENDBRANCH  19  20
BRANCH  19  30
ATOM     30  C   UNL     1      34.238 -11.914 -24.928  0.00  0.00    +0.125 C 
ATOM     31  C   UNL     1      35.142 -10.747 -25.310  0.00  0.00    +0.033 C 
BRANCH  30  32
ATOM     32  O   UNL     1      33.057 -11.874 -25.725  0.00  0.00    -0.383 OA
ATOM     33  H   UNL     1      33.085 -11.097 -26.305  0.00  0.00    +0.210 HD
ENDBRANCH  30  32
ENDBRANCH  19  30
ENDBRANCH  18  19
ENDBRANCH   1  18
TORSDOF 8
ENDMDL
