MODEL 1
REMARK VINA RESULT:     -11.0      0.000      0.000
REMARK  Name = 71616860
REMARK  5 active torsions:
REMARK  status: ('A' for Active; 'I' for Inactive)
REMARK    1  A    between atoms: C_10  and  C_17
REMARK    2  A    between atoms: C_15  and  O_21
REMARK    3  A    between atoms: C_16  and  C_18
REMARK    4  A    between atoms: O_21  and  C_22
REMARK    5  A    between atoms: C_22  and  C_25
REMARK                            x       y       z     vdW  Elec       q    Type
REMARK                         _______ _______ _______ _____ _____    ______ ____
ROOT
ATOM      1  O   UNL     1      37.257 -24.760 -13.628  0.00  0.00    -0.193 OA
ATOM      2  N   UNL     1      36.183 -23.749 -15.411  0.00  0.00    -0.205 N 
ATOM      3  N   UNL     1      34.989 -24.785 -13.604  0.00  0.00    -0.284 NA
ATOM      4  C   UNL     1      37.394 -22.040 -16.740  0.00  0.00    +0.049 C 
ATOM      5  C   UNL     1      36.236 -22.021 -17.698  0.00  0.00    -0.019 C 
ATOM      6  C   UNL     1      37.456 -23.396 -16.049  0.00  0.00    +0.114 C 
ATOM      7  C   UNL     1      35.053 -22.716 -17.369  0.00  0.00    +0.011 C 
ATOM      8  C   UNL     1      34.987 -23.444 -16.070  0.00  0.00    +0.068 C 
ATOM      9  C   UNL     1      36.324 -21.292 -18.893  0.00  0.00    +0.004 C 
ATOM     10  C   UNL     1      35.258 -21.277 -19.788  0.00  0.00    +0.041 C 
ATOM     11  C   UNL     1      33.997 -22.701 -18.294  0.00  0.00    +0.002 C 
ATOM     12  C   UNL     1      33.812 -23.770 -15.510  0.00  0.00    +0.088 C 
ATOM     13  C   UNL     1      34.099 -21.986 -19.491  0.00  0.00    +0.008 C 
ATOM     14  C   UNL     1      36.199 -24.449 -14.181  0.00  0.00    +0.275 C 
ATOM     15  C   UNL     1      33.909 -24.466 -14.226  0.00  0.00    +0.291 C 
ENDROOT
BRANCH  10  17
ATOM     16  C   UNL     1      35.440 -19.920 -22.032  0.00  0.00    -0.087 C 
ATOM     17  C   UNL     1      35.356 -20.539 -21.008  0.00  0.00    -0.064 C 
BRANCH  16  18
ATOM     18  C   UNL     1      35.543 -19.178 -23.262  0.00  0.00    +0.065 C 
ATOM     19  C   UNL     1      35.052 -17.759 -23.288  0.00  0.00    +0.014 C 
ATOM     20  C   UNL     1      34.280 -18.830 -23.999  0.00  0.00    +0.014 C 
ENDBRANCH  16  18
ENDBRANCH  10  17
BRANCH  15  21
ATOM     21  O   UNL     1      32.703 -24.774 -13.697  0.00  0.00    -0.448 OA
BRANCH  21  22
ATOM     22  C   UNL     1      31.918 -23.639 -13.361  0.00  0.00    +0.240 C 
BRANCH  22  25
ATOM     23  O   UNL     1      30.386 -22.969 -15.072  0.00  0.00    -0.347 OA
ATOM     24  O   UNL     1      28.960 -25.382 -14.914  0.00  0.00    -0.348 OA
ATOM     25  C   UNL     1      30.519 -23.820 -13.927  0.00  0.00    +0.188 C 
ATOM     26  C   UNL     1      30.267 -25.267 -14.343  0.00  0.00    +0.175 C 
ATOM     27  C   UNL     1      29.082 -23.088 -15.646  0.00  0.00    +0.174 C 
ATOM     28  C   UNL     1      28.832 -24.529 -16.054  0.00  0.00    +0.174 C 
ENDBRANCH  22  25
ENDBRANCH  21  22
ENDBRANCH  15  21
TORSDOF 5
ENDMDL
MODEL 2
REMARK VINA RESULT:     -10.7      5.228      9.680
REMARK  Name = 71616860
REMARK  5 active torsions:
REMARK  status: ('A' for Active; 'I' for Inactive)
REMARK    1  A    between atoms: C_10  and  C_17
REMARK    2  A    between atoms: C_15  and  O_21
REMARK    3  A    between atoms: C_16  and  C_18
REMARK    4  A    between atoms: O_21  and  C_22
REMARK    5  A    between atoms: C_22  and  C_25
REMARK                            x       y       z     vdW  Elec       q    Type
REMARK                         _______ _______ _______ _____ _____    ______ ____
ROOT
ATOM      1  O   UNL     1      38.301 -18.737 -21.853  0.00  0.00    -0.193 OA
ATOM      2  N   UNL     1      36.377 -19.771 -21.089  0.00  0.00    -0.205 N 
ATOM      3  N   UNL     1      36.449 -18.535 -23.146  0.00  0.00    -0.284 NA
ATOM      4  C   UNL     1      36.571 -21.648 -19.478  0.00  0.00    +0.049 C 
ATOM      5  C   UNL     1      35.074 -21.637 -19.345  0.00  0.00    -0.019 C 
ATOM      6  C   UNL     1      37.052 -20.261 -19.882  0.00  0.00    +0.114 C 
ATOM      7  C   UNL     1      34.307 -20.834 -20.214  0.00  0.00    +0.011 C 
ATOM      8  C   UNL     1      35.010 -20.023 -21.250  0.00  0.00    +0.068 C 
ATOM      9  C   UNL     1      34.448 -22.444 -18.383  0.00  0.00    +0.004 C 
ATOM     10  C   UNL     1      33.063 -22.432 -18.250  0.00  0.00    +0.041 C 
ATOM     11  C   UNL     1      32.912 -20.824 -20.051  0.00  0.00    +0.002 C 
ATOM     12  C   UNL     1      34.370 -19.573 -22.340  0.00  0.00    +0.088 C 
ATOM     13  C   UNL     1      32.297 -21.618 -19.078  0.00  0.00    +0.008 C 
ATOM     14  C   UNL     1      37.108 -18.999 -22.023  0.00  0.00    +0.275 C 
ATOM     15  C   UNL     1      35.198 -18.808 -23.273  0.00  0.00    +0.291 C 
ENDROOT
BRANCH  10  17
ATOM     16  C   UNL     1      31.898 -23.935 -16.434  0.00  0.00    -0.087 C 
ATOM     17  C   UNL     1      32.430 -23.249 -17.263  0.00  0.00    -0.064 C 
BRANCH  16  18
ATOM     18  C   UNL     1      31.258 -24.756 -15.439  0.00  0.00    +0.065 C 
ATOM     19  C   UNL     1      29.758 -24.840 -15.434  0.00  0.00    +0.014 C 
ATOM     20  C   UNL     1      30.469 -24.083 -14.352  0.00  0.00    +0.014 C 
ENDBRANCH  16  18
ENDBRANCH  10  17
BRANCH  15  21
ATOM     21  O   UNL     1      34.514 -18.375 -24.357  0.00  0.00    -0.448 OA
BRANCH  21  22
ATOM     22  C   UNL     1      34.920 -17.095 -24.817  0.00  0.00    +0.240 C 
BRANCH  22  25
ATOM     23  O   UNL     1      35.101 -15.349 -23.192  0.00  0.00    -0.347 OA
ATOM     24  O   UNL     1      32.854 -14.005 -24.203  0.00  0.00    -0.348 OA
ATOM     25  C   UNL     1      34.167 -16.028 -24.040  0.00  0.00    +0.188 C 
ATOM     26  C   UNL     1      33.508 -15.016 -24.975  0.00  0.00    +0.175 C 
ATOM     27  C   UNL     1      34.448 -14.334 -22.425  0.00  0.00    +0.174 C 
ATOM     28  C   UNL     1      33.789 -13.332 -23.357  0.00  0.00    +0.174 C 
ENDBRANCH  22  25
ENDBRANCH  21  22
ENDBRANCH  15  21
TORSDOF 5
ENDMDL
MODEL 3
REMARK VINA RESULT:     -10.7      6.324     10.250
REMARK  Name = 71616860
REMARK  5 active torsions:
REMARK  status: ('A' for Active; 'I' for Inactive)
REMARK    1  A    between atoms: C_10  and  C_17
REMARK    2  A    between atoms: C_15  and  O_21
REMARK    3  A    between atoms: C_16  and  C_18
REMARK    4  A    between atoms: O_21  and  C_22
REMARK    5  A    between atoms: C_22  and  C_25
REMARK                            x       y       z     vdW  Elec       q    Type
REMARK                         _______ _______ _______ _____ _____    ______ ____
ROOT
ATOM      1  O   UNL     1      33.600 -19.405 -26.005  0.00  0.00    -0.193 OA
ATOM      2  N   UNL     1      33.922 -17.388 -24.916  0.00  0.00    -0.205 N 
ATOM      3  N   UNL     1      34.897 -19.442 -24.145  0.00  0.00    -0.284 NA
ATOM      4  C   UNL     1      33.610 -15.273 -26.174  0.00  0.00    +0.049 C 
ATOM      5  C   UNL     1      33.786 -14.524 -24.882  0.00  0.00    -0.019 C 
ATOM      6  C   UNL     1      33.081 -16.670 -25.881  0.00  0.00    +0.114 C 
ATOM      7  C   UNL     1      34.198 -15.223 -23.728  0.00  0.00    +0.011 C 
ATOM      8  C   UNL     1      34.456 -16.688 -23.829  0.00  0.00    +0.068 C 
ATOM      9  C   UNL     1      33.571 -13.139 -24.838  0.00  0.00    +0.004 C 
ATOM     10  C   UNL     1      33.724 -12.442 -23.643  0.00  0.00    +0.041 C 
ATOM     11  C   UNL     1      34.330 -14.502 -22.530  0.00  0.00    +0.002 C 
ATOM     12  C   UNL     1      35.217 -17.328 -22.929  0.00  0.00    +0.088 C 
ATOM     13  C   UNL     1      34.097 -13.125 -22.489  0.00  0.00    +0.008 C 
ATOM     14  C   UNL     1      34.113 -18.782 -25.073  0.00  0.00    +0.275 C 
ATOM     15  C   UNL     1      35.393 -18.760 -23.172  0.00  0.00    +0.291 C 
ENDROOT
BRANCH  10  17
ATOM     16  C   UNL     1      33.305  -9.848 -23.564  0.00  0.00    -0.087 C 
ATOM     17  C   UNL     1      33.496 -11.033 -23.601  0.00  0.00    -0.064 C 
BRANCH  16  18
ATOM     18  C   UNL     1      33.078  -8.427 -23.520  0.00  0.00    +0.065 C 
ATOM     19  C   UNL     1      34.267  -7.511 -23.468  0.00  0.00    +0.014 C 
ATOM     20  C   UNL     1      33.405  -7.686 -22.254  0.00  0.00    +0.014 C 
ENDBRANCH  16  18
ENDBRANCH  10  17
BRANCH  15  21
ATOM     21  O   UNL     1      36.167 -19.365 -22.243  0.00  0.00    -0.448 OA
BRANCH  21  22
ATOM     22  C   UNL     1      35.627 -19.321 -20.931  0.00  0.00    +0.240 C 
BRANCH  22  25
ATOM     23  O   UNL     1      35.485 -21.139 -19.381  0.00  0.00    -0.347 OA
ATOM     24  O   UNL     1      32.867 -21.771 -20.172  0.00  0.00    -0.348 OA
ATOM     25  C   UNL     1      34.962 -20.653 -20.624  0.00  0.00    +0.188 C 
ATOM     26  C   UNL     1      33.446 -20.507 -20.510  0.00  0.00    +0.175 C 
ATOM     27  C   UNL     1      34.901 -22.399 -19.041  0.00  0.00    +0.174 C 
ATOM     28  C   UNL     1      33.393 -22.252 -18.934  0.00  0.00    +0.174 C 
ENDBRANCH  22  25
ENDBRANCH  21  22
ENDBRANCH  15  21
TORSDOF 5
ENDMDL
MODEL 4
REMARK VINA RESULT:     -10.0      2.551      4.987
REMARK  Name = 71616860
REMARK  5 active torsions:
REMARK  status: ('A' for Active; 'I' for Inactive)
REMARK    1  A    between atoms: C_10  and  C_17
REMARK    2  A    between atoms: C_15  and  O_21
REMARK    3  A    between atoms: C_16  and  C_18
REMARK    4  A    between atoms: O_21  and  C_22
REMARK    5  A    between atoms: C_22  and  C_25
REMARK                            x       y       z     vdW  Elec       q    Type
REMARK                         _______ _______ _______ _____ _____    ______ ____
ROOT
ATOM      1  O   UNL     1      33.613 -24.104 -15.710  0.00  0.00    -0.193 OA
ATOM      2  N   UNL     1      34.609 -22.814 -17.354  0.00  0.00    -0.205 N 
ATOM      3  N   UNL     1      35.862 -23.842 -15.583  0.00  0.00    -0.284 NA
ATOM      4  C   UNL     1      33.441 -22.506 -19.521  0.00  0.00    +0.049 C 
ATOM      5  C   UNL     1      34.506 -21.518 -19.909  0.00  0.00    -0.019 C 
ATOM      6  C   UNL     1      33.321 -22.548 -18.004  0.00  0.00    +0.114 C 
ATOM      7  C   UNL     1      35.646 -21.371 -19.092  0.00  0.00    +0.011 C 
ATOM      8  C   UNL     1      35.763 -22.212 -17.866  0.00  0.00    +0.068 C 
ATOM      9  C   UNL     1      34.376 -20.773 -21.091  0.00  0.00    +0.004 C 
ATOM     10  C   UNL     1      35.354 -19.851 -21.451  0.00  0.00    +0.041 C 
ATOM     11  C   UNL     1      36.612 -20.423 -19.466  0.00  0.00    +0.002 C 
ATOM     12  C   UNL     1      36.950 -22.432 -17.279  0.00  0.00    +0.088 C 
ATOM     13  C   UNL     1      36.467 -19.672 -20.636  0.00  0.00    +0.008 C 
ATOM     14  C   UNL     1      34.640 -23.615 -16.188  0.00  0.00    +0.275 C 
ATOM     15  C   UNL     1      36.907 -23.293 -16.097  0.00  0.00    +0.291 C 
ENDROOT
BRANCH  10  17
ATOM     16  C   UNL     1      35.096 -18.447 -23.659  0.00  0.00    -0.087 C 
ATOM     17  C   UNL     1      35.214 -19.089 -22.651  0.00  0.00    -0.064 C 
BRANCH  16  18
ATOM     18  C   UNL     1      34.955 -17.675 -24.867  0.00  0.00    +0.065 C 
ATOM     19  C   UNL     1      34.141 -16.415 -24.823  0.00  0.00    +0.014 C 
ATOM     20  C   UNL     1      33.610 -17.624 -25.533  0.00  0.00    +0.014 C 
ENDBRANCH  16  18
ENDBRANCH  10  17
BRANCH  15  21
ATOM     21  O   UNL     1      38.122 -23.489 -15.539  0.00  0.00    -0.448 OA
BRANCH  21  22
ATOM     22  C   UNL     1      38.289 -24.777 -14.966  0.00  0.00    +0.240 C 
BRANCH  22  25
ATOM     23  O   UNL     1      37.836 -23.313 -13.128  0.00  0.00    -0.347 OA
ATOM     24  O   UNL     1      37.070 -25.439 -11.462  0.00  0.00    -0.348 OA
ATOM     25  C   UNL     1      38.200 -24.661 -13.452  0.00  0.00    +0.188 C 
ATOM     26  C   UNL     1      37.156 -25.617 -12.879  0.00  0.00    +0.175 C 
ATOM     27  C   UNL     1      37.744 -23.138 -11.712  0.00  0.00    +0.174 C 
ATOM     28  C   UNL     1      36.710 -24.093 -11.143  0.00  0.00    +0.174 C 
ENDBRANCH  22  25
ENDBRANCH  21  22
ENDBRANCH  15  21
TORSDOF 5
ENDMDL
MODEL 5
REMARK VINA RESULT:      -9.9      1.778      5.326
REMARK  Name = 71616860
REMARK  5 active torsions:
REMARK  status: ('A' for Active; 'I' for Inactive)
REMARK    1  A    between atoms: C_10  and  C_17
REMARK    2  A    between atoms: C_15  and  O_21
REMARK    3  A    between atoms: C_16  and  C_18
REMARK    4  A    between atoms: O_21  and  C_22
REMARK    5  A    between atoms: C_22  and  C_25
REMARK                            x       y       z     vdW  Elec       q    Type
REMARK                         _______ _______ _______ _____ _____    ______ ____
ROOT
ATOM      1  O   UNL     1      31.805 -24.356 -14.051  0.00  0.00    -0.193 OA
ATOM      2  N   UNL     1      33.197 -23.604 -15.740  0.00  0.00    -0.205 N 
ATOM      3  N   UNL     1      33.965 -25.042 -13.978  0.00  0.00    -0.284 NA
ATOM      4  C   UNL     1      32.200 -22.860 -17.886  0.00  0.00    +0.049 C 
ATOM      5  C   UNL     1      33.565 -22.402 -18.317  0.00  0.00    -0.019 C 
ATOM      6  C   UNL     1      32.115 -22.837 -16.366  0.00  0.00    +0.114 C 
ATOM      7  C   UNL     1      34.687 -22.731 -17.528  0.00  0.00    +0.011 C 
ATOM      8  C   UNL     1      34.482 -23.535 -16.289  0.00  0.00    +0.068 C 
ATOM      9  C   UNL     1      33.720 -21.680 -19.509  0.00  0.00    +0.004 C 
ATOM     10  C   UNL     1      34.981 -21.245 -19.909  0.00  0.00    +0.041 C 
ATOM     11  C   UNL     1      35.946 -22.267 -17.941  0.00  0.00    +0.002 C 
ATOM     12  C   UNL     1      35.488 -24.219 -15.724  0.00  0.00    +0.088 C 
ATOM     13  C   UNL     1      36.091 -21.533 -19.122  0.00  0.00    +0.008 C 
ATOM     14  C   UNL     1      32.928 -24.337 -14.560  0.00  0.00    +0.275 C 
ATOM     15  C   UNL     1      35.128 -24.976 -14.525  0.00  0.00    +0.291 C 
ENDROOT
BRANCH  10  17
ATOM     16  C   UNL     1      35.259 -19.880 -22.138  0.00  0.00    -0.087 C 
ATOM     17  C   UNL     1      35.133 -20.503 -21.120  0.00  0.00    -0.064 C 
BRANCH  16  18
ATOM     18  C   UNL     1      35.408 -19.133 -23.360  0.00  0.00    +0.065 C 
ATOM     19  C   UNL     1      34.935 -17.708 -23.394  0.00  0.00    +0.014 C 
ATOM     20  C   UNL     1      34.174 -18.768 -24.135  0.00  0.00    +0.014 C 
ENDBRANCH  16  18
ENDBRANCH  10  17
BRANCH  15  21
ATOM     21  O   UNL     1      36.171 -25.650 -13.990  0.00  0.00    -0.448 OA
BRANCH  21  22
ATOM     22  C   UNL     1      36.938 -24.886 -13.072  0.00  0.00    +0.240 C 
BRANCH  22  25
ATOM     23  O   UNL     1      38.814 -26.320 -13.455  0.00  0.00    -0.347 OA
ATOM     24  O   UNL     1      39.998 -24.503 -15.237  0.00  0.00    -0.348 OA
ATOM     25  C   UNL     1      38.402 -24.948 -13.477  0.00  0.00    +0.188 C 
ATOM     26  C   UNL     1      38.619 -24.379 -14.877  0.00  0.00    +0.175 C 
ATOM     27  C   UNL     1      40.191 -26.444 -13.820  0.00  0.00    +0.174 C 
ATOM     28  C   UNL     1      40.405 -25.873 -15.211  0.00  0.00    +0.174 C 
ENDBRANCH  22  25
ENDBRANCH  21  22
ENDBRANCH  15  21
TORSDOF 5
ENDMDL
MODEL 6
REMARK VINA RESULT:      -9.8      7.644     11.628
REMARK  Name = 71616860
REMARK  5 active torsions:
REMARK  status: ('A' for Active; 'I' for Inactive)
REMARK    1  A    between atoms: C_10  and  C_17
REMARK    2  A    between atoms: C_15  and  O_21
REMARK    3  A    between atoms: C_16  and  C_18
REMARK    4  A    between atoms: O_21  and  C_22
REMARK    5  A    between atoms: C_22  and  C_25
REMARK                            x       y       z     vdW  Elec       q    Type
REMARK                         _______ _______ _______ _____ _____    ______ ____
ROOT
ATOM      1  O   UNL     1      34.166 -16.985 -26.313  0.00  0.00    -0.193 OA
ATOM      2  N   UNL     1      33.867 -15.171 -24.907  0.00  0.00    -0.205 N 
ATOM      3  N   UNL     1      34.870 -17.225 -24.171  0.00  0.00    -0.284 NA
ATOM      4  C   UNL     1      33.623 -12.907 -25.891  0.00  0.00    +0.049 C 
ATOM      5  C   UNL     1      33.312 -12.386 -24.515  0.00  0.00    -0.019 C 
ATOM      6  C   UNL     1      33.241 -14.379 -25.971  0.00  0.00    +0.114 C 
ATOM      7  C   UNL     1      33.474 -13.234 -23.400  0.00  0.00    +0.011 C 
ATOM      8  C   UNL     1      33.960 -14.626 -23.622  0.00  0.00    +0.068 C 
ATOM      9  C   UNL     1      32.893 -11.058 -24.345  0.00  0.00    +0.004 C 
ATOM     10  C   UNL     1      32.596 -10.572 -23.075  0.00  0.00    +0.041 C 
ATOM     11  C   UNL     1      33.152 -12.728 -22.130  0.00  0.00    +0.002 C 
ATOM     12  C   UNL     1      34.517 -15.339 -22.632  0.00  0.00    +0.088 C 
ATOM     13  C   UNL     1      32.719 -11.409 -21.970  0.00  0.00    +0.008 C 
ATOM     14  C   UNL     1      34.296 -16.490 -25.191  0.00  0.00    +0.275 C 
ATOM     15  C   UNL     1      34.962 -16.681 -23.008  0.00  0.00    +0.291 C 
ENDROOT
BRANCH  10  17
ATOM     16  C   UNL     1      31.797  -8.087 -22.767  0.00  0.00    -0.087 C 
ATOM     17  C   UNL     1      32.163  -9.221 -22.907  0.00  0.00    -0.064 C 
BRANCH  16  18
ATOM     18  C   UNL     1      31.356  -6.726 -22.599  0.00  0.00    +0.065 C 
ATOM     19  C   UNL     1      32.321  -5.616 -22.902  0.00  0.00    +0.014 C 
ATOM     20  C   UNL     1      31.945  -5.913 -21.480  0.00  0.00    +0.014 C 
ENDBRANCH  16  18
ENDBRANCH  10  17
BRANCH  15  21
ATOM     21  O   UNL     1      35.518 -17.363 -21.981  0.00  0.00    -0.448 OA
BRANCH  21  22
ATOM     22  C   UNL     1      35.609 -18.763 -22.205  0.00  0.00    +0.240 C 
BRANCH  22  25
ATOM     23  O   UNL     1      33.801 -20.112 -21.408  0.00  0.00    -0.347 OA
ATOM     24  O   UNL     1      35.382 -21.260 -19.392  0.00  0.00    -0.348 OA
ATOM     25  C   UNL     1      35.029 -19.494 -21.005  0.00  0.00    +0.188 C 
ATOM     26  C   UNL     1      35.986 -20.566 -20.487  0.00  0.00    +0.175 C 
ATOM     27  C   UNL     1      33.200 -20.812 -20.315  0.00  0.00    +0.174 C 
ATOM     28  C   UNL     1      34.156 -21.873 -19.799  0.00  0.00    +0.174 C 
ENDBRANCH  22  25
ENDBRANCH  21  22
ENDBRANCH  15  21
TORSDOF 5
ENDMDL
MODEL 7
REMARK VINA RESULT:      -9.7      8.204     12.824
REMARK  Name = 71616860
REMARK  5 active torsions:
REMARK  status: ('A' for Active; 'I' for Inactive)
REMARK    1  A    between atoms: C_10  and  C_17
REMARK    2  A    between atoms: C_15  and  O_21
REMARK    3  A    between atoms: C_16  and  C_18
REMARK    4  A    between atoms: O_21  and  C_22
REMARK    5  A    between atoms: C_22  and  C_25
REMARK                            x       y       z     vdW  Elec       q    Type
REMARK                         _______ _______ _______ _____ _____    ______ ____
ROOT
ATOM      1  O   UNL     1      33.810 -14.573 -27.382  0.00  0.00    -0.193 OA
ATOM      2  N   UNL     1      34.180 -15.508 -25.298  0.00  0.00    -0.205 N 
ATOM      3  N   UNL     1      33.478 -13.230 -25.585  0.00  0.00    -0.284 NA
ATOM      4  C   UNL     1      34.078 -17.974 -25.045  0.00  0.00    +0.049 C 
ATOM      5  C   UNL     1      34.560 -17.810 -23.631  0.00  0.00    -0.019 C 
ATOM      6  C   UNL     1      34.561 -16.798 -25.884  0.00  0.00    +0.114 C 
ATOM      7  C   UNL     1      34.647 -16.516 -23.075  0.00  0.00    +0.011 C 
ATOM      8  C   UNL     1      34.247 -15.348 -23.910  0.00  0.00    +0.068 C 
ATOM      9  C   UNL     1      34.890 -18.938 -22.865  0.00  0.00    +0.004 C 
ATOM     10  C   UNL     1      35.344 -18.791 -21.558  0.00  0.00    +0.041 C 
ATOM     11  C   UNL     1      35.124 -16.391 -21.760  0.00  0.00    +0.002 C 
ATOM     12  C   UNL     1      33.915 -14.172 -23.356  0.00  0.00    +0.088 C 
ATOM     13  C   UNL     1      35.467 -17.519 -21.009  0.00  0.00    +0.008 C 
ATOM     14  C   UNL     1      33.821 -14.442 -26.156  0.00  0.00    +0.275 C 
ATOM     15  C   UNL     1      33.527 -13.127 -24.303  0.00  0.00    +0.291 C 
ENDROOT
BRANCH  10  17
ATOM     16  C   UNL     1      35.973 -20.911 -20.135  0.00  0.00    -0.087 C 
ATOM     17  C   UNL     1      35.687 -19.943 -20.785  0.00  0.00    -0.064 C 
BRANCH  16  18
ATOM     18  C   UNL     1      36.315 -22.073 -19.357  0.00  0.00    +0.065 C 
ATOM     19  C   UNL     1      35.440 -22.442 -18.194  0.00  0.00    +0.014 C 
ATOM     20  C   UNL     1      36.808 -21.877 -17.951  0.00  0.00    +0.014 C 
ENDBRANCH  16  18
ENDBRANCH  10  17
BRANCH  15  21
ATOM     21  O   UNL     1      33.199 -11.961 -23.702  0.00  0.00    -0.448 OA
BRANCH  21  22
ATOM     22  C   UNL     1      34.013 -10.865 -24.094  0.00  0.00    +0.240 C 
BRANCH  22  25
ATOM     23  O   UNL     1      32.750  -9.822 -22.350  0.00  0.00    -0.347 OA
ATOM     24  O   UNL     1      33.752  -7.276 -22.977  0.00  0.00    -0.348 OA
ATOM     25  C   UNL     1      33.366  -9.574 -23.620  0.00  0.00    +0.188 C 
ATOM     26  C   UNL     1      34.394  -8.455 -23.471  0.00  0.00    +0.175 C 
ATOM     27  C   UNL     1      32.114  -8.641 -21.853  0.00  0.00    +0.174 C 
ATOM     28  C   UNL     1      33.138  -7.529 -21.712  0.00  0.00    +0.174 C 
ENDBRANCH  22  25
ENDBRANCH  21  22
ENDBRANCH  15  21
TORSDOF 5
ENDMDL
MODEL 8
REMARK VINA RESULT:      -9.6      9.832     14.116
REMARK  Name = 71616860
REMARK  5 active torsions:
REMARK  status: ('A' for Active; 'I' for Inactive)
REMARK    1  A    between atoms: C_10  and  C_17
REMARK    2  A    between atoms: C_15  and  O_21
REMARK    3  A    between atoms: C_16  and  C_18
REMARK    4  A    between atoms: O_21  and  C_22
REMARK    5  A    between atoms: C_22  and  C_25
REMARK                            x       y       z     vdW  Elec       q    Type
REMARK                         _______ _______ _______ _____ _____    ______ ____
ROOT
ATOM      1  O   UNL     1      31.738 -13.914 -20.419  0.00  0.00    -0.193 OA
ATOM      2  N   UNL     1      32.324 -12.103 -21.735  0.00  0.00    -0.205 N 
ATOM      3  N   UNL     1      33.196 -14.308 -22.111  0.00  0.00    -0.284 NA
ATOM      4  C   UNL     1      30.814 -10.136 -21.826  0.00  0.00    +0.049 C 
ATOM      5  C   UNL     1      31.863  -9.417 -22.628  0.00  0.00    -0.019 C 
ATOM      6  C   UNL     1      31.480 -11.191 -20.954  0.00  0.00    +0.114 C 
ATOM      7  C   UNL     1      32.988 -10.129 -23.092  0.00  0.00    +0.011 C 
ATOM      8  C   UNL     1      33.098 -11.583 -22.778  0.00  0.00    +0.068 C 
ATOM      9  C   UNL     1      31.703  -8.058 -22.936  0.00  0.00    +0.004 C 
ATOM     10  C   UNL     1      32.675  -7.386 -23.671  0.00  0.00    +0.041 C 
ATOM     11  C   UNL     1      33.964  -9.427 -23.818  0.00  0.00    +0.002 C 
ATOM     12  C   UNL     1      33.886 -12.397 -23.496  0.00  0.00    +0.088 C 
ATOM     13  C   UNL     1      33.807  -8.068 -24.105  0.00  0.00    +0.008 C 
ATOM     14  C   UNL     1      32.384 -13.469 -21.370  0.00  0.00    +0.275 C 
ATOM     15  C   UNL     1      33.874 -13.799 -23.079  0.00  0.00    +0.291 C 
ENDROOT
BRANCH  10  17
ATOM     16  C   UNL     1      32.376  -4.835 -24.232  0.00  0.00    -0.087 C 
ATOM     17  C   UNL     1      32.512  -5.999 -23.975  0.00  0.00    -0.064 C 
BRANCH  16  18
ATOM     18  C   UNL     1      32.212  -3.438 -24.542  0.00  0.00    +0.065 C 
ATOM     19  C   UNL     1      31.680  -2.523 -23.476  0.00  0.00    +0.014 C 
ATOM     20  C   UNL     1      30.820  -2.884 -24.650  0.00  0.00    +0.014 C 
ENDBRANCH  16  18
ENDBRANCH  10  17
BRANCH  15  21
ATOM     21  O   UNL     1      34.680 -14.583 -23.830  0.00  0.00    -0.448 OA
BRANCH  21  22
ATOM     22  C   UNL     1      35.073 -15.785 -23.185  0.00  0.00    +0.240 C 
BRANCH  22  25
ATOM     23  O   UNL     1      34.557 -18.105 -23.467  0.00  0.00    -0.347 OA
ATOM     24  O   UNL     1      33.881 -17.753 -26.169  0.00  0.00    -0.348 OA
ATOM     25  C   UNL     1      34.978 -16.933 -24.177  0.00  0.00    +0.188 C 
ATOM     26  C   UNL     1      33.976 -16.630 -25.289  0.00  0.00    +0.175 C 
ATOM     27  C   UNL     1      34.457 -19.226 -24.349  0.00  0.00    +0.174 C 
ATOM     28  C   UNL     1      33.463 -18.920 -25.456  0.00  0.00    +0.174 C 
ENDBRANCH  22  25
ENDBRANCH  21  22
ENDBRANCH  15  21
TORSDOF 5
ENDMDL
MODEL 9
REMARK VINA RESULT:      -8.9     11.460     16.009
REMARK  Name = 71616860
REMARK  5 active torsions:
REMARK  status: ('A' for Active; 'I' for Inactive)
REMARK    1  A    between atoms: C_10  and  C_17
REMARK    2  A    between atoms: C_15  and  O_21
REMARK    3  A    between atoms: C_16  and  C_18
REMARK    4  A    between atoms: O_21  and  C_22
REMARK    5  A    between atoms: C_22  and  C_25
REMARK                            x       y       z     vdW  Elec       q    Type
REMARK                         _______ _______ _______ _____ _____    ______ ____
ROOT
ATOM      1  O   UNL     1      31.242  -8.576 -20.006  0.00  0.00    -0.193 OA
ATOM      2  N   UNL     1      32.168  -9.958 -21.614  0.00  0.00    -0.205 N 
ATOM      3  N   UNL     1      32.533  -7.585 -21.585  0.00  0.00    -0.284 NA
ATOM      4  C   UNL     1      32.441 -12.374 -21.119  0.00  0.00    +0.049 C 
ATOM      5  C   UNL     1      32.868 -12.578 -22.546  0.00  0.00    -0.019 C 
ATOM      6  C   UNL     1      31.540 -11.149 -21.031  0.00  0.00    +0.114 C 
ATOM      7  C   UNL     1      33.097 -11.454 -23.368  0.00  0.00    +0.011 C 
ATOM      8  C   UNL     1      32.917 -10.092 -22.788  0.00  0.00    +0.068 C 
ATOM      9  C   UNL     1      33.064 -13.875 -23.043  0.00  0.00    +0.004 C 
ATOM     10  C   UNL     1      33.451 -14.070 -24.365  0.00  0.00    +0.041 C 
ATOM     11  C   UNL     1      33.471 -11.675 -24.703  0.00  0.00    +0.002 C 
ATOM     12  C   UNL     1      33.489  -9.014 -23.344  0.00  0.00    +0.088 C 
ATOM     13  C   UNL     1      33.647 -12.972 -25.196  0.00  0.00    +0.008 C 
ATOM     14  C   UNL     1      31.943  -8.697 -21.013  0.00  0.00    +0.275 C 
ATOM     15  C   UNL     1      33.235  -7.750 -22.651  0.00  0.00    +0.291 C 
ENDROOT
BRANCH  10  17
ATOM     16  C   UNL     1      33.801 -16.506 -25.290  0.00  0.00    -0.087 C 
ATOM     17  C   UNL     1      33.641 -15.393 -24.868  0.00  0.00    -0.064 C 
BRANCH  16  18
ATOM     18  C   UNL     1      33.992 -17.842 -25.793  0.00  0.00    +0.065 C 
ATOM     19  C   UNL     1      32.900 -18.851 -25.586  0.00  0.00    +0.014 C 
ATOM     20  C   UNL     1      34.177 -18.961 -24.808  0.00  0.00    +0.014 C 
ENDBRANCH  16  18
ENDBRANCH  10  17
BRANCH  15  21
ATOM     21  O   UNL     1      33.831  -6.691 -23.243  0.00  0.00    -0.448 OA
BRANCH  21  22
ATOM     22  C   UNL     1      33.114  -6.179 -24.357  0.00  0.00    +0.240 C 
BRANCH  22  25
ATOM     23  O   UNL     1      32.687  -3.956 -25.132  0.00  0.00    -0.347 OA
ATOM     24  O   UNL     1      30.563  -3.603 -23.331  0.00  0.00    -0.348 OA
ATOM     25  C   UNL     1      32.545  -4.817 -23.995  0.00  0.00    +0.188 C 
ATOM     26  C   UNL     1      31.069  -4.910 -23.615  0.00  0.00    +0.175 C 
ATOM     27  C   UNL     1      32.175  -2.651 -24.850  0.00  0.00    +0.174 C 
ATOM     28  C   UNL     1      30.709  -2.748 -24.467  0.00  0.00    +0.174 C 
ENDBRANCH  22  25
ENDBRANCH  21  22
ENDBRANCH  15  21
TORSDOF 5
ENDMDL
