MODEL 1
REMARK VINA RESULT:     -12.3      0.000      0.000
REMARK  Name = 9808844
REMARK  5 active torsions:
REMARK  status: ('A' for Active; 'I' for Inactive)
REMARK    1  A    between atoms: N_2  and  C_13
REMARK    2  A    between atoms: C_8  and  O_19
REMARK    3  A    between atoms: O_19  and  C_20
REMARK    4  A    between atoms: C_20  and  C_22
REMARK    5  A    between atoms: C_25  and  C_29
REMARK                            x       y       z     vdW  Elec       q    Type
REMARK                         _______ _______ _______ _____ _____    ______ ____
ROOT
ATOM      1  O   UNL     1      35.465 -23.075 -17.221  0.00  0.00    -0.446 OA
ATOM      2  N   UNL     1      35.713 -20.011 -20.770  0.00  0.00    -0.296 N 
ATOM      3  N   UNL     1      33.666 -21.145 -20.289  0.00  0.00    -0.130 NA
ATOM      4  N   UNL     1      32.898 -22.038 -19.550  0.00  0.00    -0.106 NA
ATOM      5  C   UNL     1      35.544 -21.608 -18.937  0.00  0.00    +0.076 A 
ATOM      6  C   UNL     1      34.748 -22.492 -18.221  0.00  0.00    +0.202 A 
ATOM      7  C   UNL     1      34.968 -20.922 -20.002  0.00  0.00    +0.157 A 
ATOM      8  C   UNL     1      33.420 -22.721 -18.513  0.00  0.00    +0.279 A 
ATOM      9  C   UNL     1      36.824 -21.662 -18.328  0.00  0.00    +0.047 C 
ATOM     10  C   UNL     1      36.723 -22.565 -17.293  0.00  0.00    +0.180 C 
ATOM     11  H   UNL     1      36.649 -19.922 -20.478  0.00  0.00    +0.154 HD
ENDROOT
BRANCH   2  13
ATOM     12 CL   UNL     1      34.344 -16.602 -25.414  0.00  0.00    -0.082 Cl
ATOM     13  C   UNL     1      35.387 -19.199 -21.877  0.00  0.00    +0.049 C 
ATOM     14  C   UNL     1      35.611 -17.824 -21.822  0.00  0.00    +0.016 C 
ATOM     15  C   UNL     1      34.841 -19.772 -23.026  0.00  0.00    +0.016 C 
ATOM     16  C   UNL     1      35.289 -17.021 -22.916  0.00  0.00    +0.013 C 
ATOM     17  C   UNL     1      34.519 -18.969 -24.119  0.00  0.00    +0.013 C 
ATOM     18  C   UNL     1      34.743 -17.594 -24.064  0.00  0.00    +0.058 C 
ENDBRANCH   2  13
BRANCH   8  19
ATOM     19  O   UNL     1      32.628 -23.592 -17.813  0.00  0.00    -0.452 OA
BRANCH  19  20
ATOM     20  C   UNL     1      31.753 -23.025 -16.844  0.00  0.00    +0.234 C 
BRANCH  20  22
ATOM     21  N   UNL     1      32.293 -25.060 -13.110  0.00  0.00    -0.239 NA
ATOM     22  C   UNL     1      31.943 -23.737 -15.536  0.00  0.00    +0.024 C 
ATOM     23  C   UNL     1      33.163 -23.668 -14.885  0.00  0.00    +0.023 C 
ATOM     24  C   UNL     1      30.895 -24.462 -14.989  0.00  0.00    +0.020 C 
ATOM     25  C   UNL     1      33.286 -24.342 -13.681  0.00  0.00    +0.134 C 
ATOM     26  C   UNL     1      31.120 -25.101 -13.781  0.00  0.00    +0.099 C 
BRANCH  25  29
ATOM     27  O   UNL     1      34.678 -24.968 -11.900  0.00  0.00    -0.268 OA
ATOM     28  N   UNL     1      35.571 -23.528 -13.484  0.00  0.00    -0.298 N 
ATOM     29  C   UNL     1      34.539 -24.309 -12.947  0.00  0.00    +0.264 C 
ATOM     30  C   UNL     1      36.881 -23.412 -12.884  0.00  0.00    +0.111 C 
ATOM     31  H   UNL     1      35.394 -23.033 -14.315  0.00  0.00    +0.150 HD
ENDBRANCH  25  29
ENDBRANCH  20  22
ENDBRANCH  19  20
ENDBRANCH   8  19
TORSDOF 5
ENDMDL
MODEL 2
REMARK VINA RESULT:     -12.1      2.305      3.697
REMARK  Name = 9808844
REMARK  5 active torsions:
REMARK  status: ('A' for Active; 'I' for Inactive)
REMARK    1  A    between atoms: N_2  and  C_13
REMARK    2  A    between atoms: C_8  and  O_19
REMARK    3  A    between atoms: O_19  and  C_20
REMARK    4  A    between atoms: C_20  and  C_22
REMARK    5  A    between atoms: C_25  and  C_29
REMARK                            x       y       z     vdW  Elec       q    Type
REMARK                         _______ _______ _______ _____ _____    ______ ____
ROOT
ATOM      1  O   UNL     1      35.585 -22.494 -18.280  0.00  0.00    -0.446 OA
ATOM      2  N   UNL     1      35.541 -19.377 -21.790  0.00  0.00    -0.296 N 
ATOM      3  N   UNL     1      33.511 -20.399 -21.052  0.00  0.00    -0.130 NA
ATOM      4  N   UNL     1      32.797 -21.261 -20.228  0.00  0.00    -0.106 NA
ATOM      5  C   UNL     1      35.521 -20.999 -19.972  0.00  0.00    +0.076 A 
ATOM      6  C   UNL     1      34.776 -21.850 -19.167  0.00  0.00    +0.202 A 
ATOM      7  C   UNL     1      34.851 -20.258 -20.940  0.00  0.00    +0.157 A 
ATOM      8  C   UNL     1      33.410 -21.995 -19.279  0.00  0.00    +0.279 A 
ATOM      9  C   UNL     1      36.866 -21.141 -19.541  0.00  0.00    +0.047 C 
ATOM     10  C   UNL     1      36.850 -22.057 -18.515  0.00  0.00    +0.180 C 
ATOM     11  H   UNL     1      36.511 -19.348 -21.626  0.00  0.00    +0.154 HD
ENDROOT
BRANCH   2  13
ATOM     12 CL   UNL     1      33.772 -15.796 -26.162  0.00  0.00    -0.082 Cl
ATOM     13  C   UNL     1      35.119 -18.523 -22.832  0.00  0.00    +0.049 C 
ATOM     14  C   UNL     1      35.310 -17.146 -22.726  0.00  0.00    +0.016 C 
ATOM     15  C   UNL     1      34.512 -19.058 -23.968  0.00  0.00    +0.016 C 
ATOM     16  C   UNL     1      34.894 -16.303 -23.755  0.00  0.00    +0.013 C 
ATOM     17  C   UNL     1      34.095 -18.214 -24.998  0.00  0.00    +0.013 C 
ATOM     18  C   UNL     1      34.287 -16.837 -24.891  0.00  0.00    +0.058 C 
ENDBRANCH   2  13
BRANCH   8  19
ATOM     19  O   UNL     1      32.667 -22.833 -18.490  0.00  0.00    -0.452 OA
BRANCH  19  20
ATOM     20  C   UNL     1      33.133 -23.042 -17.162  0.00  0.00    +0.234 C 
BRANCH  20  22
ATOM     21  N   UNL     1      29.808 -24.058 -14.655  0.00  0.00    -0.239 NA
ATOM     22  C   UNL     1      31.968 -23.398 -16.285  0.00  0.00    +0.024 C 
ATOM     23  C   UNL     1      30.676 -23.242 -16.758  0.00  0.00    +0.023 C 
ATOM     24  C   UNL     1      32.193 -23.879 -15.004  0.00  0.00    +0.020 C 
ATOM     25  C   UNL     1      29.636 -23.585 -15.910  0.00  0.00    +0.134 C 
ATOM     26  C   UNL     1      31.086 -24.193 -14.234  0.00  0.00    +0.099 C 
BRANCH  25  29
ATOM     27  O   UNL     1      27.794 -24.192 -17.227  0.00  0.00    -0.268 OA
ATOM     28  N   UNL     1      27.487 -22.461 -15.716  0.00  0.00    -0.298 N 
ATOM     29  C   UNL     1      28.258 -23.446 -16.346  0.00  0.00    +0.264 C 
ATOM     30  C   UNL     1      26.096 -22.217 -16.023  0.00  0.00    +0.111 C 
ATOM     31  H   UNL     1      27.915 -21.905 -15.027  0.00  0.00    +0.150 HD
ENDBRANCH  25  29
ENDBRANCH  20  22
ENDBRANCH  19  20
ENDBRANCH   8  19
TORSDOF 5
ENDMDL
MODEL 3
REMARK VINA RESULT:     -11.4      5.427      8.734
REMARK  Name = 9808844
REMARK  5 active torsions:
REMARK  status: ('A' for Active; 'I' for Inactive)
REMARK    1  A    between atoms: N_2  and  C_13
REMARK    2  A    between atoms: C_8  and  O_19
REMARK    3  A    between atoms: O_19  and  C_20
REMARK    4  A    between atoms: C_20  and  C_22
REMARK    5  A    between atoms: C_25  and  C_29
REMARK                            x       y       z     vdW  Elec       q    Type
REMARK                         _______ _______ _______ _____ _____    ______ ____
ROOT
ATOM      1  O   UNL     1      34.262 -16.569 -25.151  0.00  0.00    -0.446 OA
ATOM      2  N   UNL     1      32.769 -12.450 -23.464  0.00  0.00    -0.296 N 
ATOM      3  N   UNL     1      34.155 -13.873 -22.135  0.00  0.00    -0.130 NA
ATOM      4  N   UNL     1      34.886 -15.038 -21.933  0.00  0.00    -0.106 NA
ATOM      5  C   UNL     1      33.565 -14.595 -24.303  0.00  0.00    +0.076 A 
ATOM      6  C   UNL     1      34.304 -15.746 -24.067  0.00  0.00    +0.202 A 
ATOM      7  C   UNL     1      33.499 -13.640 -23.295  0.00  0.00    +0.157 A 
ATOM      8  C   UNL     1      34.974 -15.987 -22.886  0.00  0.00    +0.279 A 
ATOM      9  C   UNL     1      33.044 -14.735 -25.616  0.00  0.00    +0.047 C 
ATOM     10  C   UNL     1      33.496 -15.947 -26.085  0.00  0.00    +0.180 C 
ATOM     11  H   UNL     1      32.330 -12.379 -24.342  0.00  0.00    +0.154 HD
ENDROOT
BRANCH   2  13
ATOM     12 CL   UNL     1      31.812  -7.783 -19.949  0.00  0.00    -0.082 Cl
ATOM     13  C   UNL     1      32.541 -11.338 -22.626  0.00  0.00    +0.049 C 
ATOM     14  C   UNL     1      31.815 -11.492 -21.445  0.00  0.00    +0.016 C 
ATOM     15  C   UNL     1      33.042 -10.085 -22.979  0.00  0.00    +0.016 C 
ATOM     16  C   UNL     1      31.590 -10.393 -20.617  0.00  0.00    +0.013 C 
ATOM     17  C   UNL     1      32.817  -8.986 -22.151  0.00  0.00    +0.013 C 
ATOM     18  C   UNL     1      32.091  -9.140 -20.971  0.00  0.00    +0.058 C 
ENDBRANCH   2  13
BRANCH   8  19
ATOM     19  O   UNL     1      35.705 -17.120 -22.643  0.00  0.00    -0.452 OA
BRANCH  19  20
ATOM     20  C   UNL     1      35.039 -18.363 -22.829  0.00  0.00    +0.234 C 
BRANCH  20  22
ATOM     21  N   UNL     1      36.096 -21.005 -19.623  0.00  0.00    -0.239 NA
ATOM     22  C   UNL     1      35.408 -19.289 -21.706  0.00  0.00    +0.024 C 
ATOM     23  C   UNL     1      34.448 -20.119 -21.154  0.00  0.00    +0.023 C 
ATOM     24  C   UNL     1      36.709 -19.305 -21.229  0.00  0.00    +0.020 C 
ATOM     25  C   UNL     1      34.840 -20.955 -20.120  0.00  0.00    +0.134 C 
ATOM     26  C   UNL     1      37.000 -20.176 -20.191  0.00  0.00    +0.099 C 
BRANCH  25  29
ATOM     27  O   UNL     1      32.739 -21.988 -19.975  0.00  0.00    -0.268 OA
ATOM     28  N   UNL     1      34.310 -22.558 -18.368  0.00  0.00    -0.298 N 
ATOM     29  C   UNL     1      33.881 -21.851 -19.498  0.00  0.00    +0.264 C 
ATOM     30  C   UNL     1      33.482 -23.503 -17.653  0.00  0.00    +0.111 C 
ATOM     31  H   UNL     1      35.226 -22.404 -18.043  0.00  0.00    +0.150 HD
ENDBRANCH  25  29
ENDBRANCH  20  22
ENDBRANCH  19  20
ENDBRANCH   8  19
TORSDOF 5
ENDMDL
MODEL 4
REMARK VINA RESULT:     -11.4      6.203     11.200
REMARK  Name = 9808844
REMARK  5 active torsions:
REMARK  status: ('A' for Active; 'I' for Inactive)
REMARK    1  A    between atoms: N_2  and  C_13
REMARK    2  A    between atoms: C_8  and  O_19
REMARK    3  A    between atoms: O_19  and  C_20
REMARK    4  A    between atoms: C_20  and  C_22
REMARK    5  A    between atoms: C_25  and  C_29
REMARK                            x       y       z     vdW  Elec       q    Type
REMARK                         _______ _______ _______ _____ _____    ______ ____
ROOT
ATOM      1  O   UNL     1      34.598 -17.174 -24.820  0.00  0.00    -0.446 OA
ATOM      2  N   UNL     1      35.024 -20.466 -21.500  0.00  0.00    -0.296 N 
ATOM      3  N   UNL     1      35.256 -18.152 -20.949  0.00  0.00    -0.130 NA
ATOM      4  N   UNL     1      35.271 -16.804 -21.284  0.00  0.00    -0.106 NA
ATOM      5  C   UNL     1      34.810 -18.727 -23.194  0.00  0.00    +0.076 A 
ATOM      6  C   UNL     1      34.831 -17.372 -23.493  0.00  0.00    +0.202 A 
ATOM      7  C   UNL     1      35.031 -19.112 -21.876  0.00  0.00    +0.157 A 
ATOM      8  C   UNL     1      35.060 -16.392 -22.550  0.00  0.00    +0.279 A 
ATOM      9  C   UNL     1      34.546 -19.388 -24.422  0.00  0.00    +0.047 C 
ATOM     10  C   UNL     1      34.426 -18.402 -25.375  0.00  0.00    +0.180 C 
ATOM     11  H   UNL     1      34.851 -21.082 -22.249  0.00  0.00    +0.154 HD
ENDROOT
BRANCH   2  13
ATOM     12 CL   UNL     1      35.821 -23.207 -16.313  0.00  0.00    -0.082 Cl
ATOM     13  C   UNL     1      35.214 -21.119 -20.264  0.00  0.00    +0.049 C 
ATOM     14  C   UNL     1      36.482 -21.162 -19.686  0.00  0.00    +0.016 C 
ATOM     15  C   UNL     1      34.133 -21.722 -19.620  0.00  0.00    +0.016 C 
ATOM     16  C   UNL     1      36.670 -21.808 -18.464  0.00  0.00    +0.013 C 
ATOM     17  C   UNL     1      34.321 -22.367 -18.399  0.00  0.00    +0.013 C 
ATOM     18  C   UNL     1      35.589 -22.410 -17.821  0.00  0.00    +0.058 C 
ENDBRANCH   2  13
BRANCH   8  19
ATOM     19  O   UNL     1      35.084 -15.053 -22.836  0.00  0.00    -0.452 OA
BRANCH  19  20
ATOM     20  C   UNL     1      34.036 -14.555 -23.659  0.00  0.00    +0.234 C 
BRANCH  20  22
ATOM     21  N   UNL     1      32.009 -11.400 -21.583  0.00  0.00    -0.239 NA
ATOM     22  C   UNL     1      33.326 -13.449 -22.933  0.00  0.00    +0.024 C 
ATOM     23  C   UNL     1      33.364 -12.159 -23.435  0.00  0.00    +0.023 C 
ATOM     24  C   UNL     1      32.639 -13.727 -21.761  0.00  0.00    +0.020 C 
ATOM     25  C   UNL     1      32.692 -11.175 -22.727  0.00  0.00    +0.134 C 
ATOM     26  C   UNL     1      32.000 -12.673 -21.128  0.00  0.00    +0.099 C 
BRANCH  25  29
ATOM     27  O   UNL     1      33.682  -9.337 -23.795  0.00  0.00    -0.268 OA
ATOM     28  N   UNL     1      31.530  -9.052 -22.980  0.00  0.00    -0.298 N 
ATOM     29  C   UNL     1      32.692  -9.802 -23.202  0.00  0.00    +0.264 C 
ATOM     30  C   UNL     1      31.367  -7.683 -23.413  0.00  0.00    +0.111 C 
ATOM     31  H   UNL     1      30.783  -9.482 -22.505  0.00  0.00    +0.150 HD
ENDBRANCH  25  29
ENDBRANCH  20  22
ENDBRANCH  19  20
ENDBRANCH   8  19
TORSDOF 5
ENDMDL
MODEL 5
REMARK VINA RESULT:     -11.0      2.534      4.194
REMARK  Name = 9808844
REMARK  5 active torsions:
REMARK  status: ('A' for Active; 'I' for Inactive)
REMARK    1  A    between atoms: N_2  and  C_13
REMARK    2  A    between atoms: C_8  and  O_19
REMARK    3  A    between atoms: O_19  and  C_20
REMARK    4  A    between atoms: C_20  and  C_22
REMARK    5  A    between atoms: C_25  and  C_29
REMARK                            x       y       z     vdW  Elec       q    Type
REMARK                         _______ _______ _______ _____ _____    ______ ____
ROOT
ATOM      1  O   UNL     1      36.271 -23.706 -15.429  0.00  0.00    -0.446 OA
ATOM      2  N   UNL     1      36.444 -20.974 -19.242  0.00  0.00    -0.296 N 
ATOM      3  N   UNL     1      34.410 -22.067 -18.626  0.00  0.00    -0.130 NA
ATOM      4  N   UNL     1      33.660 -22.892 -17.797  0.00  0.00    -0.106 NA
ATOM      5  C   UNL     1      36.313 -22.399 -17.271  0.00  0.00    +0.076 A 
ATOM      6  C   UNL     1      35.534 -23.218 -16.465  0.00  0.00    +0.202 A 
ATOM      7  C   UNL     1      35.716 -21.814 -18.382  0.00  0.00    +0.157 A 
ATOM      8  C   UNL     1      34.202 -23.477 -16.711  0.00  0.00    +0.279 A 
ATOM      9  C   UNL     1      37.604 -22.395 -16.681  0.00  0.00    +0.047 C 
ATOM     10  C   UNL     1      37.525 -23.201 -15.568  0.00  0.00    +0.180 C 
ATOM     11  H   UNL     1      37.384 -20.856 -18.976  0.00  0.00    +0.154 HD
ENDROOT
BRANCH   2  13
ATOM     12 CL   UNL     1      34.980 -18.000 -24.149  0.00  0.00    -0.082 Cl
ATOM     13  C   UNL     1      36.095 -20.265 -20.412  0.00  0.00    +0.049 C 
ATOM     14  C   UNL     1      34.844 -20.459 -20.997  0.00  0.00    +0.016 C 
ATOM     15  C   UNL     1      37.001 -19.371 -20.982  0.00  0.00    +0.016 C 
ATOM     16  C   UNL     1      34.499 -19.758 -22.153  0.00  0.00    +0.013 C 
ATOM     17  C   UNL     1      36.656 -18.670 -22.137  0.00  0.00    +0.013 C 
ATOM     18  C   UNL     1      35.405 -18.864 -22.722  0.00  0.00    +0.058 C 
ENDBRANCH   2  13
BRANCH   8  19
ATOM     19  O   UNL     1      33.426 -24.284 -15.922  0.00  0.00    -0.452 OA
BRANCH  19  20
ATOM     20  C   UNL     1      32.627 -23.639 -14.936  0.00  0.00    +0.234 C 
BRANCH  20  22
ATOM     21  N   UNL     1      28.591 -25.041 -15.275  0.00  0.00    -0.239 NA
ATOM     22  C   UNL     1      31.213 -24.129 -15.056  0.00  0.00    +0.024 C 
ATOM     23  C   UNL     1      30.326 -23.476 -15.895  0.00  0.00    +0.023 C 
ATOM     24  C   UNL     1      30.804 -25.233 -14.324  0.00  0.00    +0.020 C 
ATOM     25  C   UNL     1      29.033 -23.969 -15.970  0.00  0.00    +0.134 C 
ATOM     26  C   UNL     1      29.490 -25.647 -14.468  0.00  0.00    +0.099 C 
BRANCH  25  29
ATOM     27  O   UNL     1      28.024 -23.580 -18.051  0.00  0.00    -0.268 OA
ATOM     28  N   UNL     1      27.148 -22.451 -16.225  0.00  0.00    -0.298 N 
ATOM     29  C   UNL     1      28.054 -23.329 -16.832  0.00  0.00    +0.264 C 
ATOM     30  C   UNL     1      26.102 -21.758 -16.943  0.00  0.00    +0.111 C 
ATOM     31  H   UNL     1      27.226 -22.298 -15.256  0.00  0.00    +0.150 HD
ENDBRANCH  25  29
ENDBRANCH  20  22
ENDBRANCH  19  20
ENDBRANCH   8  19
TORSDOF 5
ENDMDL
MODEL 6
REMARK VINA RESULT:     -11.0      7.563     11.221
REMARK  Name = 9808844
REMARK  5 active torsions:
REMARK  status: ('A' for Active; 'I' for Inactive)
REMARK    1  A    between atoms: N_2  and  C_13
REMARK    2  A    between atoms: C_8  and  O_19
REMARK    3  A    between atoms: O_19  and  C_20
REMARK    4  A    between atoms: C_20  and  C_22
REMARK    5  A    between atoms: C_25  and  C_29
REMARK                            x       y       z     vdW  Elec       q    Type
REMARK                         _______ _______ _______ _____ _____    ______ ____
ROOT
ATOM      1  O   UNL     1      32.265 -13.601 -21.522  0.00  0.00    -0.446 OA
ATOM      2  N   UNL     1      32.471  -9.096 -22.829  0.00  0.00    -0.296 N 
ATOM      3  N   UNL     1      33.514 -10.791 -24.152  0.00  0.00    -0.130 NA
ATOM      4  N   UNL     1      33.851 -12.113 -24.414  0.00  0.00    -0.106 NA
ATOM      5  C   UNL     1      32.386 -11.445 -22.185  0.00  0.00    +0.076 A 
ATOM      6  C   UNL     1      32.741 -12.755 -22.477  0.00  0.00    +0.202 A 
ATOM      7  C   UNL     1      32.794 -10.444 -23.061  0.00  0.00    +0.157 A 
ATOM      8  C   UNL     1      33.475 -13.110 -23.589  0.00  0.00    +0.279 A 
ATOM      9  C   UNL     1      31.648 -11.507 -20.975  0.00  0.00    +0.047 C 
ATOM     10  C   UNL     1      31.603 -12.834 -20.616  0.00  0.00    +0.180 C 
ATOM     11  H   UNL     1      31.946  -8.952 -22.009  0.00  0.00    +0.154 HD
ENDROOT
BRANCH   2  13
ATOM     12 CL   UNL     1      33.637  -4.111 -25.803  0.00  0.00    -0.082 Cl
ATOM     13  C   UNL     1      32.749  -7.908 -23.538  0.00  0.00    +0.049 C 
ATOM     14  C   UNL     1      31.703  -7.145 -24.057  0.00  0.00    +0.016 C 
ATOM     15  C   UNL     1      34.070  -7.496 -23.718  0.00  0.00    +0.016 C 
ATOM     16  C   UNL     1      31.978  -5.971 -24.757  0.00  0.00    +0.013 C 
ATOM     17  C   UNL     1      34.344  -6.322 -24.418  0.00  0.00    +0.013 C 
ATOM     18  C   UNL     1      33.298  -5.560 -24.937  0.00  0.00    +0.058 C 
ENDBRANCH   2  13
BRANCH   8  19
ATOM     19  O   UNL     1      33.830 -14.400 -23.885  0.00  0.00    -0.452 OA
BRANCH  19  20
ATOM     20  C   UNL     1      34.971 -14.920 -23.212  0.00  0.00    +0.234 C 
BRANCH  20  22
ATOM     21  N   UNL     1      34.886 -19.200 -23.428  0.00  0.00    -0.239 NA
ATOM     22  C   UNL     1      34.942 -16.419 -23.287  0.00  0.00    +0.024 C 
ATOM     23  C   UNL     1      35.382 -17.172 -22.211  0.00  0.00    +0.023 C 
ATOM     24  C   UNL     1      34.473 -17.041 -24.434  0.00  0.00    +0.020 C 
ATOM     25  C   UNL     1      35.334 -18.551 -22.330  0.00  0.00    +0.134 C 
ATOM     26  C   UNL     1      34.466 -18.427 -24.454  0.00  0.00    +0.099 C 
BRANCH  25  29
ATOM     27  O   UNL     1      36.845 -19.152 -20.640  0.00  0.00    -0.268 OA
ATOM     28  N   UNL     1      34.954 -20.471 -20.884  0.00  0.00    -0.298 N 
ATOM     29  C   UNL     1      35.781 -19.398 -21.238  0.00  0.00    +0.264 C 
ATOM     30  C   UNL     1      35.249 -21.387 -19.805  0.00  0.00    +0.111 C 
ATOM     31  H   UNL     1      34.126 -20.609 -21.397  0.00  0.00    +0.150 HD
ENDBRANCH  25  29
ENDBRANCH  20  22
ENDBRANCH  19  20
ENDBRANCH   8  19
TORSDOF 5
ENDMDL
MODEL 7
REMARK VINA RESULT:     -10.6      8.480     12.448
REMARK  Name = 9808844
REMARK  5 active torsions:
REMARK  status: ('A' for Active; 'I' for Inactive)
REMARK    1  A    between atoms: N_2  and  C_13
REMARK    2  A    between atoms: C_8  and  O_19
REMARK    3  A    between atoms: O_19  and  C_20
REMARK    4  A    between atoms: C_20  and  C_22
REMARK    5  A    between atoms: C_25  and  C_29
REMARK                            x       y       z     vdW  Elec       q    Type
REMARK                         _______ _______ _______ _____ _____    ______ ____
ROOT
ATOM      1  O   UNL     1      31.863 -12.016 -21.009  0.00  0.00    -0.446 OA
ATOM      2  N   UNL     1      32.633  -7.812 -22.952  0.00  0.00    -0.296 N 
ATOM      3  N   UNL     1      33.282  -9.810 -24.091  0.00  0.00    -0.130 NA
ATOM      4  N   UNL     1      33.390 -11.193 -24.184  0.00  0.00    -0.106 NA
ATOM      5  C   UNL     1      32.251 -10.013 -21.978  0.00  0.00    +0.076 A 
ATOM      6  C   UNL     1      32.375 -11.389 -22.105  0.00  0.00    +0.202 A 
ATOM      7  C   UNL     1      32.725  -9.213 -23.013  0.00  0.00    +0.157 A 
ATOM      8  C   UNL     1      32.942 -12.000 -23.203  0.00  0.00    +0.279 A 
ATOM      9  C   UNL     1      31.623  -9.796 -20.723  0.00  0.00    +0.047 C 
ATOM     10  C   UNL     1      31.409 -11.041 -20.177  0.00  0.00    +0.180 C 
ATOM     11  H   UNL     1      32.212  -7.480 -22.127  0.00  0.00    +0.154 HD
ENDROOT
BRANCH   2  13
ATOM     12 CL   UNL     1      34.271  -3.510 -26.676  0.00  0.00    -0.082 Cl
ATOM     13  C   UNL     1      33.023  -6.786 -23.840  0.00  0.00    +0.049 C 
ATOM     14  C   UNL     1      32.079  -5.874 -24.309  0.00  0.00    +0.016 C 
ATOM     15  C   UNL     1      34.354  -6.686 -24.247  0.00  0.00    +0.016 C 
ATOM     16  C   UNL     1      32.465  -4.860 -25.186  0.00  0.00    +0.013 C 
ATOM     17  C   UNL     1      34.739  -5.672 -25.124  0.00  0.00    +0.013 C 
ATOM     18  C   UNL     1      33.795  -4.760 -25.593  0.00  0.00    +0.058 C 
ENDBRANCH   2  13
BRANCH   8  19
ATOM     19  O   UNL     1      33.069 -13.358 -23.336  0.00  0.00    -0.452 OA
BRANCH  19  20
ATOM     20  C   UNL     1      33.288 -13.854 -24.652  0.00  0.00    +0.234 C 
BRANCH  20  22
ATOM     21  N   UNL     1      34.780 -17.865 -24.405  0.00  0.00    -0.239 NA
ATOM     22  C   UNL     1      33.811 -15.259 -24.564  0.00  0.00    +0.024 C 
ATOM     23  C   UNL     1      34.480 -15.675 -23.426  0.00  0.00    +0.023 C 
ATOM     24  C   UNL     1      33.622 -16.130 -25.626  0.00  0.00    +0.020 C 
ATOM     25  C   UNL     1      34.942 -16.981 -23.395  0.00  0.00    +0.134 C 
ATOM     26  C   UNL     1      34.123 -17.415 -25.497  0.00  0.00    +0.099 C 
BRANCH  25  29
ATOM     27  O   UNL     1      35.365 -17.068 -21.090  0.00  0.00    -0.268 OA
ATOM     28  N   UNL     1      36.637 -18.449 -22.450  0.00  0.00    -0.298 N 
ATOM     29  C   UNL     1      35.650 -17.480 -22.229  0.00  0.00    +0.264 C 
ATOM     30  C   UNL     1      37.410 -19.059 -21.392  0.00  0.00    +0.111 C 
ATOM     31  H   UNL     1      36.812 -18.731 -23.376  0.00  0.00    +0.150 HD
ENDBRANCH  25  29
ENDBRANCH  20  22
ENDBRANCH  19  20
ENDBRANCH   8  19
TORSDOF 5
ENDMDL
MODEL 8
REMARK VINA RESULT:     -10.6      9.055     13.282
REMARK  Name = 9808844
REMARK  5 active torsions:
REMARK  status: ('A' for Active; 'I' for Inactive)
REMARK    1  A    between atoms: N_2  and  C_13
REMARK    2  A    between atoms: C_8  and  O_19
REMARK    3  A    between atoms: O_19  and  C_20
REMARK    4  A    between atoms: C_20  and  C_22
REMARK    5  A    between atoms: C_25  and  C_29
REMARK                            x       y       z     vdW  Elec       q    Type
REMARK                         _______ _______ _______ _____ _____    ______ ____
ROOT
ATOM      1  O   UNL     1      31.822 -11.181 -20.328  0.00  0.00    -0.446 OA
ATOM      2  N   UNL     1      32.715  -7.222 -22.689  0.00  0.00    -0.296 N 
ATOM      3  N   UNL     1      32.983  -9.349 -23.745  0.00  0.00    -0.130 NA
ATOM      4  N   UNL     1      32.935 -10.738 -23.742  0.00  0.00    -0.106 NA
ATOM      5  C   UNL     1      32.261  -9.300 -21.498  0.00  0.00    +0.076 A 
ATOM      6  C   UNL     1      32.225 -10.687 -21.532  0.00  0.00    +0.202 A 
ATOM      7  C   UNL     1      32.655  -8.626 -22.650  0.00  0.00    +0.157 A 
ATOM      8  C   UNL     1      32.559 -11.426 -22.646  0.00  0.00    +0.279 A 
ATOM      9  C   UNL     1      31.853  -8.935 -20.189  0.00  0.00    +0.047 C 
ATOM     10  C   UNL     1      31.598 -10.111 -19.521  0.00  0.00    +0.180 C 
ATOM     11  H   UNL     1      32.457  -6.793 -21.842  0.00  0.00    +0.154 HD
ENDROOT
BRANCH   2  13
ATOM     12 CL   UNL     1      34.206  -3.376 -26.936  0.00  0.00    -0.082 Cl
ATOM     13  C   UNL     1      33.070  -6.305 -23.701  0.00  0.00    +0.049 C 
ATOM     14  C   UNL     1      32.178  -5.302 -24.077  0.00  0.00    +0.016 C 
ATOM     15  C   UNL     1      34.314  -6.403 -24.325  0.00  0.00    +0.016 C 
ATOM     16  C   UNL     1      32.529  -4.396 -25.078  0.00  0.00    +0.013 C 
ATOM     17  C   UNL     1      34.665  -5.497 -25.325  0.00  0.00    +0.013 C 
ATOM     18  C   UNL     1      33.773  -4.494 -25.701  0.00  0.00    +0.058 C 
ENDBRANCH   2  13
BRANCH   8  19
ATOM     19  O   UNL     1      32.527 -12.795 -22.688  0.00  0.00    -0.452 OA
BRANCH  19  20
ATOM     20  C   UNL     1      33.771 -13.459 -22.881  0.00  0.00    +0.234 C 
BRANCH  20  22
ATOM     21  N   UNL     1      33.478 -16.000 -26.320  0.00  0.00    -0.239 NA
ATOM     22  C   UNL     1      33.669 -14.350 -24.085  0.00  0.00    +0.024 C 
ATOM     23  C   UNL     1      34.032 -15.683 -23.989  0.00  0.00    +0.023 C 
ATOM     24  C   UNL     1      33.212 -13.831 -25.287  0.00  0.00    +0.020 C 
ATOM     25  C   UNL     1      33.918 -16.462 -25.129  0.00  0.00    +0.134 C 
ATOM     26  C   UNL     1      33.135 -14.693 -26.369  0.00  0.00    +0.099 C 
BRANCH  25  29
ATOM     27  O   UNL     1      34.286 -18.547 -26.138  0.00  0.00    -0.268 OA
ATOM     28  N   UNL     1      34.645 -18.402 -23.852  0.00  0.00    -0.298 N 
ATOM     29  C   UNL     1      34.282 -17.868 -25.095  0.00  0.00    +0.264 C 
ATOM     30  C   UNL     1      35.054 -19.775 -23.660  0.00  0.00    +0.111 C 
ATOM     31  H   UNL     1      34.621 -17.810 -23.066  0.00  0.00    +0.150 HD
ENDBRANCH  25  29
ENDBRANCH  20  22
ENDBRANCH  19  20
ENDBRANCH   8  19
TORSDOF 5
ENDMDL
MODEL 9
REMARK VINA RESULT:     -10.6      7.647     12.192
REMARK  Name = 9808844
REMARK  5 active torsions:
REMARK  status: ('A' for Active; 'I' for Inactive)
REMARK    1  A    between atoms: N_2  and  C_13
REMARK    2  A    between atoms: C_8  and  O_19
REMARK    3  A    between atoms: O_19  and  C_20
REMARK    4  A    between atoms: C_20  and  C_22
REMARK    5  A    between atoms: C_25  and  C_29
REMARK                            x       y       z     vdW  Elec       q    Type
REMARK                         _______ _______ _______ _____ _____    ______ ____
ROOT
ATOM      1  O   UNL     1      33.334 -13.989 -25.351  0.00  0.00    -0.446 OA
ATOM      2  N   UNL     1      34.908 -17.842 -23.178  0.00  0.00    -0.296 N 
ATOM      3  N   UNL     1      34.618 -15.801 -21.969  0.00  0.00    -0.130 NA
ATOM      4  N   UNL     1      34.262 -14.460 -21.886  0.00  0.00    -0.106 NA
ATOM      5  C   UNL     1      34.093 -15.821 -24.269  0.00  0.00    +0.076 A 
ATOM      6  C   UNL     1      33.747 -14.482 -24.151  0.00  0.00    +0.202 A 
ATOM      7  C   UNL     1      34.541 -16.486 -23.132  0.00  0.00    +0.157 A 
ATOM      8  C   UNL     1      33.825 -13.782 -22.965  0.00  0.00    +0.279 A 
ATOM      9  C   UNL     1      33.874 -16.156 -25.631  0.00  0.00    +0.047 C 
ATOM     10  C   UNL     1      33.414 -15.012 -26.242  0.00  0.00    +0.180 C 
ATOM     11  H   UNL     1      34.815 -18.245 -24.071  0.00  0.00    +0.154 HD
ENDROOT
BRANCH   2  13
ATOM     12 CL   UNL     1      36.900 -21.610 -19.069  0.00  0.00    -0.082 Cl
ATOM     13  C   UNL     1      35.383 -18.740 -22.199  0.00  0.00    +0.049 C 
ATOM     14  C   UNL     1      34.519 -19.679 -21.637  0.00  0.00    +0.016 C 
ATOM     15  C   UNL     1      36.716 -18.688 -21.793  0.00  0.00    +0.016 C 
ATOM     16  C   UNL     1      34.987 -20.567 -20.669  0.00  0.00    +0.013 C 
ATOM     17  C   UNL     1      37.185 -19.576 -20.826  0.00  0.00    +0.013 C 
ATOM     18  C   UNL     1      36.321 -20.515 -20.264  0.00  0.00    +0.058 C 
ENDBRANCH   2  13
BRANCH   8  19
ATOM     19  O   UNL     1      33.487 -12.460 -22.839  0.00  0.00    -0.452 OA
BRANCH  19  20
ATOM     20  C   UNL     1      32.123 -12.173 -22.549  0.00  0.00    +0.234 C 
BRANCH  20  22
ATOM     21  N   UNL     1      31.946  -9.055 -19.614  0.00  0.00    -0.239 NA
ATOM     22  C   UNL     1      32.061 -11.080 -21.522  0.00  0.00    +0.024 C 
ATOM     23  C   UNL     1      32.151  -9.757 -21.918  0.00  0.00    +0.023 C 
ATOM     24  C   UNL     1      31.915 -11.404 -20.181  0.00  0.00    +0.020 C 
ATOM     25  C   UNL     1      32.088  -8.786 -20.931  0.00  0.00    +0.134 C 
ATOM     26  C   UNL     1      31.863 -10.360 -19.272  0.00  0.00    +0.099 C 
BRANCH  25  29
ATOM     27  O   UNL     1      32.374  -6.519 -20.402  0.00  0.00    -0.268 OA
ATOM     28  N   UNL     1      32.050  -7.050 -22.636  0.00  0.00    -0.298 N 
ATOM     29  C   UNL     1      32.175  -7.379 -21.280  0.00  0.00    +0.264 C 
ATOM     30  C   UNL     1      32.138  -5.700 -23.143  0.00  0.00    +0.111 C 
ATOM     31  H   UNL     1      31.895  -7.779 -23.279  0.00  0.00    +0.150 HD
ENDBRANCH  25  29
ENDBRANCH  20  22
ENDBRANCH  19  20
ENDBRANCH   8  19
TORSDOF 5
ENDMDL
