MODEL 1
REMARK VINA RESULT:     -11.2      0.000      0.000
REMARK  Name = 44129624
REMARK  6 active torsions:
REMARK  status: ('A' for Active; 'I' for Inactive)
REMARK    1  A    between atoms: C_1  and  O_20
REMARK    2  A    between atoms: C_4  and  C_8
REMARK    3  A    between atoms: C_8  and  C_9
REMARK    4  A    between atoms: C_10  and  C_16
REMARK    5  A    between atoms: O_20  and  C_21
REMARK    6  A    between atoms: C_21  and  C_23
REMARK                            x       y       z     vdW  Elec       q    Type
REMARK                         _______ _______ _______ _____ _____    ______ ____
ROOT
ATOM      1  C   UNL     1      33.960 -22.283 -19.139  0.00  0.00    +0.138 C 
ATOM      2  C   UNL     1      33.372 -21.326 -19.966  0.00  0.00    +0.037 C 
ATOM      3  C   UNL     1      35.341 -22.282 -18.944  0.00  0.00    +0.037 C 
ATOM      4  C   UNL     1      35.545 -20.367 -20.403  0.00  0.00    +0.039 C 
ATOM      5  C   UNL     1      34.164 -20.369 -20.598  0.00  0.00    +0.006 C 
ATOM      6  C   UNL     1      36.134 -21.324 -19.576  0.00  0.00    +0.006 C 
ENDROOT
BRANCH   4   8
ATOM      7  O   UNL     1      37.607 -19.448 -21.012  0.00  0.00    -0.287 OA
ATOM      8  C   UNL     1      36.371 -19.367 -21.060  0.00  0.00    +0.196 C 
BRANCH   8   9
ATOM      9  C   UNL     1      35.788 -18.214 -21.811  0.00  0.00    +0.039 C 
ATOM     10  C   UNL     1      34.700 -16.062 -23.214  0.00  0.00    +0.001 C 
ATOM     11  C   UNL     1      35.473 -17.033 -21.140  0.00  0.00    +0.003 C 
ATOM     12  C   UNL     1      35.558 -18.320 -23.183  0.00  0.00    +0.003 C 
ATOM     13  C   UNL     1      34.929 -15.956 -21.842  0.00  0.00    +0.000 C 
ATOM     14  C   UNL     1      35.014 -17.244 -23.884  0.00  0.00    +0.000 C 
BRANCH  10  16
ATOM     15  S   UNL     1      33.447 -12.534 -24.450  0.00  0.00    -0.086 S 
ATOM     16  C   UNL     1      34.141 -14.953 -23.934  0.00  0.00    +0.007 C 
ATOM     17  C   UNL     1      33.511 -14.987 -25.211  0.00  0.00    +0.007 C 
ATOM     18  C   UNL     1      34.174 -13.681 -23.407  0.00  0.00    +0.035 C 
ATOM     19  C   UNL     1      33.086 -13.739 -25.612  0.00  0.00    +0.035 C 
ENDBRANCH  10  16
ENDBRANCH   8   9
ENDBRANCH   4   8
BRANCH   1  20
ATOM     20  O   UNL     1      33.181 -23.227 -18.517  0.00  0.00    -0.478 OA
BRANCH  20  21
ATOM     21  C   UNL     1      33.239 -23.274 -17.101  0.00  0.00    +0.184 C 
BRANCH  21  23
ATOM     22  N   UNL     1      30.801 -22.815 -17.134  0.00  0.00    +0.388 N 
ATOM     23  C   UNL     1      31.867 -23.655 -16.567  0.00  0.00    -0.017 C 
ATOM     24  C   UNL     1      31.728 -23.427 -15.070  0.00  0.00    -0.020 C 
ATOM     25  C   UNL     1      30.230 -23.271 -14.858  0.00  0.00    -0.025 C 
ATOM     26  C   UNL     1      29.653 -23.025 -16.245  0.00  0.00    -0.082 C 
ATOM     27  H   UNL     1      30.579 -23.110 -18.084  0.00  0.00    -0.084 HD
ATOM     28  H   UNL     1      31.072 -21.834 -17.190  0.00  0.00    -0.084 HD
ENDBRANCH  21  23
ENDBRANCH  20  21
ENDBRANCH   1  20
TORSDOF 6
ENDMDL
MODEL 2
REMARK VINA RESULT:     -10.8      1.300      1.848
REMARK  Name = 44129624
REMARK  6 active torsions:
REMARK  status: ('A' for Active; 'I' for Inactive)
REMARK    1  A    between atoms: C_1  and  O_20
REMARK    2  A    between atoms: C_4  and  C_8
REMARK    3  A    between atoms: C_8  and  C_9
REMARK    4  A    between atoms: C_10  and  C_16
REMARK    5  A    between atoms: O_20  and  C_21
REMARK    6  A    between atoms: C_21  and  C_23
REMARK                            x       y       z     vdW  Elec       q    Type
REMARK                         _______ _______ _______ _____ _____    ______ ____
ROOT
ATOM      1  C   UNL     1      34.075 -22.081 -19.566  0.00  0.00    +0.138 C 
ATOM      2  C   UNL     1      33.404 -21.092 -20.285  0.00  0.00    +0.037 C 
ATOM      3  C   UNL     1      35.460 -22.017 -19.417  0.00  0.00    +0.037 C 
ATOM      4  C   UNL     1      35.503 -19.973 -20.705  0.00  0.00    +0.039 C 
ATOM      5  C   UNL     1      34.118 -20.038 -20.854  0.00  0.00    +0.006 C 
ATOM      6  C   UNL     1      36.174 -20.962 -19.987  0.00  0.00    +0.006 C 
ENDROOT
BRANCH   4   8
ATOM      7  O   UNL     1      37.455 -19.000 -21.549  0.00  0.00    -0.287 OA
ATOM      8  C   UNL     1      36.247 -18.873 -21.297  0.00  0.00    +0.196 C 
BRANCH   8   9
ATOM      9  C   UNL     1      35.612 -17.561 -21.625  0.00  0.00    +0.039 C 
ATOM     10  C   UNL     1      34.425 -15.112 -22.238  0.00  0.00    +0.001 C 
ATOM     11  C   UNL     1      35.440 -17.184 -22.957  0.00  0.00    +0.003 C 
ATOM     12  C   UNL     1      35.192 -16.713 -20.600  0.00  0.00    +0.003 C 
ATOM     13  C   UNL     1      34.847 -15.959 -23.263  0.00  0.00    +0.000 C 
ATOM     14  C   UNL     1      34.599 -15.489 -20.907  0.00  0.00    +0.000 C 
BRANCH  10  16
ATOM     15  S   UNL     1      32.229 -11.839 -22.361  0.00  0.00    -0.086 S 
ATOM     16  C   UNL     1      33.814 -13.852 -22.556  0.00  0.00    +0.007 C 
ATOM     17  C   UNL     1      34.140 -12.986 -23.639  0.00  0.00    +0.007 C 
ATOM     18  C   UNL     1      32.791 -13.349 -21.782  0.00  0.00    +0.035 C 
ATOM     19  C   UNL     1      33.355 -11.854 -23.651  0.00  0.00    +0.035 C 
ENDBRANCH  10  16
ENDBRANCH   8   9
ENDBRANCH   4   8
BRANCH   1  20
ATOM     20  O   UNL     1      33.373 -23.119 -19.006  0.00  0.00    -0.478 OA
BRANCH  20  21
ATOM     21  C   UNL     1      33.905 -23.688 -17.822  0.00  0.00    +0.184 C 
BRANCH  21  23
ATOM     22  N   UNL     1      33.393 -23.914 -15.406  0.00  0.00    +0.388 N 
ATOM     23  C   UNL     1      33.147 -23.133 -16.627  0.00  0.00    -0.017 C 
ATOM     24  C   UNL     1      31.637 -23.215 -16.791  0.00  0.00    -0.020 C 
ATOM     25  C   UNL     1      31.110 -23.209 -15.364  0.00  0.00    -0.025 C 
ATOM     26  C   UNL     1      32.317 -23.520 -14.490  0.00  0.00    -0.082 C 
ATOM     27  H   UNL     1      34.304 -23.685 -15.010  0.00  0.00    -0.084 HD
ATOM     28  H   UNL     1      33.399 -24.918 -15.585  0.00  0.00    -0.084 HD
ENDBRANCH  21  23
ENDBRANCH  20  21
ENDBRANCH   1  20
TORSDOF 6
ENDMDL
MODEL 3
REMARK VINA RESULT:     -10.7      4.005      5.899
REMARK  Name = 44129624
REMARK  6 active torsions:
REMARK  status: ('A' for Active; 'I' for Inactive)
REMARK    1  A    between atoms: C_1  and  O_20
REMARK    2  A    between atoms: C_4  and  C_8
REMARK    3  A    between atoms: C_8  and  C_9
REMARK    4  A    between atoms: C_10  and  C_16
REMARK    5  A    between atoms: O_20  and  C_21
REMARK    6  A    between atoms: C_21  and  C_23
REMARK                            x       y       z     vdW  Elec       q    Type
REMARK                         _______ _______ _______ _____ _____    ______ ____
ROOT
ATOM      1  C   UNL     1      36.073 -23.172 -14.493  0.00  0.00    +0.138 C 
ATOM      2  C   UNL     1      36.791 -22.688 -15.586  0.00  0.00    +0.037 C 
ATOM      3  C   UNL     1      34.778 -23.660 -14.670  0.00  0.00    +0.037 C 
ATOM      4  C   UNL     1      34.920 -23.181 -17.033  0.00  0.00    +0.039 C 
ATOM      5  C   UNL     1      36.215 -22.693 -16.856  0.00  0.00    +0.006 C 
ATOM      6  C   UNL     1      34.202 -23.665 -15.940  0.00  0.00    +0.006 C 
ENDROOT
BRANCH   4   8
ATOM      7  O   UNL     1      33.646 -24.158 -18.733  0.00  0.00    -0.287 OA
ATOM      8  C   UNL     1      34.321 -23.188 -18.358  0.00  0.00    +0.196 C 
BRANCH   8   9
ATOM      9  C   UNL     1      34.482 -22.052 -19.317  0.00  0.00    +0.039 C 
ATOM     10  C   UNL     1      34.784 -19.933 -21.105  0.00  0.00    +0.001 C 
ATOM     11  C   UNL     1      33.357 -21.406 -19.826  0.00  0.00    +0.003 C 
ATOM     12  C   UNL     1      35.758 -21.641 -19.702  0.00  0.00    +0.003 C 
ATOM     13  C   UNL     1      33.508 -20.346 -20.721  0.00  0.00    +0.000 C 
ATOM     14  C   UNL     1      35.909 -20.581 -20.596  0.00  0.00    +0.000 C 
BRANCH  10  16
ATOM     15  S   UNL     1      34.899 -17.558 -24.251  0.00  0.00    -0.086 S 
ATOM     16  C   UNL     1      34.937 -18.842 -22.025  0.00  0.00    +0.007 C 
ATOM     17  C   UNL     1      35.392 -17.525 -21.729  0.00  0.00    +0.007 C 
ATOM     18  C   UNL     1      34.635 -18.997 -23.361  0.00  0.00    +0.035 C 
ATOM     19  C   UNL     1      35.419 -16.723 -22.849  0.00  0.00    +0.035 C 
ENDBRANCH  10  16
ENDBRANCH   8   9
ENDBRANCH   4   8
BRANCH   1  20
ATOM     20  O   UNL     1      36.638 -23.167 -13.243  0.00  0.00    -0.478 OA
BRANCH  20  21
ATOM     21  C   UNL     1      36.377 -24.290 -12.417  0.00  0.00    +0.184 C 
BRANCH  21  23
ATOM     22  N   UNL     1      38.719 -24.744 -13.098  0.00  0.00    +0.388 N 
ATOM     23  C   UNL     1      37.446 -25.342 -12.667  0.00  0.00    -0.017 C 
ATOM     24  C   UNL     1      37.100 -26.281 -13.813  0.00  0.00    -0.020 C 
ATOM     25  C   UNL     1      38.449 -26.802 -14.283  0.00  0.00    -0.025 C 
ATOM     26  C   UNL     1      39.478 -25.861 -13.671  0.00  0.00    -0.082 C 
ATOM     27  H   UNL     1      39.215 -24.343 -12.303  0.00  0.00    -0.084 HD
ATOM     28  H   UNL     1      38.582 -23.986 -13.767  0.00  0.00    -0.084 HD
ENDBRANCH  21  23
ENDBRANCH  20  21
ENDBRANCH   1  20
TORSDOF 6
ENDMDL
MODEL 4
REMARK VINA RESULT:     -10.5      4.860     10.037
REMARK  Name = 44129624
REMARK  6 active torsions:
REMARK  status: ('A' for Active; 'I' for Inactive)
REMARK    1  A    between atoms: C_1  and  O_20
REMARK    2  A    between atoms: C_4  and  C_8
REMARK    3  A    between atoms: C_8  and  C_9
REMARK    4  A    between atoms: C_10  and  C_16
REMARK    5  A    between atoms: O_20  and  C_21
REMARK    6  A    between atoms: C_21  and  C_23
REMARK                            x       y       z     vdW  Elec       q    Type
REMARK                         _______ _______ _______ _____ _____    ______ ____
ROOT
ATOM      1  C   UNL     1      35.900 -19.515 -21.146  0.00  0.00    +0.138 C 
ATOM      2  C   UNL     1      34.536 -19.795 -21.072  0.00  0.00    +0.037 C 
ATOM      3  C   UNL     1      36.815 -20.312 -20.458  0.00  0.00    +0.037 C 
ATOM      4  C   UNL     1      35.001 -21.672 -19.624  0.00  0.00    +0.039 C 
ATOM      5  C   UNL     1      34.086 -20.874 -20.312  0.00  0.00    +0.006 C 
ATOM      6  C   UNL     1      36.364 -21.392 -19.698  0.00  0.00    +0.006 C 
ENDROOT
BRANCH   4   8
ATOM      7  O   UNL     1      33.770 -23.639 -19.334  0.00  0.00    -0.287 OA
ATOM      8  C   UNL     1      34.531 -22.798 -18.833  0.00  0.00    +0.196 C 
BRANCH   8   9
ATOM      9  C   UNL     1      34.931 -22.999 -17.407  0.00  0.00    +0.039 C 
ATOM     10  C   UNL     1      35.677 -23.373 -14.746  0.00  0.00    +0.001 C 
ATOM     11  C   UNL     1      36.211 -22.640 -16.986  0.00  0.00    +0.003 C 
ATOM     12  C   UNL     1      34.025 -23.546 -16.499  0.00  0.00    +0.003 C 
ATOM     13  C   UNL     1      36.584 -22.827 -15.654  0.00  0.00    +0.000 C 
ATOM     14  C   UNL     1      34.398 -23.733 -15.168  0.00  0.00    +0.000 C 
BRANCH  10  16
ATOM     15  S   UNL     1      35.956 -24.400 -10.949  0.00  0.00    -0.086 S 
ATOM     16  C   UNL     1      36.063 -23.564 -13.376  0.00  0.00    +0.007 C 
ATOM     17  C   UNL     1      37.218 -23.040 -12.726  0.00  0.00    +0.007 C 
ATOM     18  C   UNL     1      35.289 -24.322 -12.524  0.00  0.00    +0.035 C 
ATOM     19  C   UNL     1      37.283 -23.418 -11.403  0.00  0.00    +0.035 C 
ENDBRANCH  10  16
ENDBRANCH   8   9
ENDBRANCH   4   8
BRANCH   1  20
ATOM     20  O   UNL     1      36.344 -18.453 -21.894  0.00  0.00    -0.478 OA
BRANCH  20  21
ATOM     21  C   UNL     1      35.399 -17.439 -22.192  0.00  0.00    +0.184 C 
BRANCH  21  23
ATOM     22  N   UNL     1      34.447 -16.186 -24.109  0.00  0.00    +0.388 N 
ATOM     23  C   UNL     1      35.209 -17.375 -23.700  0.00  0.00    -0.017 C 
ATOM     24  C   UNL     1      34.375 -18.524 -24.243  0.00  0.00    -0.020 C 
ATOM     25  C   UNL     1      33.809 -17.984 -25.548  0.00  0.00    -0.025 C 
ATOM     26  C   UNL     1      34.014 -16.478 -25.480  0.00  0.00    -0.082 C 
ATOM     27  H   UNL     1      35.038 -15.355 -24.088  0.00  0.00    -0.084 HD
ATOM     28  H   UNL     1      33.661 -15.998 -23.487  0.00  0.00    -0.084 HD
ENDBRANCH  21  23
ENDBRANCH  20  21
ENDBRANCH   1  20
TORSDOF 6
ENDMDL
MODEL 5
REMARK VINA RESULT:     -10.3      4.357      9.260
REMARK  Name = 44129624
REMARK  6 active torsions:
REMARK  status: ('A' for Active; 'I' for Inactive)
REMARK    1  A    between atoms: C_1  and  O_20
REMARK    2  A    between atoms: C_4  and  C_8
REMARK    3  A    between atoms: C_8  and  C_9
REMARK    4  A    between atoms: C_10  and  C_16
REMARK    5  A    between atoms: O_20  and  C_21
REMARK    6  A    between atoms: C_21  and  C_23
REMARK                            x       y       z     vdW  Elec       q    Type
REMARK                         _______ _______ _______ _____ _____    ______ ____
ROOT
ATOM      1  C   UNL     1      34.728 -15.191 -22.492  0.00  0.00    +0.138 C 
ATOM      2  C   UNL     1      34.658 -15.897 -23.692  0.00  0.00    +0.037 C 
ATOM      3  C   UNL     1      34.941 -15.872 -21.293  0.00  0.00    +0.037 C 
ATOM      4  C   UNL     1      35.013 -17.966 -22.496  0.00  0.00    +0.039 C 
ATOM      5  C   UNL     1      34.800 -17.284 -23.695  0.00  0.00    +0.006 C 
ATOM      6  C   UNL     1      35.083 -17.260 -21.296  0.00  0.00    +0.006 C 
ENDROOT
BRANCH   4   8
ATOM      7  O   UNL     1      35.571 -19.995 -23.515  0.00  0.00    -0.287 OA
ATOM      8  C   UNL     1      35.164 -19.412 -22.500  0.00  0.00    +0.196 C 
BRANCH   8   9
ATOM      9  C   UNL     1      34.844 -20.254 -21.308  0.00  0.00    +0.039 C 
ATOM     10  C   UNL     1      34.246 -21.826 -19.082  0.00  0.00    +0.001 C 
ATOM     11  C   UNL     1      35.873 -20.842 -20.573  0.00  0.00    +0.003 C 
ATOM     12  C   UNL     1      33.515 -20.453 -20.930  0.00  0.00    +0.003 C 
ATOM     13  C   UNL     1      35.574 -21.628 -19.460  0.00  0.00    +0.000 C 
ATOM     14  C   UNL     1      33.217 -21.239 -19.817  0.00  0.00    +0.000 C 
BRANCH  10  16
ATOM     15  S   UNL     1      34.324 -24.006 -15.797  0.00  0.00    -0.086 S 
ATOM     16  C   UNL     1      33.940 -22.634 -17.935  0.00  0.00    +0.007 C 
ATOM     17  C   UNL     1      32.655 -23.093 -17.524  0.00  0.00    +0.007 C 
ATOM     18  C   UNL     1      34.938 -23.059 -17.085  0.00  0.00    +0.035 C 
ATOM     19  C   UNL     1      32.720 -23.850 -16.375  0.00  0.00    +0.035 C 
ENDBRANCH  10  16
ENDBRANCH   8   9
ENDBRANCH   4   8
BRANCH   1  20
ATOM     20  O   UNL     1      34.588 -13.826 -22.488  0.00  0.00    -0.478 OA
BRANCH  20  21
ATOM     21  C   UNL     1      33.891 -13.250 -23.580  0.00  0.00    +0.184 C 
BRANCH  21  23
ATOM     22  N   UNL     1      32.882 -11.085 -22.910  0.00  0.00    +0.388 N 
ATOM     23  C   UNL     1      32.659 -12.531 -23.052  0.00  0.00    -0.017 C 
ATOM     24  C   UNL     1      32.277 -12.963 -21.645  0.00  0.00    -0.020 C 
ATOM     25  C   UNL     1      31.487 -11.783 -21.100  0.00  0.00    -0.025 C 
ATOM     26  C   UNL     1      31.794 -10.626 -22.040  0.00  0.00    -0.082 C 
ATOM     27  H   UNL     1      32.837 -10.623 -23.818  0.00  0.00    -0.084 HD
ATOM     28  H   UNL     1      33.802 -10.873 -22.523  0.00  0.00    -0.084 HD
ENDBRANCH  21  23
ENDBRANCH  20  21
ENDBRANCH   1  20
TORSDOF 6
ENDMDL
MODEL 6
REMARK VINA RESULT:     -10.3      3.833      6.739
REMARK  Name = 44129624
REMARK  6 active torsions:
REMARK  status: ('A' for Active; 'I' for Inactive)
REMARK    1  A    between atoms: C_1  and  O_20
REMARK    2  A    between atoms: C_4  and  C_8
REMARK    3  A    between atoms: C_8  and  C_9
REMARK    4  A    between atoms: C_10  and  C_16
REMARK    5  A    between atoms: O_20  and  C_21
REMARK    6  A    between atoms: C_21  and  C_23
REMARK                            x       y       z     vdW  Elec       q    Type
REMARK                         _______ _______ _______ _____ _____    ______ ____
ROOT
ATOM      1  C   UNL     1      35.347 -16.890 -21.465  0.00  0.00    +0.138 C 
ATOM      2  C   UNL     1      35.271 -17.109 -22.840  0.00  0.00    +0.037 C 
ATOM      3  C   UNL     1      34.864 -15.701 -20.920  0.00  0.00    +0.037 C 
ATOM      4  C   UNL     1      34.226 -14.950 -23.127  0.00  0.00    +0.039 C 
ATOM      5  C   UNL     1      34.710 -16.140 -23.671  0.00  0.00    +0.006 C 
ATOM      6  C   UNL     1      34.303 -14.731 -21.752  0.00  0.00    +0.006 C 
ENDROOT
BRANCH   4   8
ATOM      7  O   UNL     1      33.403 -14.199 -25.182  0.00  0.00    -0.287 OA
ATOM      8  C   UNL     1      33.640 -13.940 -23.993  0.00  0.00    +0.196 C 
BRANCH   8   9
ATOM      9  C   UNL     1      33.298 -12.569 -23.508  0.00  0.00    +0.039 C 
ATOM     10  C   UNL     1      32.658 -10.009 -22.603  0.00  0.00    +0.001 C 
ATOM     11  C   UNL     1      33.915 -11.455 -24.076  0.00  0.00    +0.003 C 
ATOM     12  C   UNL     1      32.362 -12.403 -22.486  0.00  0.00    +0.003 C 
ATOM     13  C   UNL     1      33.595 -10.175 -23.624  0.00  0.00    +0.000 C 
ATOM     14  C   UNL     1      32.043 -11.123 -22.034  0.00  0.00    +0.000 C 
BRANCH  10  16
ATOM     15  S   UNL     1      31.333  -6.322 -22.154  0.00  0.00    -0.086 S 
ATOM     16  C   UNL     1      32.330  -8.690 -22.139  0.00  0.00    +0.007 C 
ATOM     17  C   UNL     1      32.686  -8.104 -20.891  0.00  0.00    +0.007 C 
ATOM     18  C   UNL     1      31.593  -7.830 -22.924  0.00  0.00    +0.035 C 
ATOM     19  C   UNL     1      32.207  -6.818 -20.768  0.00  0.00    +0.035 C 
ENDBRANCH  10  16
ENDBRANCH   8   9
ENDBRANCH   4   8
BRANCH   1  20
ATOM     20  O   UNL     1      35.899 -17.844 -20.647  0.00  0.00    -0.478 OA
BRANCH  20  21
ATOM     21  C   UNL     1      36.627 -18.886 -21.276  0.00  0.00    +0.184 C 
BRANCH  21  23
ATOM     22  N   UNL     1      34.526 -20.007 -20.581  0.00  0.00    +0.388 N 
ATOM     23  C   UNL     1      35.916 -20.205 -21.018  0.00  0.00    -0.017 C 
ATOM     24  C   UNL     1      36.528 -20.997 -19.873  0.00  0.00    -0.020 C 
ATOM     25  C   UNL     1      35.394 -21.890 -19.395  0.00  0.00    -0.025 C 
ATOM     26  C   UNL     1      34.132 -21.296 -20.002  0.00  0.00    -0.082 C 
ATOM     27  H   UNL     1      33.930 -19.771 -21.375  0.00  0.00    -0.084 HD
ATOM     28  H   UNL     1      34.436 -19.240 -19.915  0.00  0.00    -0.084 HD
ENDBRANCH  21  23
ENDBRANCH  20  21
ENDBRANCH   1  20
TORSDOF 6
ENDMDL
MODEL 7
REMARK VINA RESULT:     -10.2      5.093     10.475
REMARK  Name = 44129624
REMARK  6 active torsions:
REMARK  status: ('A' for Active; 'I' for Inactive)
REMARK    1  A    between atoms: C_1  and  O_20
REMARK    2  A    between atoms: C_4  and  C_8
REMARK    3  A    between atoms: C_8  and  C_9
REMARK    4  A    between atoms: C_10  and  C_16
REMARK    5  A    between atoms: O_20  and  C_21
REMARK    6  A    between atoms: C_21  and  C_23
REMARK                            x       y       z     vdW  Elec       q    Type
REMARK                         _______ _______ _______ _____ _____    ______ ____
ROOT
ATOM      1  C   UNL     1      33.415 -12.826 -23.794  0.00  0.00    +0.138 C 
ATOM      2  C   UNL     1      33.108 -13.430 -25.013  0.00  0.00    +0.037 C 
ATOM      3  C   UNL     1      34.132 -13.531 -22.828  0.00  0.00    +0.037 C 
ATOM      4  C   UNL     1      34.236 -15.443 -24.300  0.00  0.00    +0.039 C 
ATOM      5  C   UNL     1      33.518 -14.738 -25.266  0.00  0.00    +0.006 C 
ATOM      6  C   UNL     1      34.543 -14.840 -23.081  0.00  0.00    +0.006 C 
ENDROOT
BRANCH   4   8
ATOM      7  O   UNL     1      34.883 -17.178 -25.729  0.00  0.00    -0.287 OA
ATOM      8  C   UNL     1      34.666 -16.807 -24.566  0.00  0.00    +0.196 C 
BRANCH   8   9
ATOM      9  C   UNL     1      34.864 -17.811 -23.477  0.00  0.00    +0.039 C 
ATOM     10  C   UNL     1      35.235 -19.686 -21.445  0.00  0.00    +0.001 C 
ATOM     11  C   UNL     1      34.205 -19.039 -23.533  0.00  0.00    +0.003 C 
ATOM     12  C   UNL     1      35.708 -17.520 -22.404  0.00  0.00    +0.003 C 
ATOM     13  C   UNL     1      34.391 -19.976 -22.517  0.00  0.00    +0.000 C 
ATOM     14  C   UNL     1      35.893 -18.457 -21.389  0.00  0.00    +0.000 C 
BRANCH  10  16
ATOM     15  S   UNL     1      34.841 -22.454 -18.665  0.00  0.00    -0.086 S 
ATOM     16  C   UNL     1      35.426 -20.652 -20.400  0.00  0.00    +0.007 C 
ATOM     17  C   UNL     1      36.652 -21.000 -19.763  0.00  0.00    +0.007 C 
ATOM     18  C   UNL     1      34.361 -21.368 -19.899  0.00  0.00    +0.035 C 
ATOM     19  C   UNL     1      36.477 -21.969 -18.799  0.00  0.00    +0.035 C 
ENDBRANCH  10  16
ENDBRANCH   8   9
ENDBRANCH   4   8
BRANCH   1  20
ATOM     20  O   UNL     1      33.011 -11.538 -23.544  0.00  0.00    -0.478 OA
BRANCH  20  21
ATOM     21  C   UNL     1      33.860 -10.499 -24.002  0.00  0.00    +0.184 C 
BRANCH  21  23
ATOM     22  N   UNL     1      32.223  -8.677 -23.609  0.00  0.00    +0.388 N 
ATOM     23  C   UNL     1      33.535  -9.227 -23.235  0.00  0.00    -0.017 C 
ATOM     24  C   UNL     1      34.490  -8.085 -23.548  0.00  0.00    -0.020 C 
ATOM     25  C   UNL     1      33.693  -6.835 -23.210  0.00  0.00    -0.025 C 
ATOM     26  C   UNL     1      32.246  -7.297 -23.112  0.00  0.00    -0.082 C 
ATOM     27  H   UNL     1      31.473  -9.207 -23.166  0.00  0.00    -0.084 HD
ATOM     28  H   UNL     1      32.057  -8.723 -24.614  0.00  0.00    -0.084 HD
ENDBRANCH  21  23
ENDBRANCH  20  21
ENDBRANCH   1  20
TORSDOF 6
ENDMDL
MODEL 8
REMARK VINA RESULT:     -10.1      2.898      5.598
REMARK  Name = 44129624
REMARK  6 active torsions:
REMARK  status: ('A' for Active; 'I' for Inactive)
REMARK    1  A    between atoms: C_1  and  O_20
REMARK    2  A    between atoms: C_4  and  C_8
REMARK    3  A    between atoms: C_8  and  C_9
REMARK    4  A    between atoms: C_10  and  C_16
REMARK    5  A    between atoms: O_20  and  C_21
REMARK    6  A    between atoms: C_21  and  C_23
REMARK                            x       y       z     vdW  Elec       q    Type
REMARK                         _______ _______ _______ _____ _____    ______ ____
ROOT
ATOM      1  C   UNL     1      35.201 -18.883 -23.188  0.00  0.00    +0.138 C 
ATOM      2  C   UNL     1      34.398 -19.187 -24.286  0.00  0.00    +0.037 C 
ATOM      3  C   UNL     1      35.485 -17.553 -22.878  0.00  0.00    +0.037 C 
ATOM      4  C   UNL     1      34.160 -16.831 -24.764  0.00  0.00    +0.039 C 
ATOM      5  C   UNL     1      33.877 -18.162 -25.074  0.00  0.00    +0.006 C 
ATOM      6  C   UNL     1      34.964 -16.527 -23.666  0.00  0.00    +0.006 C 
ENDROOT
BRANCH   4   8
ATOM      7  O   UNL     1      33.127 -16.015 -26.697  0.00  0.00    -0.287 OA
ATOM      8  C   UNL     1      33.614 -15.762 -25.585  0.00  0.00    +0.196 C 
BRANCH   8   9
ATOM      9  C   UNL     1      33.611 -14.334 -25.143  0.00  0.00    +0.039 C 
ATOM     10  C   UNL     1      33.605 -11.669 -24.319  0.00  0.00    +0.001 C 
ATOM     11  C   UNL     1      33.723 -13.313 -26.086  0.00  0.00    +0.003 C 
ATOM     12  C   UNL     1      33.498 -14.023 -23.788  0.00  0.00    +0.003 C 
ATOM     13  C   UNL     1      33.720 -11.980 -25.674  0.00  0.00    +0.000 C 
ATOM     14  C   UNL     1      33.495 -12.691 -23.376  0.00  0.00    +0.000 C 
BRANCH  10  16
ATOM     15  S   UNL     1      32.725  -8.099 -22.895  0.00  0.00    -0.086 S 
ATOM     16  C   UNL     1      33.601 -10.297 -23.896  0.00  0.00    +0.007 C 
ATOM     17  C   UNL     1      34.668  -9.360 -24.008  0.00  0.00    +0.007 C 
ATOM     18  C   UNL     1      32.485  -9.743 -23.309  0.00  0.00    +0.035 C 
ATOM     19  C   UNL     1      34.327  -8.125 -23.501  0.00  0.00    +0.035 C 
ENDBRANCH  10  16
ENDBRANCH   8   9
ENDBRANCH   4   8
BRANCH   1  20
ATOM     20  O   UNL     1      35.715 -19.892 -22.412  0.00  0.00    -0.478 OA
BRANCH  20  21
ATOM     21  C   UNL     1      35.521 -19.786 -21.011  0.00  0.00    +0.184 C 
BRANCH  21  23
ATOM     22  N   UNL     1      33.599 -20.972 -19.986  0.00  0.00    +0.388 N 
ATOM     23  C   UNL     1      34.973 -21.106 -20.491  0.00  0.00    -0.017 C 
ATOM     24  C   UNL     1      35.735 -21.631 -19.284  0.00  0.00    -0.020 C 
ATOM     25  C   UNL     1      34.735 -22.537 -18.582  0.00  0.00    -0.025 C 
ATOM     26  C   UNL     1      33.382 -22.178 -19.179  0.00  0.00    -0.082 C 
ATOM     27  H   UNL     1      32.935 -20.933 -20.759  0.00  0.00    -0.084 HD
ATOM     28  H   UNL     1      33.467 -20.117 -19.447  0.00  0.00    -0.084 HD
ENDBRANCH  21  23
ENDBRANCH  20  21
ENDBRANCH   1  20
TORSDOF 6
ENDMDL
MODEL 9
REMARK VINA RESULT:     -10.0      1.483      2.287
REMARK  Name = 44129624
REMARK  6 active torsions:
REMARK  status: ('A' for Active; 'I' for Inactive)
REMARK    1  A    between atoms: C_1  and  O_20
REMARK    2  A    between atoms: C_4  and  C_8
REMARK    3  A    between atoms: C_8  and  C_9
REMARK    4  A    between atoms: C_10  and  C_16
REMARK    5  A    between atoms: O_20  and  C_21
REMARK    6  A    between atoms: C_21  and  C_23
REMARK                            x       y       z     vdW  Elec       q    Type
REMARK                         _______ _______ _______ _____ _____    ______ ____
ROOT
ATOM      1  C   UNL     1      34.168 -22.340 -19.119  0.00  0.00    +0.138 C 
ATOM      2  C   UNL     1      33.535 -21.390 -19.920  0.00  0.00    +0.037 C 
ATOM      3  C   UNL     1      35.553 -22.306 -18.958  0.00  0.00    +0.037 C 
ATOM      4  C   UNL     1      35.672 -20.371 -20.399  0.00  0.00    +0.039 C 
ATOM      5  C   UNL     1      34.286 -20.406 -20.560  0.00  0.00    +0.006 C 
ATOM      6  C   UNL     1      36.305 -21.320 -19.598  0.00  0.00    +0.006 C 
ENDROOT
BRANCH   4   8
ATOM      7  O   UNL     1      37.692 -19.347 -20.981  0.00  0.00    -0.287 OA
ATOM      8  C   UNL     1      36.455 -19.342 -21.065  0.00  0.00    +0.196 C 
BRANCH   8   9
ATOM      9  C   UNL     1      35.826 -18.250 -21.868  0.00  0.00    +0.039 C 
ATOM     10  C   UNL     1      34.652 -16.210 -23.365  0.00  0.00    +0.001 C 
ATOM     11  C   UNL     1      35.512 -18.463 -23.209  0.00  0.00    +0.003 C 
ATOM     12  C   UNL     1      35.555 -17.016 -21.275  0.00  0.00    +0.003 C 
ATOM     13  C   UNL     1      34.925 -17.443 -23.958  0.00  0.00    +0.000 C 
ATOM     14  C   UNL     1      34.968 -15.997 -22.024  0.00  0.00    +0.000 C 
BRANCH  10  16
ATOM     15  S   UNL     1      33.216 -12.809 -24.751  0.00  0.00    -0.086 S 
ATOM     16  C   UNL     1      34.047 -15.162 -24.138  0.00  0.00    +0.007 C 
ATOM     17  C   UNL     1      33.462 -15.275 -25.432  0.00  0.00    +0.007 C 
ATOM     18  C   UNL     1      33.980 -13.875 -23.650  0.00  0.00    +0.035 C 
ATOM     19  C   UNL     1      32.972 -14.069 -25.885  0.00  0.00    +0.035 C 
ENDBRANCH  10  16
ENDBRANCH   8   9
ENDBRANCH   4   8
BRANCH   1  20
ATOM     20  O   UNL     1      33.429 -23.310 -18.489  0.00  0.00    -0.478 OA
BRANCH  20  21
ATOM     21  C   UNL     1      33.276 -23.189 -17.085  0.00  0.00    +0.184 C 
BRANCH  21  23
ATOM     22  N   UNL     1      34.294 -24.848 -15.547  0.00  0.00    +0.388 N 
ATOM     23  C   UNL     1      34.545 -23.683 -16.409  0.00  0.00    -0.017 C 
ATOM     24  C   UNL     1      35.143 -22.666 -15.450  0.00  0.00    -0.020 C 
ATOM     25  C   UNL     1      35.961 -23.507 -14.482  0.00  0.00    -0.025 C 
ATOM     26  C   UNL     1      35.480 -24.937 -14.689  0.00  0.00    -0.082 C 
ATOM     27  H   UNL     1      34.191 -25.694 -16.107  0.00  0.00    -0.084 HD
ATOM     28  H   UNL     1      33.433 -24.751 -15.008  0.00  0.00    -0.084 HD
ENDBRANCH  21  23
ENDBRANCH  20  21
ENDBRANCH   1  20
TORSDOF 6
ENDMDL
